MODEL 1
REMARK VINA RESULT:      -7.2      0.000      0.000
REMARK  Name = 
REMARK  9 active torsions:
REMARK  status: ('A' for Active; 'I' for Inactive)
REMARK    1  A    between atoms: C_1  and  O_2
REMARK    2  A    between atoms: O_2  and  C_3
REMARK    3  A    between atoms: C_6  and  C_7
REMARK    4  A    between atoms: C_9  and  C_10
REMARK    5  A    between atoms: C_10  and  C_11
REMARK    6  A    between atoms: C_11  and  N_12
REMARK    7  A    between atoms: C_13  and  C_15
REMARK    8  A    between atoms: C_24  and  O_25
REMARK    9  A    between atoms: O_25  and  C_26
REMARK                            x       y       z     vdW  Elec       q    Type
REMARK                         _______ _______ _______ _____ _____    ______ ____
ROOT
ATOM      1  C   UNL     1       2.158   5.578  19.471  0.00  0.00    +0.000 A 
ATOM      2  N   UNL     1       2.317   4.672  18.520  0.00  0.00    +0.000 NA
ATOM      3  C   UNL     1       2.449   3.403  19.067  0.00  0.00    +0.000 A 
ATOM      4  C   UNL     1       2.330   3.361  20.442  0.00  0.00    +0.000 A 
ATOM      5  S   UNL     1       2.085   4.932  21.067  0.00  0.00    +0.000 S 
ENDROOT
BRANCH   1   9
ATOM      6  C   UNL     1       1.555   9.786  18.796  0.00  0.00    +0.000 A 
ATOM      7  C   UNL     1       2.147   8.991  17.804  0.00  0.00    +0.000 A 
ATOM      8  C   UNL     1       2.359   7.625  18.009  0.00  0.00    +0.000 A 
ATOM      9  C   UNL     1       2.022   7.024  19.228  0.00  0.00    +0.000 A 
ATOM     10  C   UNL     1       1.503   7.845  20.239  0.00  0.00    +0.000 A 
ATOM     11  C   UNL     1       1.280   9.221  20.049  0.00  0.00    +0.000 A 
BRANCH   6  13
ATOM     12  C   UNL     1       2.379  11.910  18.169  0.00  0.00    +0.000 C 
ATOM     13  O   UNL     1       1.267  11.102  18.558  0.00  0.00    +0.000 OA
ENDBRANCH   6  13
BRANCH  11  14
ATOM     14  O   UNL     1       0.778   9.820  21.173  0.00  0.00    +0.000 OA
ATOM     15  C   UNL     1       0.998   9.214  22.436  0.00  0.00    +0.000 C 
ENDBRANCH  11  14
ENDBRANCH   1   9
BRANCH   3  16
ATOM     16  C   UNL     1       2.660   2.217  18.179  0.00  0.00    +0.000 C 
BRANCH  16  17
ATOM     17  C   UNL     1       4.007   2.206  17.458  0.00  0.00    +0.000 C 
BRANCH  17  18
ATOM     18  N   UNL     1       4.847   3.329  17.856  0.00  0.00    +0.000 N 
ATOM     19  C   UNL     1       5.289   4.263  16.938  0.00  0.00    +0.000 C 
ATOM     20  O   UNL     1       4.964   4.239  15.756  0.00  0.00    +0.000 OA
ATOM     21  H   UNL     1       5.207   3.338  18.800  0.00  0.00    +0.000 HD
BRANCH  19  22
ATOM     22  C   UNL     1       6.234   5.301  17.432  0.00  0.00    +0.000 A 
ATOM     23  C   UNL     1       7.051   4.985  18.528  0.00  0.00    +0.000 A 
ATOM     24  C   UNL     1       7.954   5.924  19.032  0.00  0.00    +0.000 A 
ATOM     25  C   UNL     1       8.052   7.181  18.439  0.00  0.00    +0.000 A 
ATOM     26  C   UNL     1       7.256   7.498  17.337  0.00  0.00    +0.000 A 
ATOM     27  C   UNL     1       6.350   6.559  16.830  0.00  0.00    +0.000 A 
ENDBRANCH  19  22
ENDBRANCH  17  18
ENDBRANCH  16  17
ENDBRANCH   3  16
TORSDOF 7
ENDMDL
MODEL 2
REMARK VINA RESULT:      -7.2      2.271      3.016
REMARK  Name = 
REMARK  9 active torsions:
REMARK  status: ('A' for Active; 'I' for Inactive)
REMARK    1  A    between atoms: C_1  and  O_2
REMARK    2  A    between atoms: O_2  and  C_3
REMARK    3  A    between atoms: C_6  and  C_7
REMARK    4  A    between atoms: C_9  and  C_10
REMARK    5  A    between atoms: C_10  and  C_11
REMARK    6  A    between atoms: C_11  and  N_12
REMARK    7  A    between atoms: C_13  and  C_15
REMARK    8  A    between atoms: C_24  and  O_25
REMARK    9  A    between atoms: O_25  and  C_26
REMARK                            x       y       z     vdW  Elec       q    Type
REMARK                         _______ _______ _______ _____ _____    ______ ____
ROOT
ATOM      1  C   UNL     1       2.589   6.332  19.462  0.00  0.00    +0.000 A 
ATOM      2  N   UNL     1       3.650   5.835  18.850  0.00  0.00    +0.000 NA
ATOM      3  C   UNL     1       3.881   4.526  19.251  0.00  0.00    +0.000 A 
ATOM      4  C   UNL     1       2.942   4.027  20.132  0.00  0.00    +0.000 A 
ATOM      5  S   UNL     1       1.774   5.219  20.496  0.00  0.00    +0.000 S 
ENDROOT
BRANCH   1   9
ATOM      6  C   UNL     1       0.953  10.286  18.999  0.00  0.00    +0.000 A 
ATOM      7  C   UNL     1       1.592   9.657  17.921  0.00  0.00    +0.000 A 
ATOM      8  C   UNL     1       2.139   8.378  18.056  0.00  0.00    +0.000 A 
ATOM      9  C   UNL     1       2.094   7.708  19.284  0.00  0.00    +0.000 A 
ATOM     10  C   UNL     1       1.522   8.379  20.373  0.00  0.00    +0.000 A 
ATOM     11  C   UNL     1       0.965   9.666  20.255  0.00  0.00    +0.000 A 
BRANCH   6  13
ATOM     12  C   UNL     1       1.224  12.618  18.724  0.00  0.00    +0.000 C 
ATOM     13  O   UNL     1       0.342  11.500  18.838  0.00  0.00    +0.000 OA
ENDBRANCH   6  13
BRANCH  11  14
ATOM     14  O   UNL     1       0.473  10.125  21.448  0.00  0.00    +0.000 OA
ATOM     15  C   UNL     1       0.204   9.198  22.487  0.00  0.00    +0.000 C 
ENDBRANCH  11  14
ENDBRANCH   1   9
BRANCH   3  16
ATOM     16  C   UNL     1       5.046   3.762  18.702  0.00  0.00    +0.000 C 
BRANCH  16  17
ATOM     17  C   UNL     1       6.214   4.639  18.253  0.00  0.00    +0.000 C 
BRANCH  17  18
ATOM     18  N   UNL     1       6.562   4.409  16.856  0.00  0.00    +0.000 N 
ATOM     19  C   UNL     1       5.893   5.050  15.830  0.00  0.00    +0.000 C 
ATOM     20  O   UNL     1       5.014   5.881  16.025  0.00  0.00    +0.000 OA
ATOM     21  H   UNL     1       7.219   3.671  16.648  0.00  0.00    +0.000 HD
BRANCH  19  22
ATOM     22  C   UNL     1       6.253   4.655  14.440  0.00  0.00    +0.000 A 
ATOM     23  C   UNL     1       7.413   5.204  13.874  0.00  0.00    +0.000 A 
ATOM     24  C   UNL     1       7.794   4.868  12.573  0.00  0.00    +0.000 A 
ATOM     25  C   UNL     1       7.023   3.973  11.833  0.00  0.00    +0.000 A 
ATOM     26  C   UNL     1       5.878   3.407  12.395  0.00  0.00    +0.000 A 
ATOM     27  C   UNL     1       5.493   3.743  13.698  0.00  0.00    +0.000 A 
ENDBRANCH  19  22
ENDBRANCH  17  18
ENDBRANCH  16  17
ENDBRANCH   3  16
TORSDOF 7
ENDMDL
MODEL 3
REMARK VINA RESULT:      -7.1      2.322      7.189
REMARK  Name = 
REMARK  9 active torsions:
REMARK  status: ('A' for Active; 'I' for Inactive)
REMARK    1  A    between atoms: C_1  and  O_2
REMARK    2  A    between atoms: O_2  and  C_3
REMARK    3  A    between atoms: C_6  and  C_7
REMARK    4  A    between atoms: C_9  and  C_10
REMARK    5  A    between atoms: C_10  and  C_11
REMARK    6  A    between atoms: C_11  and  N_12
REMARK    7  A    between atoms: C_13  and  C_15
REMARK    8  A    between atoms: C_24  and  O_25
REMARK    9  A    between atoms: O_25  and  C_26
REMARK                            x       y       z     vdW  Elec       q    Type
REMARK                         _______ _______ _______ _____ _____    ______ ____
ROOT
ATOM      1  C   UNL     1       3.644   3.871  17.548  0.00  0.00    +0.000 A 
ATOM      2  N   UNL     1       3.142   4.629  18.509  0.00  0.00    +0.000 NA
ATOM      3  C   UNL     1       2.032   4.024  19.083  0.00  0.00    +0.000 A 
ATOM      4  C   UNL     1       1.739   2.774  18.576  0.00  0.00    +0.000 A 
ATOM      5  S   UNL     1       2.843   2.358  17.341  0.00  0.00    +0.000 S 
ENDROOT
BRANCH   1   9
ATOM      6  C   UNL     1       6.937   5.123  15.076  0.00  0.00    +0.000 A 
ATOM      7  C   UNL     1       6.304   3.894  14.838  0.00  0.00    +0.000 A 
ATOM      8  C   UNL     1       5.240   3.467  15.636  0.00  0.00    +0.000 A 
ATOM      9  C   UNL     1       4.804   4.238  16.720  0.00  0.00    +0.000 A 
ATOM     10  C   UNL     1       5.497   5.426  16.995  0.00  0.00    +0.000 A 
ATOM     11  C   UNL     1       6.568   5.873  16.201  0.00  0.00    +0.000 A 
BRANCH   6  13
ATOM     12  C   UNL     1       7.806   5.156  12.878  0.00  0.00    +0.000 C 
ATOM     13  O   UNL     1       7.919   5.577  14.239  0.00  0.00    +0.000 OA
ENDBRANCH   6  13
BRANCH  11  14
ATOM     14  O   UNL     1       7.095   7.050  16.662  0.00  0.00    +0.000 OA
ATOM     15  C   UNL     1       7.734   7.071  17.928  0.00  0.00    +0.000 C 
ENDBRANCH  11  14
ENDBRANCH   1   9
BRANCH   3  16
ATOM     16  C   UNL     1       1.284   4.710  20.184  0.00  0.00    +0.000 C 
BRANCH  16  17
ATOM     17  C   UNL     1       2.089   5.785  20.912  0.00  0.00    +0.000 C 
BRANCH  17  18
ATOM     18  N   UNL     1       1.247   6.894  21.348  0.00  0.00    +0.000 N 
ATOM     19  C   UNL     1       1.246   8.105  20.681  0.00  0.00    +0.000 C 
ATOM     20  O   UNL     1       1.901   8.306  19.665  0.00  0.00    +0.000 OA
ATOM     21  H   UNL     1       0.760   6.800  22.227  0.00  0.00    +0.000 HD
BRANCH  19  22
ATOM     22  C   UNL     1       0.438   9.203  21.279  0.00  0.00    +0.000 A 
ATOM     23  C   UNL     1       0.029  10.254  20.445  0.00  0.00    +0.000 A 
ATOM     24  C   UNL     1      -0.730  11.310  20.956  0.00  0.00    +0.000 A 
ATOM     25  C   UNL     1      -1.092  11.317  22.302  0.00  0.00    +0.000 A 
ATOM     26  C   UNL     1      -0.705  10.266  23.135  0.00  0.00    +0.000 A 
ATOM     27  C   UNL     1       0.056   9.208  22.626  0.00  0.00    +0.000 A 
ENDBRANCH  19  22
ENDBRANCH  17  18
ENDBRANCH  16  17
ENDBRANCH   3  16
TORSDOF 7
ENDMDL
MODEL 4
REMARK VINA RESULT:      -7.1      2.293      7.065
REMARK  Name = 
REMARK  9 active torsions:
REMARK  status: ('A' for Active; 'I' for Inactive)
REMARK    1  A    between atoms: C_1  and  O_2
REMARK    2  A    between atoms: O_2  and  C_3
REMARK    3  A    between atoms: C_6  and  C_7
REMARK    4  A    between atoms: C_9  and  C_10
REMARK    5  A    between atoms: C_10  and  C_11
REMARK    6  A    between atoms: C_11  and  N_12
REMARK    7  A    between atoms: C_13  and  C_15
REMARK    8  A    between atoms: C_24  and  O_25
REMARK    9  A    between atoms: O_25  and  C_26
REMARK                            x       y       z     vdW  Elec       q    Type
REMARK                         _______ _______ _______ _____ _____    ______ ____
ROOT
ATOM      1  C   UNL     1       3.892   3.653  17.697  0.00  0.00    +0.000 A 
ATOM      2  N   UNL     1       3.272   4.483  18.520  0.00  0.00    +0.000 NA
ATOM      3  C   UNL     1       2.258   3.830  19.207  0.00  0.00    +0.000 A 
ATOM      4  C   UNL     1       2.161   2.481  18.929  0.00  0.00    +0.000 A 
ATOM      5  S   UNL     1       3.327   2.026  17.768  0.00  0.00    +0.000 S 
ENDROOT
BRANCH   1   9
ATOM      6  C   UNL     1       7.045   4.980  15.086  0.00  0.00    +0.000 A 
ATOM      7  C   UNL     1       6.156   3.980  14.666  0.00  0.00    +0.000 A 
ATOM      8  C   UNL     1       5.132   3.530  15.504  0.00  0.00    +0.000 A 
ATOM      9  C   UNL     1       4.993   4.039  16.800  0.00  0.00    +0.000 A 
ATOM     10  C   UNL     1       5.936   4.981  17.235  0.00  0.00    +0.000 A 
ATOM     11  C   UNL     1       6.972   5.447  16.405  0.00  0.00    +0.000 A 
BRANCH   6  13
ATOM     12  C   UNL     1       7.781   5.185  12.849  0.00  0.00    +0.000 C 
ATOM     13  O   UNL     1       7.990   5.480  14.231  0.00  0.00    +0.000 OA
ENDBRANCH   6  13
BRANCH  11  14
ATOM     14  O   UNL     1       7.774   6.354  17.044  0.00  0.00    +0.000 OA
ATOM     15  C   UNL     1       7.243   7.622  17.392  0.00  0.00    +0.000 C 
ENDBRANCH  11  14
ENDBRANCH   1   9
BRANCH   3  16
ATOM     16  C   UNL     1       1.405   4.578  20.183  0.00  0.00    +0.000 C 
BRANCH  16  17
ATOM     17  C   UNL     1       2.170   5.584  21.041  0.00  0.00    +0.000 C 
BRANCH  17  18
ATOM     18  N   UNL     1       1.360   6.754  21.361  0.00  0.00    +0.000 N 
ATOM     19  C   UNL     1       1.415   7.903  20.594  0.00  0.00    +0.000 C 
ATOM     20  O   UNL     1       2.096   7.994  19.579  0.00  0.00    +0.000 OA
ATOM     21  H   UNL     1       0.852   6.753  22.235  0.00  0.00    +0.000 HD
BRANCH  19  22
ATOM     22  C   UNL     1       0.634   9.075  21.077  0.00  0.00    +0.000 A 
ATOM     23  C   UNL     1       0.197   9.075  22.410  0.00  0.00    +0.000 A 
ATOM     24  C   UNL     1      -0.540  10.150  22.913  0.00  0.00    +0.000 A 
ATOM     25  C   UNL     1      -0.838  11.234  22.090  0.00  0.00    +0.000 A 
ATOM     26  C   UNL     1      -0.390  11.251  20.768  0.00  0.00    +0.000 A 
ATOM     27  C   UNL     1       0.348  10.175  20.261  0.00  0.00    +0.000 A 
ENDBRANCH  19  22
ENDBRANCH  17  18
ENDBRANCH  16  17
ENDBRANCH   3  16
TORSDOF 7
ENDMDL
MODEL 5
REMARK VINA RESULT:      -7.1      2.506      3.260
REMARK  Name = 
REMARK  9 active torsions:
REMARK  status: ('A' for Active; 'I' for Inactive)
REMARK    1  A    between atoms: C_1  and  O_2
REMARK    2  A    between atoms: O_2  and  C_3
REMARK    3  A    between atoms: C_6  and  C_7
REMARK    4  A    between atoms: C_9  and  C_10
REMARK    5  A    between atoms: C_10  and  C_11
REMARK    6  A    between atoms: C_11  and  N_12
REMARK    7  A    between atoms: C_13  and  C_15
REMARK    8  A    between atoms: C_24  and  O_25
REMARK    9  A    between atoms: O_25  and  C_26
REMARK                            x       y       z     vdW  Elec       q    Type
REMARK                         _______ _______ _______ _____ _____    ______ ____
ROOT
ATOM      1  C   UNL     1       2.727   6.211  18.818  0.00  0.00    +0.000 A 
ATOM      2  N   UNL     1       3.972   5.880  19.119  0.00  0.00    +0.000 NA
ATOM      3  C   UNL     1       4.232   4.565  18.756  0.00  0.00    +0.000 A 
ATOM      4  C   UNL     1       3.180   3.930  18.127  0.00  0.00    +0.000 A 
ATOM      5  S   UNL     1       1.833   4.974  18.016  0.00  0.00    +0.000 S 
ENDROOT
BRANCH   1   9
ATOM      6  C   UNL     1       0.794   9.950  19.719  0.00  0.00    +0.000 A 
ATOM      7  C   UNL     1       1.254   9.689  18.420  0.00  0.00    +0.000 A 
ATOM      8  C   UNL     1       1.893   8.485  18.111  0.00  0.00    +0.000 A 
ATOM      9  C   UNL     1       2.124   7.524  19.102  0.00  0.00    +0.000 A 
ATOM     10  C   UNL     1       1.729   7.830  20.412  0.00  0.00    +0.000 A 
ATOM     11  C   UNL     1       1.083   9.035  20.741  0.00  0.00    +0.000 A 
BRANCH   6  13
ATOM     12  C   UNL     1       0.529  12.262  19.305  0.00  0.00    +0.000 C 
ATOM     13  O   UNL     1       0.091  11.091  19.995  0.00  0.00    +0.000 OA
ENDBRANCH   6  13
BRANCH  11  14
ATOM     14  O   UNL     1       0.800   9.120  22.078  0.00  0.00    +0.000 OA
ATOM     15  C   UNL     1      -0.545   9.297  22.489  0.00  0.00    +0.000 C 
ENDBRANCH  11  14
ENDBRANCH   1   9
BRANCH   3  16
ATOM     16  C   UNL     1       5.577   3.963  19.019  0.00  0.00    +0.000 C 
BRANCH  16  17
ATOM     17  C   UNL     1       6.725   4.648  18.280  0.00  0.00    +0.000 C 
BRANCH  17  18
ATOM     18  N   UNL     1       6.754   4.291  16.866  0.00  0.00    +0.000 N 
ATOM     19  C   UNL     1       7.065   5.222  15.892  0.00  0.00    +0.000 C 
ATOM     20  O   UNL     1       7.386   6.375  16.153  0.00  0.00    +0.000 OA
ATOM     21  H   UNL     1       6.413   3.377  16.603  0.00  0.00    +0.000 HD
BRANCH  19  22
ATOM     22  C   UNL     1       6.952   4.779  14.476  0.00  0.00    +0.000 A 
ATOM     23  C   UNL     1       6.012   3.785  14.166  0.00  0.00    +0.000 A 
ATOM     24  C   UNL     1       5.866   3.333  12.852  0.00  0.00    +0.000 A 
ATOM     25  C   UNL     1       6.654   3.877  11.839  0.00  0.00    +0.000 A 
ATOM     26  C   UNL     1       7.579   4.879  12.135  0.00  0.00    +0.000 A 
ATOM     27  C   UNL     1       7.726   5.334  13.450  0.00  0.00    +0.000 A 
ENDBRANCH  19  22
ENDBRANCH  17  18
ENDBRANCH  16  17
ENDBRANCH   3  16
TORSDOF 7
ENDMDL
MODEL 6
REMARK VINA RESULT:      -7.0      1.042      1.394
REMARK  Name = 
REMARK  9 active torsions:
REMARK  status: ('A' for Active; 'I' for Inactive)
REMARK    1  A    between atoms: C_1  and  O_2
REMARK    2  A    between atoms: O_2  and  C_3
REMARK    3  A    between atoms: C_6  and  C_7
REMARK    4  A    between atoms: C_9  and  C_10
REMARK    5  A    between atoms: C_10  and  C_11
REMARK    6  A    between atoms: C_11  and  N_12
REMARK    7  A    between atoms: C_13  and  C_15
REMARK    8  A    between atoms: C_24  and  O_25
REMARK    9  A    between atoms: O_25  and  C_26
REMARK                            x       y       z     vdW  Elec       q    Type
REMARK                         _______ _______ _______ _____ _____    ______ ____
ROOT
ATOM      1  C   UNL     1       2.020   5.692  19.388  0.00  0.00    +0.000 A 
ATOM      2  N   UNL     1       2.121   4.838  18.383  0.00  0.00    +0.000 NA
ATOM      3  C   UNL     1       2.248   3.538  18.853  0.00  0.00    +0.000 A 
ATOM      4  C   UNL     1       2.184   3.421  20.227  0.00  0.00    +0.000 A 
ATOM      5  S   UNL     1       1.999   4.959  20.948  0.00  0.00    +0.000 S 
ENDROOT
BRANCH   1   9
ATOM      6  C   UNL     1       1.478   9.940  18.965  0.00  0.00    +0.000 A 
ATOM      7  C   UNL     1       2.052   9.196  17.924  0.00  0.00    +0.000 A 
ATOM      8  C   UNL     1       2.245   7.817  18.047  0.00  0.00    +0.000 A 
ATOM      9  C   UNL     1       1.905   7.151  19.231  0.00  0.00    +0.000 A 
ATOM     10  C   UNL     1       1.405   7.920  20.291  0.00  0.00    +0.000 A 
ATOM     11  C   UNL     1       1.202   9.307  20.185  0.00  0.00    +0.000 A 
BRANCH   6  13
ATOM     12  C   UNL     1      -0.163  11.598  18.582  0.00  0.00    +0.000 C 
ATOM     13  O   UNL     1       1.210  11.273  18.806  0.00  0.00    +0.000 OA
ENDBRANCH   6  13
BRANCH  11  14
ATOM     14  O   UNL     1       0.716   9.847  21.345  0.00  0.00    +0.000 OA
ATOM     15  C   UNL     1       1.235   9.399  22.586  0.00  0.00    +0.000 C 
ENDBRANCH  11  14
ENDBRANCH   1   9
BRANCH   3  16
ATOM     16  C   UNL     1       2.397   2.399  17.892  0.00  0.00    +0.000 C 
BRANCH  16  17
ATOM     17  C   UNL     1       3.845   2.057  17.547  0.00  0.00    +0.000 C 
BRANCH  17  18
ATOM     18  N   UNL     1       4.662   3.252  17.376  0.00  0.00    +0.000 N 
ATOM     19  C   UNL     1       5.401   3.779  18.419  0.00  0.00    +0.000 C 
ATOM     20  O   UNL     1       5.460   3.253  19.524  0.00  0.00    +0.000 OA
ATOM     21  H   UNL     1       4.574   3.764  16.509  0.00  0.00    +0.000 HD
BRANCH  19  22
ATOM     22  C   UNL     1       6.105   5.065  18.164  0.00  0.00    +0.000 A 
ATOM     23  C   UNL     1       5.527   5.970  17.262  0.00  0.00    +0.000 A 
ATOM     24  C   UNL     1       6.148   7.191  16.987  0.00  0.00    +0.000 A 
ATOM     25  C   UNL     1       7.347   7.518  17.618  0.00  0.00    +0.000 A 
ATOM     26  C   UNL     1       7.921   6.632  18.531  0.00  0.00    +0.000 A 
ATOM     27  C   UNL     1       7.300   5.408  18.808  0.00  0.00    +0.000 A 
ENDBRANCH  19  22
ENDBRANCH  17  18
ENDBRANCH  16  17
ENDBRANCH   3  16
TORSDOF 7
ENDMDL
MODEL 7
REMARK VINA RESULT:      -7.0      2.071      6.606
REMARK  Name = 
REMARK  9 active torsions:
REMARK  status: ('A' for Active; 'I' for Inactive)
REMARK    1  A    between atoms: C_1  and  O_2
REMARK    2  A    between atoms: O_2  and  C_3
REMARK    3  A    between atoms: C_6  and  C_7
REMARK    4  A    between atoms: C_9  and  C_10
REMARK    5  A    between atoms: C_10  and  C_11
REMARK    6  A    between atoms: C_11  and  N_12
REMARK    7  A    between atoms: C_13  and  C_15
REMARK    8  A    between atoms: C_24  and  O_25
REMARK    9  A    between atoms: O_25  and  C_26
REMARK                            x       y       z     vdW  Elec       q    Type
REMARK                         _______ _______ _______ _____ _____    ______ ____
ROOT
ATOM      1  C   UNL     1       3.799   3.688  17.803  0.00  0.00    +0.000 A 
ATOM      2  N   UNL     1       3.095   4.501  18.572  0.00  0.00    +0.000 NA
ATOM      3  C   UNL     1       2.097   3.806  19.240  0.00  0.00    +0.000 A 
ATOM      4  C   UNL     1       2.097   2.445  19.005  0.00  0.00    +0.000 A 
ATOM      5  S   UNL     1       3.336   2.030  17.906  0.00  0.00    +0.000 S 
ENDROOT
BRANCH   1   9
ATOM      6  C   UNL     1       6.935   5.108  15.219  0.00  0.00    +0.000 A 
ATOM      7  C   UNL     1       6.384   3.833  15.024  0.00  0.00    +0.000 A 
ATOM      8  C   UNL     1       5.373   3.351  15.859  0.00  0.00    +0.000 A 
ATOM      9  C   UNL     1       4.910   4.115  16.937  0.00  0.00    +0.000 A 
ATOM     10  C   UNL     1       5.524   5.355  17.167  0.00  0.00    +0.000 A 
ATOM     11  C   UNL     1       6.541   5.857  16.336  0.00  0.00    +0.000 A 
BRANCH   6  13
ATOM     12  C   UNL     1       7.739   5.157  12.997  0.00  0.00    +0.000 C 
ATOM     13  O   UNL     1       7.861   5.610  14.346  0.00  0.00    +0.000 OA
ENDBRANCH   6  13
BRANCH  11  14
ATOM     14  O   UNL     1       6.995   7.078  16.758  0.00  0.00    +0.000 OA
ATOM     15  C   UNL     1       7.737   7.160  17.963  0.00  0.00    +0.000 C 
ENDBRANCH  11  14
ENDBRANCH   1   9
BRANCH   3  16
ATOM     16  C   UNL     1       1.159   4.527  20.157  0.00  0.00    +0.000 C 
BRANCH  16  17
ATOM     17  C   UNL     1       1.841   5.523  21.094  0.00  0.00    +0.000 C 
BRANCH  17  18
ATOM     18  N   UNL     1       1.946   6.849  20.497  0.00  0.00    +0.000 N 
ATOM     19  C   UNL     1       1.049   7.854  20.805  0.00  0.00    +0.000 C 
ATOM     20  O   UNL     1       0.152   7.715  21.628  0.00  0.00    +0.000 OA
ATOM     21  H   UNL     1       2.616   6.979  19.751  0.00  0.00    +0.000 HD
BRANCH  19  22
ATOM     22  C   UNL     1       1.181   9.131  20.051  0.00  0.00    +0.000 A 
ATOM     23  C   UNL     1       0.935  10.331  20.733  0.00  0.00    +0.000 A 
ATOM     24  C   UNL     1       1.044  11.557  20.072  0.00  0.00    +0.000 A 
ATOM     25  C   UNL     1       1.408  11.590  18.727  0.00  0.00    +0.000 A 
ATOM     26  C   UNL     1       1.673  10.402  18.045  0.00  0.00    +0.000 A 
ATOM     27  C   UNL     1       1.564   9.173  18.705  0.00  0.00    +0.000 A 
ENDBRANCH  19  22
ENDBRANCH  17  18
ENDBRANCH  16  17
ENDBRANCH   3  16
TORSDOF 7
ENDMDL
MODEL 8
REMARK VINA RESULT:      -6.9      2.714      7.960
REMARK  Name = 
REMARK  9 active torsions:
REMARK  status: ('A' for Active; 'I' for Inactive)
REMARK    1  A    between atoms: C_1  and  O_2
REMARK    2  A    between atoms: O_2  and  C_3
REMARK    3  A    between atoms: C_6  and  C_7
REMARK    4  A    between atoms: C_9  and  C_10
REMARK    5  A    between atoms: C_10  and  C_11
REMARK    6  A    between atoms: C_11  and  N_12
REMARK    7  A    between atoms: C_13  and  C_15
REMARK    8  A    between atoms: C_24  and  O_25
REMARK    9  A    between atoms: O_25  and  C_26
REMARK                            x       y       z     vdW  Elec       q    Type
REMARK                         _______ _______ _______ _____ _____    ______ ____
ROOT
ATOM      1  C   UNL     1       3.704   4.874  19.024  0.00  0.00    +0.000 A 
ATOM      2  N   UNL     1       2.960   5.925  19.325  0.00  0.00    +0.000 NA
ATOM      3  C   UNL     1       2.053   5.614  20.330  0.00  0.00    +0.000 A 
ATOM      4  C   UNL     1       2.165   4.328  20.819  0.00  0.00    +0.000 A 
ATOM      5  S   UNL     1       3.395   3.480  19.990  0.00  0.00    +0.000 S 
ENDROOT
BRANCH   1   9
ATOM      6  C   UNL     1       6.700   5.041  15.939  0.00  0.00    +0.000 A 
ATOM      7  C   UNL     1       5.604   4.175  15.811  0.00  0.00    +0.000 A 
ATOM      8  C   UNL     1       4.627   4.100  16.807  0.00  0.00    +0.000 A 
ATOM      9  C   UNL     1       4.739   4.860  17.977  0.00  0.00    +0.000 A 
ATOM     10  C   UNL     1       5.879   5.662  18.127  0.00  0.00    +0.000 A 
ATOM     11  C   UNL     1       6.871   5.752  17.134  0.00  0.00    +0.000 A 
BRANCH   6  13
ATOM     12  C   UNL     1       7.122   4.841  13.622  0.00  0.00    +0.000 C 
ATOM     13  O   UNL     1       7.607   5.176  14.923  0.00  0.00    +0.000 OA
ENDBRANCH   6  13
BRANCH  11  14
ATOM     14  O   UNL     1       7.893   6.586  17.502  0.00  0.00    +0.000 OA
ATOM     15  C   UNL     1       7.669   7.986  17.522  0.00  0.00    +0.000 C 
ENDBRANCH  11  14
ENDBRANCH   1   9
BRANCH   3  16
ATOM     16  C   UNL     1       1.090   6.649  20.823  0.00  0.00    +0.000 C 
BRANCH  16  17
ATOM     17  C   UNL     1       1.713   8.023  21.060  0.00  0.00    +0.000 C 
BRANCH  17  18
ATOM     18  N   UNL     1       0.718   9.088  21.017  0.00  0.00    +0.000 N 
ATOM     19  C   UNL     1       0.427   9.851  22.132  0.00  0.00    +0.000 C 
ATOM     20  O   UNL     1       1.016   9.721  23.199  0.00  0.00    +0.000 OA
ATOM     21  H   UNL     1       0.150   9.170  20.185  0.00  0.00    +0.000 HD
BRANCH  19  22
ATOM     22  C   UNL     1      -0.686  10.832  22.007  0.00  0.00    +0.000 A 
ATOM     23  C   UNL     1      -1.435  11.134  23.153  0.00  0.00    +0.000 A 
ATOM     24  C   UNL     1      -2.491  12.046  23.089  0.00  0.00    +0.000 A 
ATOM     25  C   UNL     1      -2.799  12.669  21.881  0.00  0.00    +0.000 A 
ATOM     26  C   UNL     1      -2.047  12.389  20.739  0.00  0.00    +0.000 A 
ATOM     27  C   UNL     1      -0.989  11.475  20.800  0.00  0.00    +0.000 A 
ENDBRANCH  19  22
ENDBRANCH  17  18
ENDBRANCH  16  17
ENDBRANCH   3  16
TORSDOF 7
ENDMDL
MODEL 9
REMARK VINA RESULT:      -6.8      0.958      1.373
REMARK  Name = 
REMARK  9 active torsions:
REMARK  status: ('A' for Active; 'I' for Inactive)
REMARK    1  A    between atoms: C_1  and  O_2
REMARK    2  A    between atoms: O_2  and  C_3
REMARK    3  A    between atoms: C_6  and  C_7
REMARK    4  A    between atoms: C_9  and  C_10
REMARK    5  A    between atoms: C_10  and  C_11
REMARK    6  A    between atoms: C_11  and  N_12
REMARK    7  A    between atoms: C_13  and  C_15
REMARK    8  A    between atoms: C_24  and  O_25
REMARK    9  A    between atoms: O_25  and  C_26
REMARK                            x       y       z     vdW  Elec       q    Type
REMARK                         _______ _______ _______ _____ _____    ______ ____
ROOT
ATOM      1  C   UNL     1       2.271   4.919  19.764  0.00  0.00    +0.000 A 
ATOM      2  N   UNL     1       2.686   4.206  18.731  0.00  0.00    +0.000 NA
ATOM      3  C   UNL     1       2.860   2.876  19.088  0.00  0.00    +0.000 A 
ATOM      4  C   UNL     1       2.515   2.588  20.393  0.00  0.00    +0.000 A 
ATOM      5  S   UNL     1       1.999   4.003  21.199  0.00  0.00    +0.000 S 
ENDROOT
BRANCH   1   9
ATOM      6  C   UNL     1       1.347   9.122  19.721  0.00  0.00    +0.000 A 
ATOM      7  C   UNL     1       1.825   8.494  18.562  0.00  0.00    +0.000 A 
ATOM      8  C   UNL     1       2.140   7.132  18.560  0.00  0.00    +0.000 A 
ATOM      9  C   UNL     1       2.022   6.370  19.728  0.00  0.00    +0.000 A 
ATOM     10  C   UNL     1       1.618   7.027  20.899  0.00  0.00    +0.000 A 
ATOM     11  C   UNL     1       1.295   8.396  20.919  0.00  0.00    +0.000 A 
BRANCH   6  13
ATOM     12  C   UNL     1      -0.177  10.718  18.874  0.00  0.00    +0.000 C 
ATOM     13  O   UNL     1       0.957  10.434  19.695  0.00  0.00    +0.000 OA
ENDBRANCH   6  13
BRANCH  11  14
ATOM     14  O   UNL     1       0.937   8.822  22.170  0.00  0.00    +0.000 OA
ATOM     15  C   UNL     1      -0.427   9.103  22.439  0.00  0.00    +0.000 C 
ENDBRANCH  11  14
ENDBRANCH   1   9
BRANCH   3  16
ATOM     16  C   UNL     1       3.346   1.881  18.080  0.00  0.00    +0.000 C 
BRANCH  16  17
ATOM     17  C   UNL     1       4.280   2.466  17.022  0.00  0.00    +0.000 C 
BRANCH  17  18
ATOM     18  N   UNL     1       5.109   3.538  17.561  0.00  0.00    +0.000 N 
ATOM     19  C   UNL     1       5.582   4.559  16.757  0.00  0.00    +0.000 C 
ATOM     20  O   UNL     1       5.296   4.658  15.570  0.00  0.00    +0.000 OA
ATOM     21  H   UNL     1       5.438   3.449  18.512  0.00  0.00    +0.000 HD
BRANCH  19  22
ATOM     22  C   UNL     1       6.513   5.536  17.386  0.00  0.00    +0.000 A 
ATOM     23  C   UNL     1       6.644   6.801  16.795  0.00  0.00    +0.000 A 
ATOM     24  C   UNL     1       7.505   7.754  17.344  0.00  0.00    +0.000 A 
ATOM     25  C   UNL     1       8.234   7.451  18.492  0.00  0.00    +0.000 A 
ATOM     26  C   UNL     1       8.096   6.201  19.098  0.00  0.00    +0.000 A 
ATOM     27  C   UNL     1       7.234   5.245  18.550  0.00  0.00    +0.000 A 
ENDBRANCH  19  22
ENDBRANCH  17  18
ENDBRANCH  16  17
ENDBRANCH   3  16
TORSDOF 7
ENDMDL
