MODEL 1
REMARK VINA RESULT:      -6.8      0.000      0.000
REMARK  Name = 
REMARK  6 active torsions:
REMARK  status: ('A' for Active; 'I' for Inactive)
REMARK    1  A    between atoms: C_1  and  O_2
REMARK    2  A    between atoms: O_2  and  C_3
REMARK    3  A    between atoms: C_7  and  C_8
REMARK    4  A    between atoms: C_14  and  O_15
REMARK    5  A    between atoms: O_15  and  C_16
REMARK    6  A    between atoms: C_19  and  C_20
REMARK                            x       y       z     vdW  Elec       q    Type
REMARK                         _______ _______ _______ _____ _____    ______ ____
ROOT
ATOM      1  C   UNL     1       0.840   9.534  19.564  0.00  0.00    +0.000 A 
ATOM      2  C   UNL     1       0.212  10.311  18.590  0.00  0.00    +0.000 A 
ATOM      3  C   UNL     1      -0.694  11.285  18.983  0.00  0.00    +0.000 A 
ATOM      4  C   UNL     1      -1.030  11.476  20.317  0.00  0.00    +0.000 A 
ATOM      5  C   UNL     1      -0.405  10.726  21.322  0.00  0.00    +0.000 A 
ATOM      6  C   UNL     1      -0.705  10.985  22.775  0.00  0.00    +0.000 C 
ATOM      7  C   UNL     1       0.525   9.738  20.927  0.00  0.00    +0.000 A 
ATOM      8 CL   UNL     1       1.330   8.778  22.134  0.00  0.00    +0.000 Cl
ATOM      9  O   UNL     1      -1.920  12.467  20.635  0.00  0.00    +0.000 OA
ATOM     10  C   UNL     1      -3.179  12.399  20.067  0.00  0.00    +0.000 A 
ATOM     11  C   UNL     1      -4.181  12.784  20.966  0.00  0.00    +0.000 A 
ATOM     12  C   UNL     1      -5.534  12.784  20.619  0.00  0.00    +0.000 A 
ATOM     13  C   UNL     1      -5.897  12.403  19.315  0.00  0.00    +0.000 A 
ATOM     14 CL   UNL     1      -7.559  12.374  18.805  0.00  0.00    +0.000 Cl
ATOM     15  C   UNL     1      -4.896  12.032  18.367  0.00  0.00    +0.000 A 
ATOM     16  C   UNL     1      -5.274  11.646  16.948  0.00  0.00    +0.000 C 
ATOM     17  C   UNL     1      -3.520  12.031  18.754  0.00  0.00    +0.000 A 
ATOM     18  C   UNL     1      -2.462  11.639  17.755  0.00  0.00    +0.000 C 
ATOM     19  O   UNL     1      -2.667  11.025  16.719  0.00  0.00    +0.000 OA
ATOM     20  O   UNL     1      -1.228  12.150  18.047  0.00  0.00    +0.000 OA
ENDROOT
BRANCH   1  22
ATOM     21  C   UNL     1       2.161   8.529  17.884  0.00  0.00    +0.000 C 
ATOM     22  O   UNL     1       1.757   8.561  19.251  0.00  0.00    +0.000 OA
ENDBRANCH   1  22
BRANCH  12  23
ATOM     23  O   UNL     1      -6.286  13.175  21.693  0.00  0.00    +0.000 OA
ATOM     24  C   UNL     1      -7.212  12.308  22.318  0.00  0.00    +0.000 C 
ENDBRANCH  12  23
TORSDOF 2
ENDMDL
MODEL 2
REMARK VINA RESULT:      -6.5      1.298      1.402
REMARK  Name = 
REMARK  6 active torsions:
REMARK  status: ('A' for Active; 'I' for Inactive)
REMARK    1  A    between atoms: C_1  and  O_2
REMARK    2  A    between atoms: O_2  and  C_3
REMARK    3  A    between atoms: C_7  and  C_8
REMARK    4  A    between atoms: C_14  and  O_15
REMARK    5  A    between atoms: O_15  and  C_16
REMARK    6  A    between atoms: C_19  and  C_20
REMARK                            x       y       z     vdW  Elec       q    Type
REMARK                         _______ _______ _______ _____ _____    ______ ____
ROOT
ATOM      1  C   UNL     1       0.656   9.416  21.011  0.00  0.00    +0.000 A 
ATOM      2  C   UNL     1       0.369   9.947  19.753  0.00  0.00    +0.000 A 
ATOM      3  C   UNL     1      -0.518  11.009  19.654  0.00  0.00    +0.000 A 
ATOM      4  C   UNL     1      -1.166  11.526  20.767  0.00  0.00    +0.000 A 
ATOM      5  C   UNL     1      -0.889  11.029  22.047  0.00  0.00    +0.000 A 
ATOM      6  C   UNL     1      -1.528  11.640  23.266  0.00  0.00    +0.000 C 
ATOM      7  C   UNL     1       0.021   9.952  22.155  0.00  0.00    +0.000 A 
ATOM      8 CL   UNL     1       0.402   9.297  23.720  0.00  0.00    +0.000 Cl
ATOM      9  O   UNL     1      -2.017  12.585  20.598  0.00  0.00    +0.000 OA
ATOM     10  C   UNL     1      -3.090  12.412  19.743  0.00  0.00    +0.000 A 
ATOM     11  C   UNL     1      -4.251  13.027  20.225  0.00  0.00    +0.000 A 
ATOM     12  C   UNL     1      -5.465  12.975  19.535  0.00  0.00    +0.000 A 
ATOM     13  C   UNL     1      -5.512  12.297  18.304  0.00  0.00    +0.000 A 
ATOM     14 CL   UNL     1      -6.984  12.183  17.384  0.00  0.00    +0.000 Cl
ATOM     15  C   UNL     1      -4.338  11.682  17.772  0.00  0.00    +0.000 A 
ATOM     16  C   UNL     1      -4.372  10.972  16.430  0.00  0.00    +0.000 C 
ATOM     17  C   UNL     1      -3.113  11.743  18.507  0.00  0.00    +0.000 A 
ATOM     18  C   UNL     1      -1.874  11.095  17.947  0.00  0.00    +0.000 C 
ATOM     19  O   UNL     1      -1.859  10.253  17.062  0.00  0.00    +0.000 OA
ATOM     20  O   UNL     1      -0.716  11.632  18.436  0.00  0.00    +0.000 OA
ENDROOT
BRANCH   1  22
ATOM     21  C   UNL     1       1.912   7.693  19.994  0.00  0.00    +0.000 C 
ATOM     22  O   UNL     1       1.533   8.374  21.187  0.00  0.00    +0.000 OA
ENDBRANCH   1  22
BRANCH  12  23
ATOM     23  O   UNL     1      -6.429  13.633  20.247  0.00  0.00    +0.000 OA
ATOM     24  C   UNL     1      -6.813  14.961  19.943  0.00  0.00    +0.000 C 
ENDBRANCH  12  23
TORSDOF 2
ENDMDL
MODEL 3
REMARK VINA RESULT:      -6.3      1.049      7.069
REMARK  Name = 
REMARK  6 active torsions:
REMARK  status: ('A' for Active; 'I' for Inactive)
REMARK    1  A    between atoms: C_1  and  O_2
REMARK    2  A    between atoms: O_2  and  C_3
REMARK    3  A    between atoms: C_7  and  C_8
REMARK    4  A    between atoms: C_14  and  O_15
REMARK    5  A    between atoms: O_15  and  C_16
REMARK    6  A    between atoms: C_19  and  C_20
REMARK                            x       y       z     vdW  Elec       q    Type
REMARK                         _______ _______ _______ _____ _____    ______ ____
ROOT
ATOM      1  C   UNL     1      -5.932  12.681  20.441  0.00  0.00    +0.000 A 
ATOM      2  C   UNL     1      -4.800  12.895  21.230  0.00  0.00    +0.000 A 
ATOM      3  C   UNL     1      -3.544  12.699  20.675  0.00  0.00    +0.000 A 
ATOM      4  C   UNL     1      -3.382  12.250  19.372  0.00  0.00    +0.000 A 
ATOM      5  C   UNL     1      -4.494  12.042  18.547  0.00  0.00    +0.000 A 
ATOM      6  C   UNL     1      -4.321  11.633  17.108  0.00  0.00    +0.000 C 
ATOM      7  C   UNL     1      -5.777  12.248  19.104  0.00  0.00    +0.000 A 
ATOM      8 CL   UNL     1      -7.193  12.005  18.124  0.00  0.00    +0.000 Cl
ATOM      9  O   UNL     1      -2.111  12.094  18.885  0.00  0.00    +0.000 OA
ATOM     10  C   UNL     1      -1.273  11.223  19.556  0.00  0.00    +0.000 A 
ATOM     11  C   UNL     1      -0.473  10.482  18.678  0.00  0.00    +0.000 A 
ATOM     12  C   UNL     1       0.444   9.529  19.127  0.00  0.00    +0.000 A 
ATOM     13  C   UNL     1       0.580   9.324  20.512  0.00  0.00    +0.000 A 
ATOM     14 CL   UNL     1       1.696   8.155  21.153  0.00  0.00    +0.000 Cl
ATOM     15  C   UNL     1      -0.201  10.084  21.435  0.00  0.00    +0.000 A 
ATOM     16  C   UNL     1      -0.041   9.891  22.932  0.00  0.00    +0.000 C 
ATOM     17  C   UNL     1      -1.140  11.044  20.944  0.00  0.00    +0.000 A 
ATOM     18  C   UNL     1      -1.965  11.847  21.916  0.00  0.00    +0.000 C 
ATOM     19  O   UNL     1      -2.144  11.560  23.090  0.00  0.00    +0.000 OA
ATOM     20  O   UNL     1      -2.412  13.029  21.397  0.00  0.00    +0.000 OA
ENDROOT
BRANCH   1  22
ATOM     21  C   UNL     1      -7.544  12.089  22.063  0.00  0.00    +0.000 C 
ATOM     22  O   UNL     1      -7.206  12.867  20.917  0.00  0.00    +0.000 OA
ENDBRANCH   1  22
BRANCH  12  23
ATOM     23  O   UNL     1       1.062   8.943  18.058  0.00  0.00    +0.000 OA
ATOM     24  C   UNL     1       2.466   8.981  17.887  0.00  0.00    +0.000 C 
ENDBRANCH  12  23
TORSDOF 2
ENDMDL
MODEL 4
REMARK VINA RESULT:      -6.2      4.266      6.512
REMARK  Name = 
REMARK  6 active torsions:
REMARK  status: ('A' for Active; 'I' for Inactive)
REMARK    1  A    between atoms: C_1  and  O_2
REMARK    2  A    between atoms: O_2  and  C_3
REMARK    3  A    between atoms: C_7  and  C_8
REMARK    4  A    between atoms: C_14  and  O_15
REMARK    5  A    between atoms: O_15  and  C_16
REMARK    6  A    between atoms: C_19  and  C_20
REMARK                            x       y       z     vdW  Elec       q    Type
REMARK                         _______ _______ _______ _____ _____    ______ ____
ROOT
ATOM      1  C   UNL     1       3.405   4.165  17.683  0.00  0.00    +0.000 A 
ATOM      2  C   UNL     1       3.665   5.529  17.551  0.00  0.00    +0.000 A 
ATOM      3  C   UNL     1       3.341   6.383  18.595  0.00  0.00    +0.000 A 
ATOM      4  C   UNL     1       2.722   5.924  19.750  0.00  0.00    +0.000 A 
ATOM      5  C   UNL     1       2.462   4.558  19.924  0.00  0.00    +0.000 A 
ATOM      6  C   UNL     1       1.865   4.045  21.207  0.00  0.00    +0.000 C 
ATOM      7  C   UNL     1       2.798   3.683  18.866  0.00  0.00    +0.000 A 
ATOM      8 CL   UNL     1       2.498   1.977  19.030  0.00  0.00    +0.000 Cl
ATOM      9  O   UNL     1       2.445   6.821  20.747  0.00  0.00    +0.000 OA
ATOM     10  C   UNL     1       1.629   7.892  20.434  0.00  0.00    +0.000 A 
ATOM     11  C   UNL     1       0.745   8.201  21.475  0.00  0.00    +0.000 A 
ATOM     12  C   UNL     1      -0.184   9.239  21.382  0.00  0.00    +0.000 A 
ATOM     13  C   UNL     1      -0.217  10.012  20.207  0.00  0.00    +0.000 A 
ATOM     14 CL   UNL     1      -1.345  11.320  20.010  0.00  0.00    +0.000 Cl
ATOM     15  C   UNL     1       0.691   9.740  19.139  0.00  0.00    +0.000 A 
ATOM     16  C   UNL     1       0.684  10.586  17.878  0.00  0.00    +0.000 C 
ATOM     17  C   UNL     1       1.624   8.663  19.259  0.00  0.00    +0.000 A 
ATOM     18  C   UNL     1       2.581   8.375  18.133  0.00  0.00    +0.000 C 
ATOM     19  O   UNL     1       2.456   8.772  16.984  0.00  0.00    +0.000 OA
ATOM     20  O   UNL     1       3.708   7.714  18.537  0.00  0.00    +0.000 OA
ENDROOT
BRANCH   1  22
ATOM     21  C   UNL     1       4.929   3.507  16.003  0.00  0.00    +0.000 C 
ATOM     22  O   UNL     1       3.710   3.258  16.698  0.00  0.00    +0.000 OA
ENDBRANCH   1  22
BRANCH  12  23
ATOM     23  O   UNL     1      -0.931   9.295  22.525  0.00  0.00    +0.000 OA
ATOM     24  C   UNL     1      -1.015  10.468  23.312  0.00  0.00    +0.000 C 
ENDBRANCH  12  23
TORSDOF 2
ENDMDL
MODEL 5
REMARK VINA RESULT:      -6.0      2.656      4.018
REMARK  Name = 
REMARK  6 active torsions:
REMARK  status: ('A' for Active; 'I' for Inactive)
REMARK    1  A    between atoms: C_1  and  O_2
REMARK    2  A    between atoms: O_2  and  C_3
REMARK    3  A    between atoms: C_7  and  C_8
REMARK    4  A    between atoms: C_14  and  O_15
REMARK    5  A    between atoms: O_15  and  C_16
REMARK    6  A    between atoms: C_19  and  C_20
REMARK                            x       y       z     vdW  Elec       q    Type
REMARK                         _______ _______ _______ _____ _____    ______ ____
ROOT
ATOM      1  C   UNL     1      -2.796  10.294  17.155  0.00  0.00    +0.000 A 
ATOM      2  C   UNL     1      -4.013  10.960  17.313  0.00  0.00    +0.000 A 
ATOM      3  C   UNL     1      -4.128  11.931  18.297  0.00  0.00    +0.000 A 
ATOM      4  C   UNL     1      -3.082  12.225  19.160  0.00  0.00    +0.000 A 
ATOM      5  C   UNL     1      -1.841  11.590  19.018  0.00  0.00    +0.000 A 
ATOM      6  C   UNL     1      -0.679  11.964  19.899  0.00  0.00    +0.000 C 
ATOM      7  C   UNL     1      -1.716  10.605  18.012  0.00  0.00    +0.000 A 
ATOM      8 CL   UNL     1      -0.197   9.786  17.791  0.00  0.00    +0.000 Cl
ATOM      9  O   UNL     1      -3.261  13.207  20.098  0.00  0.00    +0.000 OA
ATOM     10  C   UNL     1      -4.294  13.045  21.003  0.00  0.00    +0.000 A 
ATOM     11  C   UNL     1      -3.938  13.470  22.289  0.00  0.00    +0.000 A 
ATOM     12  C   UNL     1      -4.816  13.390  23.371  0.00  0.00    +0.000 A 
ATOM     13  C   UNL     1      -6.110  12.883  23.154  0.00  0.00    +0.000 A 
ATOM     14 CL   UNL     1      -7.263  12.748  24.448  0.00  0.00    +0.000 Cl
ATOM     15  C   UNL     1      -6.513  12.467  21.849  0.00  0.00    +0.000 A 
ATOM     16  C   UNL     1      -7.917  11.945  21.598  0.00  0.00    +0.000 C 
ATOM     17  C   UNL     1      -5.587  12.550  20.763  0.00  0.00    +0.000 A 
ATOM     18  C   UNL     1      -6.011  12.111  19.385  0.00  0.00    +0.000 C 
ATOM     19  O   UNL     1      -6.974  11.402  19.138  0.00  0.00    +0.000 OA
ATOM     20  O   UNL     1      -5.280  12.690  18.385  0.00  0.00    +0.000 OA
ENDROOT
BRANCH   1  22
ATOM     21  C   UNL     1      -2.858   9.752  14.857  0.00  0.00    +0.000 C 
ATOM     22  O   UNL     1      -2.604   9.332  16.195  0.00  0.00    +0.000 OA
ENDBRANCH   1  22
BRANCH  12  23
ATOM     23  O   UNL     1      -4.198  13.846  24.502  0.00  0.00    +0.000 OA
ATOM     24  C   UNL     1      -3.659  15.151  24.590  0.00  0.00    +0.000 C 
ENDBRANCH  12  23
TORSDOF 2
ENDMDL
MODEL 6
REMARK VINA RESULT:      -6.0     10.316     13.165
REMARK  Name = 
REMARK  6 active torsions:
REMARK  status: ('A' for Active; 'I' for Inactive)
REMARK    1  A    between atoms: C_1  and  O_2
REMARK    2  A    between atoms: O_2  and  C_3
REMARK    3  A    between atoms: C_7  and  C_8
REMARK    4  A    between atoms: C_14  and  O_15
REMARK    5  A    between atoms: O_15  and  C_16
REMARK    6  A    between atoms: C_19  and  C_20
REMARK                            x       y       z     vdW  Elec       q    Type
REMARK                         _______ _______ _______ _____ _____    ______ ____
ROOT
ATOM      1  C   UNL     1       6.681  12.630  23.475  0.00  0.00    +0.000 A 
ATOM      2  C   UNL     1       7.705  11.852  22.933  0.00  0.00    +0.000 A 
ATOM      3  C   UNL     1       8.809  12.481  22.378  0.00  0.00    +0.000 A 
ATOM      4  C   UNL     1       8.902  13.864  22.302  0.00  0.00    +0.000 A 
ATOM      5  C   UNL     1       7.901  14.676  22.852  0.00  0.00    +0.000 A 
ATOM      6  C   UNL     1       8.036  16.175  22.845  0.00  0.00    +0.000 C 
ATOM      7  C   UNL     1       6.777  14.040  23.427  0.00  0.00    +0.000 A 
ATOM      8 CL   UNL     1       5.506  15.000  24.125  0.00  0.00    +0.000 Cl
ATOM      9  O   UNL     1      10.029  14.417  21.755  0.00  0.00    +0.000 OA
ATOM     10  C   UNL     1      10.340  14.074  20.452  0.00  0.00    +0.000 A 
ATOM     11  C   UNL     1      10.836  15.164  19.726  0.00  0.00    +0.000 A 
ATOM     12  C   UNL     1      11.206  15.059  18.383  0.00  0.00    +0.000 A 
ATOM     13  C   UNL     1      11.094  13.810  17.747  0.00  0.00    +0.000 A 
ATOM     14 CL   UNL     1      11.531  13.596  16.078  0.00  0.00    +0.000 Cl
ATOM     15  C   UNL     1      10.618  12.673  18.468  0.00  0.00    +0.000 A 
ATOM     16  C   UNL     1      10.520  11.313  17.800  0.00  0.00    +0.000 C 
ATOM     17  C   UNL     1      10.236  12.813  19.839  0.00  0.00    +0.000 A 
ATOM     18  C   UNL     1       9.733  11.615  20.601  0.00  0.00    +0.000 C 
ATOM     19  O   UNL     1       9.325  10.581  20.095  0.00  0.00    +0.000 OA
ATOM     20  O   UNL     1       9.890  11.731  21.954  0.00  0.00    +0.000 OA
ENDROOT
BRANCH   1  22
ATOM     21  C   UNL     1       5.818  11.237  25.177  0.00  0.00    +0.000 C 
ATOM     22  O   UNL     1       5.564  12.078  24.054  0.00  0.00    +0.000 OA
ENDBRANCH   1  22
BRANCH  12  23
ATOM     23  O   UNL     1      11.625  16.277  17.924  0.00  0.00    +0.000 OA
ATOM     24  C   UNL     1      10.758  17.162  17.241  0.00  0.00    +0.000 C 
ENDBRANCH  12  23
TORSDOF 2
ENDMDL
MODEL 7
REMARK VINA RESULT:      -6.0      5.083      7.569
REMARK  Name = 
REMARK  6 active torsions:
REMARK  status: ('A' for Active; 'I' for Inactive)
REMARK    1  A    between atoms: C_1  and  O_2
REMARK    2  A    between atoms: O_2  and  C_3
REMARK    3  A    between atoms: C_7  and  C_8
REMARK    4  A    between atoms: C_14  and  O_15
REMARK    5  A    between atoms: O_15  and  C_16
REMARK    6  A    between atoms: C_19  and  C_20
REMARK                            x       y       z     vdW  Elec       q    Type
REMARK                         _______ _______ _______ _____ _____    ______ ____
ROOT
ATOM      1  C   UNL     1       4.614   4.329  19.173  0.00  0.00    +0.000 A 
ATOM      2  C   UNL     1       3.345   4.644  19.661  0.00  0.00    +0.000 A 
ATOM      3  C   UNL     1       2.653   5.710  19.106  0.00  0.00    +0.000 A 
ATOM      4  C   UNL     1       3.208   6.503  18.111  0.00  0.00    +0.000 A 
ATOM      5  C   UNL     1       4.472   6.205  17.585  0.00  0.00    +0.000 A 
ATOM      6  C   UNL     1       5.043   7.013  16.450  0.00  0.00    +0.000 C 
ATOM      7  C   UNL     1       5.178   5.115  18.141  0.00  0.00    +0.000 A 
ATOM      8 CL   UNL     1       6.751   4.701  17.526  0.00  0.00    +0.000 Cl
ATOM      9  O   UNL     1       2.461   7.530  17.597  0.00  0.00    +0.000 OA
ATOM     10  C   UNL     1       2.023   8.502  18.477  0.00  0.00    +0.000 A 
ATOM     11  C   UNL     1       2.082   9.784  17.916  0.00  0.00    +0.000 A 
ATOM     12  C   UNL     1       1.702  10.927  18.622  0.00  0.00    +0.000 A 
ATOM     13  C   UNL     1       1.223  10.779  19.937  0.00  0.00    +0.000 A 
ATOM     14 CL   UNL     1       0.731  12.150  20.885  0.00  0.00    +0.000 Cl
ATOM     15  C   UNL     1       1.124   9.483  20.528  0.00  0.00    +0.000 A 
ATOM     16  C   UNL     1       0.582   9.309  21.935  0.00  0.00    +0.000 C 
ATOM     17  C   UNL     1       1.532   8.332  19.783  0.00  0.00    +0.000 A 
ATOM     18  C   UNL     1       1.429   6.964  20.405  0.00  0.00    +0.000 C 
ATOM     19  O   UNL     1       1.312   6.742  21.600  0.00  0.00    +0.000 OA
ATOM     20  O   UNL     1       1.347   5.957  19.484  0.00  0.00    +0.000 OA
ENDROOT
BRANCH   1  22
ATOM     21  C   UNL     1       4.592   2.153  20.092  0.00  0.00    +0.000 C 
ATOM     22  O   UNL     1       5.352   3.281  19.664  0.00  0.00    +0.000 OA
ENDBRANCH   1  22
BRANCH  12  23
ATOM     23  O   UNL     1       1.889  12.035  17.844  0.00  0.00    +0.000 OA
ATOM     24  C   UNL     1       2.777  13.072  18.215  0.00  0.00    +0.000 C 
ENDBRANCH  12  23
TORSDOF 2
ENDMDL
MODEL 8
REMARK VINA RESULT:      -5.9      2.335      6.539
REMARK  Name = 
REMARK  6 active torsions:
REMARK  status: ('A' for Active; 'I' for Inactive)
REMARK    1  A    between atoms: C_1  and  O_2
REMARK    2  A    between atoms: O_2  and  C_3
REMARK    3  A    between atoms: C_7  and  C_8
REMARK    4  A    between atoms: C_14  and  O_15
REMARK    5  A    between atoms: O_15  and  C_16
REMARK    6  A    between atoms: C_19  and  C_20
REMARK                            x       y       z     vdW  Elec       q    Type
REMARK                         _______ _______ _______ _____ _____    ______ ____
ROOT
ATOM      1  C   UNL     1      -5.506  13.088  22.767  0.00  0.00    +0.000 A 
ATOM      2  C   UNL     1      -4.248  13.529  22.355  0.00  0.00    +0.000 A 
ATOM      3  C   UNL     1      -3.851  13.310  21.044  0.00  0.00    +0.000 A 
ATOM      4  C   UNL     1      -4.651  12.622  20.143  0.00  0.00    +0.000 A 
ATOM      5  C   UNL     1      -5.927  12.181  20.516  0.00  0.00    +0.000 A 
ATOM      6  C   UNL     1      -6.831  11.505  19.520  0.00  0.00    +0.000 C 
ATOM      7  C   UNL     1      -6.340  12.408  21.849  0.00  0.00    +0.000 A 
ATOM      8 CL   UNL     1      -7.915  11.882  22.366  0.00  0.00    +0.000 Cl
ATOM      9  O   UNL     1      -4.202  12.456  18.859  0.00  0.00    +0.000 OA
ATOM     10  C   UNL     1      -3.001  11.794  18.684  0.00  0.00    +0.000 A 
ATOM     11  C   UNL     1      -3.026  10.947  17.570  0.00  0.00    +0.000 A 
ATOM     12  C   UNL     1      -1.929  10.165  17.201  0.00  0.00    +0.000 A 
ATOM     13  C   UNL     1      -0.753  10.250  17.968  0.00  0.00    +0.000 A 
ATOM     14 CL   UNL     1       0.657   9.309  17.578  0.00  0.00    +0.000 Cl
ATOM     15  C   UNL     1      -0.686  11.125  19.094  0.00  0.00    +0.000 A 
ATOM     16  C   UNL     1       0.588  11.246  19.911  0.00  0.00    +0.000 C 
ATOM     17  C   UNL     1      -1.830  11.905  19.453  0.00  0.00    +0.000 A 
ATOM     18  C   UNL     1      -1.762  12.828  20.641  0.00  0.00    +0.000 C 
ATOM     19  O   UNL     1      -0.925  12.770  21.530  0.00  0.00    +0.000 OA
ATOM     20  O   UNL     1      -2.666  13.852  20.583  0.00  0.00    +0.000 OA
ENDROOT
BRANCH   1  22
ATOM     21  C   UNL     1      -5.407  12.420  25.030  0.00  0.00    +0.000 C 
ATOM     22  O   UNL     1      -5.972  13.280  24.044  0.00  0.00    +0.000 OA
ENDBRANCH   1  22
BRANCH  12  23
ATOM     23  O   UNL     1      -2.242   9.420  16.099  0.00  0.00    +0.000 OA
ATOM     24  C   UNL     1      -2.931   9.968  14.992  0.00  0.00    +0.000 C 
ENDBRANCH  12  23
TORSDOF 2
ENDMDL
MODEL 9
REMARK VINA RESULT:      -5.9      3.144      4.936
REMARK  Name = 
REMARK  6 active torsions:
REMARK  status: ('A' for Active; 'I' for Inactive)
REMARK    1  A    between atoms: C_1  and  O_2
REMARK    2  A    between atoms: O_2  and  C_3
REMARK    3  A    between atoms: C_7  and  C_8
REMARK    4  A    between atoms: C_14  and  O_15
REMARK    5  A    between atoms: O_15  and  C_16
REMARK    6  A    between atoms: C_19  and  C_20
REMARK                            x       y       z     vdW  Elec       q    Type
REMARK                         _______ _______ _______ _____ _____    ______ ____
ROOT
ATOM      1  C   UNL     1       2.203  14.468  20.744  0.00  0.00    +0.000 A 
ATOM      2  C   UNL     1       1.066  13.972  21.384  0.00  0.00    +0.000 A 
ATOM      3  C   UNL     1       0.436  12.849  20.867  0.00  0.00    +0.000 A 
ATOM      4  C   UNL     1       0.876  12.234  19.703  0.00  0.00    +0.000 A 
ATOM      5  C   UNL     1       2.024  12.694  19.045  0.00  0.00    +0.000 A 
ATOM      6  C   UNL     1       2.552  11.982  17.828  0.00  0.00    +0.000 C 
ATOM      7  C   UNL     1       2.675  13.833  19.572  0.00  0.00    +0.000 A 
ATOM      8 CL   UNL     1       4.105  14.447  18.795  0.00  0.00    +0.000 Cl
ATOM      9  O   UNL     1       0.215  11.120  19.259  0.00  0.00    +0.000 OA
ATOM     10  C   UNL     1      -1.134  11.247  18.981  0.00  0.00    +0.000 A 
ATOM     11  C   UNL     1      -1.506  10.522  17.843  0.00  0.00    +0.000 A 
ATOM     12  C   UNL     1      -2.816  10.509  17.361  0.00  0.00    +0.000 A 
ATOM     13  C   UNL     1      -3.798  11.236  18.058  0.00  0.00    +0.000 A 
ATOM     14 CL   UNL     1      -5.452  11.274  17.523  0.00  0.00    +0.000 Cl
ATOM     15  C   UNL     1      -3.457  11.963  19.238  0.00  0.00    +0.000 A 
ATOM     16  C   UNL     1      -4.514  12.727  20.015  0.00  0.00    +0.000 C 
ATOM     17  C   UNL     1      -2.104  11.966  19.701  0.00  0.00    +0.000 A 
ATOM     18  C   UNL     1      -1.741  12.733  20.946  0.00  0.00    +0.000 C 
ATOM     19  O   UNL     1      -2.421  13.612  21.453  0.00  0.00    +0.000 OA
ATOM     20  O   UNL     1      -0.611  12.267  21.557  0.00  0.00    +0.000 OA
ENDROOT
BRANCH   1  22
ATOM     21  C   UNL     1       3.701  15.334  22.352  0.00  0.00    +0.000 C 
ATOM     22  O   UNL     1       2.886  15.566  21.204  0.00  0.00    +0.000 OA
ENDBRANCH   1  22
BRANCH  12  23
ATOM     23  O   UNL     1      -2.885   9.747  16.228  0.00  0.00    +0.000 OA
ATOM     24  C   UNL     1      -2.952  10.322  14.937  0.00  0.00    +0.000 C 
ENDBRANCH  12  23
TORSDOF 2
ENDMDL
