MODEL 1
REMARK VINA RESULT:      -8.7      0.000      0.000
REMARK  Name = 
REMARK  8 active torsions:
REMARK  status: ('A' for Active; 'I' for Inactive)
REMARK    1  A    between atoms: C_1  and  C_2
REMARK    2  A    between atoms: C_2  and  C_4
REMARK    3  A    between atoms: N_6  and  C_7
REMARK    4  A    between atoms: C_7  and  C_8
REMARK    5  A    between atoms: C_15  and  C_16
REMARK    6  A    between atoms: N_18  and  C_19
REMARK    7  A    between atoms: C_19  and  C_20
REMARK    8  A    between atoms: C_31  and  C_32
REMARK                            x       y       z     vdW  Elec       q    Type
REMARK                         _______ _______ _______ _____ _____    ______ ____
ROOT
ATOM      1  C   UNL     1       0.649  11.431  19.301  0.00  0.00    +0.000 C 
ATOM      2  O   UNL     1       1.640  11.722  18.626  0.00  0.00    +0.000 OA
ATOM      3  N   UNL     1       0.541  10.187  19.883  0.00  0.00    +0.000 N 
ATOM      4  C   UNL     1      -0.641   9.673  20.572  0.00  0.00    +0.000 C 
ATOM      5  C   UNL     1      -0.108   8.669  21.529  0.00  0.00    +0.000 C 
ATOM      6  C   UNL     1       0.899   9.085  22.566  0.00  0.00    +0.000 C 
ATOM      7  C   UNL     1       1.341   8.465  21.258  0.00  0.00    +0.000 C 
ATOM      8  C   UNL     1       1.707   9.290  20.039  0.00  0.00    +0.000 C 
ENDROOT
BRANCH   8   9
ATOM      9  C   UNL     1       1.953   8.392  18.797  0.00  0.00    +0.000 C 
ATOM     10  O   UNL     1       1.608   8.721  17.662  0.00  0.00    +0.000 OA
ATOM     11  N   UNL     1       2.542   7.176  19.057  0.00  0.00    +0.000 N 
ATOM     12  H   UNL     1       2.831   6.966  20.012  0.00  0.00    +0.000 HD
BRANCH  11  13
ATOM     13  C   UNL     1       2.880   6.247  17.995  0.00  0.00    +0.000 C 
BRANCH  13  14
ATOM     14  C   UNL     1       2.644   4.813  18.391  0.00  0.00    +0.000 A 
ATOM     15  C   UNL     1       1.452   4.145  18.083  0.00  0.00    +0.000 A 
ATOM     16  C   UNL     1       1.254   2.824  18.485  0.00  0.00    +0.000 A 
ATOM     17  C   UNL     1       2.240   2.148  19.200  0.00  0.00    +0.000 A 
ATOM     18  C   UNL     1       3.413   2.812  19.547  0.00  0.00    +0.000 A 
ATOM     19 CL   UNL     1       4.608   1.984  20.468  0.00  0.00    +0.000 Cl
ATOM     20  C   UNL     1       3.605   4.138  19.155  0.00  0.00    +0.000 A 
ATOM     21  F   UNL     1       4.725   4.786  19.514  0.00  0.00    +0.000 F 
ENDBRANCH  13  14
ENDBRANCH  11  13
ENDBRANCH   8   9
BRANCH   1  22
ATOM     22  C   UNL     1      -0.414  12.477  19.601  0.00  0.00    +0.000 C 
BRANCH  22  25
ATOM     23  C   UNL     1      -3.109  11.501  17.560  0.00  0.00    +0.000 A 
ATOM     24  N   UNL     1      -1.793  11.662  17.785  0.00  0.00    +0.000 NA
ATOM     25  N   UNL     1      -1.720  12.188  19.032  0.00  0.00    +0.000 N 
ATOM     26  C   UNL     1      -2.934  12.303  19.648  0.00  0.00    +0.000 A 
ATOM     27  C   UNL     1      -3.308  12.723  20.915  0.00  0.00    +0.000 A 
ATOM     28  N   UNL     1      -4.623  12.723  21.237  0.00  0.00    +0.000 NA
ATOM     29  C   UNL     1      -5.549  12.333  20.328  0.00  0.00    +0.000 A 
ATOM     30  C   UNL     1      -6.988  12.390  20.747  0.00  0.00    +0.000 C 
ATOM     31  C   UNL     1      -5.227  11.907  19.045  0.00  0.00    +0.000 A 
ATOM     32  C   UNL     1      -3.870  11.884  18.705  0.00  0.00    +0.000 A 
BRANCH  23  34
ATOM     33  C   UNL     1      -2.972   9.768  15.686  0.00  0.00    +0.000 C 
ATOM     34  C   UNL     1      -3.626  10.987  16.287  0.00  0.00    +0.000 C 
ATOM     35  O   UNL     1      -4.569  11.530  15.701  0.00  0.00    +0.000 OA
ENDBRANCH  23  34
ENDBRANCH  22  25
ENDBRANCH   1  22
TORSDOF 6
ENDMDL
MODEL 2
REMARK VINA RESULT:      -8.3      3.634      9.002
REMARK  Name = 
REMARK  8 active torsions:
REMARK  status: ('A' for Active; 'I' for Inactive)
REMARK    1  A    between atoms: C_1  and  C_2
REMARK    2  A    between atoms: C_2  and  C_4
REMARK    3  A    between atoms: N_6  and  C_7
REMARK    4  A    between atoms: C_7  and  C_8
REMARK    5  A    between atoms: C_15  and  C_16
REMARK    6  A    between atoms: N_18  and  C_19
REMARK    7  A    between atoms: C_19  and  C_20
REMARK    8  A    between atoms: C_31  and  C_32
REMARK                            x       y       z     vdW  Elec       q    Type
REMARK                         _______ _______ _______ _____ _____    ______ ____
ROOT
ATOM      1  C   UNL     1       0.546   9.298  20.089  0.00  0.00    +0.000 C 
ATOM      2  O   UNL     1      -0.553   8.939  20.519  0.00  0.00    +0.000 OA
ATOM      3  N   UNL     1       0.642  10.353  19.208  0.00  0.00    +0.000 N 
ATOM      4  C   UNL     1       1.859  10.772  18.516  0.00  0.00    +0.000 C 
ATOM      5  C   UNL     1       1.651  12.218  18.240  0.00  0.00    +0.000 C 
ATOM      6  C   UNL     1       1.404  13.169  19.378  0.00  0.00    +0.000 C 
ATOM      7  C   UNL     1       0.251  12.581  18.592  0.00  0.00    +0.000 C 
ATOM      8  C   UNL     1      -0.467  11.313  19.011  0.00  0.00    +0.000 C 
ENDROOT
BRANCH   8   9
ATOM      9  C   UNL     1      -1.484  10.852  17.932  0.00  0.00    +0.000 C 
ATOM     10  O   UNL     1      -1.417   9.752  17.384  0.00  0.00    +0.000 OA
ATOM     11  N   UNL     1      -2.443  11.779  17.594  0.00  0.00    +0.000 N 
ATOM     12  H   UNL     1      -2.468  12.665  18.099  0.00  0.00    +0.000 HD
BRANCH  11  13
ATOM     13  C   UNL     1      -3.493  11.481  16.638  0.00  0.00    +0.000 C 
BRANCH  13  14
ATOM     14  C   UNL     1      -4.865  11.534  17.256  0.00  0.00    +0.000 A 
ATOM     15  C   UNL     1      -5.713  12.635  17.084  0.00  0.00    +0.000 A 
ATOM     16  C   UNL     1      -6.970  12.663  17.690  0.00  0.00    +0.000 A 
ATOM     17  C   UNL     1      -7.400  11.597  18.475  0.00  0.00    +0.000 A 
ATOM     18  C   UNL     1      -6.551  10.515  18.687  0.00  0.00    +0.000 A 
ATOM     19 CL   UNL     1      -7.073   9.219  19.694  0.00  0.00    +0.000 Cl
ATOM     20  C   UNL     1      -5.289  10.492  18.090  0.00  0.00    +0.000 A 
ATOM     21  F   UNL     1      -4.461   9.459  18.316  0.00  0.00    +0.000 F 
ENDBRANCH  13  14
ENDBRANCH  11  13
ENDBRANCH   8   9
BRANCH   1  22
ATOM     22  C   UNL     1       1.825   8.662  20.613  0.00  0.00    +0.000 C 
BRANCH  22  25
ATOM     23  C   UNL     1       1.799   5.174  20.149  0.00  0.00    +0.000 A 
ATOM     24  N   UNL     1       1.402   6.285  20.796  0.00  0.00    +0.000 NA
ATOM     25  N   UNL     1       2.046   7.297  20.165  0.00  0.00    +0.000 N 
ATOM     26  C   UNL     1       2.783   6.889  19.089  0.00  0.00    +0.000 A 
ATOM     27  C   UNL     1       3.533   7.578  18.149  0.00  0.00    +0.000 A 
ATOM     28  N   UNL     1       4.163   6.876  17.179  0.00  0.00    +0.000 NA
ATOM     29  C   UNL     1       4.071   5.524  17.145  0.00  0.00    +0.000 A 
ATOM     30  C   UNL     1       4.822   4.812  16.060  0.00  0.00    +0.000 C 
ATOM     31  C   UNL     1       3.336   4.786  18.066  0.00  0.00    +0.000 A 
ATOM     32  C   UNL     1       2.664   5.502  19.062  0.00  0.00    +0.000 A 
BRANCH  23  34
ATOM     33  C   UNL     1       0.636   2.980  19.541  0.00  0.00    +0.000 C 
ATOM     34  C   UNL     1       1.355   3.835  20.554  0.00  0.00    +0.000 C 
ATOM     35  O   UNL     1       1.550   3.404  21.696  0.00  0.00    +0.000 OA
ENDBRANCH  23  34
ENDBRANCH  22  25
ENDBRANCH   1  22
TORSDOF 6
ENDMDL
MODEL 3
REMARK VINA RESULT:      -8.3      4.506      9.915
REMARK  Name = 
REMARK  8 active torsions:
REMARK  status: ('A' for Active; 'I' for Inactive)
REMARK    1  A    between atoms: C_1  and  C_2
REMARK    2  A    between atoms: C_2  and  C_4
REMARK    3  A    between atoms: N_6  and  C_7
REMARK    4  A    between atoms: C_7  and  C_8
REMARK    5  A    between atoms: C_15  and  C_16
REMARK    6  A    between atoms: N_18  and  C_19
REMARK    7  A    between atoms: C_19  and  C_20
REMARK    8  A    between atoms: C_31  and  C_32
REMARK                            x       y       z     vdW  Elec       q    Type
REMARK                         _______ _______ _______ _____ _____    ______ ____
ROOT
ATOM      1  C   UNL     1       1.491   8.554  19.951  0.00  0.00    +0.000 C 
ATOM      2  O   UNL     1       1.803   8.106  21.058  0.00  0.00    +0.000 OA
ATOM      3  N   UNL     1       0.905   9.795  19.839  0.00  0.00    +0.000 N 
ATOM      4  C   UNL     1       0.355  10.366  18.611  0.00  0.00    +0.000 C 
ATOM      5  C   UNL     1       0.448  11.836  18.809  0.00  0.00    +0.000 C 
ATOM      6  C   UNL     1       1.786  12.473  19.068  0.00  0.00    +0.000 C 
ATOM      7  C   UNL     1       0.863  12.110  20.212  0.00  0.00    +0.000 C 
ATOM      8  C   UNL     1       0.941  10.782  20.941  0.00  0.00    +0.000 C 
ENDROOT
BRANCH   8   9
ATOM      9  C   UNL     1      -0.232  10.614  21.945  0.00  0.00    +0.000 C 
ATOM     10  O   UNL     1      -0.625   9.513  22.328  0.00  0.00    +0.000 OA
ATOM     11  N   UNL     1      -0.837  11.784  22.343  0.00  0.00    +0.000 N 
ATOM     12  H   UNL     1      -0.455  12.671  22.015  0.00  0.00    +0.000 HD
BRANCH  11  13
ATOM     13  C   UNL     1      -1.915  11.796  23.314  0.00  0.00    +0.000 C 
BRANCH  13  14
ATOM     14  C   UNL     1      -3.187  12.375  22.752  0.00  0.00    +0.000 A 
ATOM     15  C   UNL     1      -3.279  12.815  21.425  0.00  0.00    +0.000 A 
ATOM     16  C   UNL     1      -4.466  13.369  20.943  0.00  0.00    +0.000 A 
ATOM     17  C   UNL     1      -5.576  13.494  21.773  0.00  0.00    +0.000 A 
ATOM     18  C   UNL     1      -5.486  13.098  23.104  0.00  0.00    +0.000 A 
ATOM     19 CL   UNL     1      -6.851  13.295  24.136  0.00  0.00    +0.000 Cl
ATOM     20  C   UNL     1      -4.296  12.554  23.590  0.00  0.00    +0.000 A 
ATOM     21  F   UNL     1      -4.202  12.197  24.881  0.00  0.00    +0.000 F 
ENDBRANCH  13  14
ENDBRANCH  11  13
ENDBRANCH   8   9
BRANCH   1  22
ATOM     22  C   UNL     1       1.855   7.797  18.683  0.00  0.00    +0.000 C 
BRANCH  22  25
ATOM     23  C   UNL     1       2.979   4.605  19.646  0.00  0.00    +0.000 A 
ATOM     24  N   UNL     1       2.053   5.581  19.638  0.00  0.00    +0.000 NA
ATOM     25  N   UNL     1       2.610   6.576  18.905  0.00  0.00    +0.000 N 
ATOM     26  C   UNL     1       3.828   6.250  18.378  0.00  0.00    +0.000 A 
ATOM     27  C   UNL     1       4.701   6.926  17.541  0.00  0.00    +0.000 A 
ATOM     28  N   UNL     1       5.859   6.324  17.186  0.00  0.00    +0.000 NA
ATOM     29  C   UNL     1       6.160   5.089  17.658  0.00  0.00    +0.000 A 
ATOM     30  C   UNL     1       7.476   4.500  17.247  0.00  0.00    +0.000 C 
ATOM     31  C   UNL     1       5.322   4.371  18.503  0.00  0.00    +0.000 A 
ATOM     32  C   UNL     1       4.112   4.975  18.862  0.00  0.00    +0.000 A 
BRANCH  23  34
ATOM     33  C   UNL     1       1.414   3.055  20.945  0.00  0.00    +0.000 C 
ATOM     34  C   UNL     1       2.780   3.348  20.377  0.00  0.00    +0.000 C 
ATOM     35  O   UNL     1       3.701   2.540  20.541  0.00  0.00    +0.000 OA
ENDBRANCH  23  34
ENDBRANCH  22  25
ENDBRANCH   1  22
TORSDOF 6
ENDMDL
MODEL 4
REMARK VINA RESULT:      -8.2      4.738      8.723
REMARK  Name = 
REMARK  8 active torsions:
REMARK  status: ('A' for Active; 'I' for Inactive)
REMARK    1  A    between atoms: C_1  and  C_2
REMARK    2  A    between atoms: C_2  and  C_4
REMARK    3  A    between atoms: N_6  and  C_7
REMARK    4  A    between atoms: C_7  and  C_8
REMARK    5  A    between atoms: C_15  and  C_16
REMARK    6  A    between atoms: N_18  and  C_19
REMARK    7  A    between atoms: C_19  and  C_20
REMARK    8  A    between atoms: C_31  and  C_32
REMARK                            x       y       z     vdW  Elec       q    Type
REMARK                         _______ _______ _______ _____ _____    ______ ____
ROOT
ATOM      1  C   UNL     1      -1.909  12.454  22.710  0.00  0.00    +0.000 C 
ATOM      2  O   UNL     1      -2.167  11.387  23.273  0.00  0.00    +0.000 OA
ATOM      3  N   UNL     1      -2.729  13.548  22.876  0.00  0.00    +0.000 N 
ATOM      4  C   UNL     1      -2.618  14.810  22.148  0.00  0.00    +0.000 C 
ATOM      5  C   UNL     1      -3.216  15.820  23.059  0.00  0.00    +0.000 C 
ATOM      6  C   UNL     1      -2.645  16.017  24.437  0.00  0.00    +0.000 C 
ATOM      7  C   UNL     1      -3.843  15.120  24.213  0.00  0.00    +0.000 C 
ATOM      8  C   UNL     1      -3.718  13.627  23.974  0.00  0.00    +0.000 C 
ENDROOT
BRANCH   8   9
ATOM      9  C   UNL     1      -5.087  12.993  23.605  0.00  0.00    +0.000 C 
ATOM     10  O   UNL     1      -5.559  12.033  24.213  0.00  0.00    +0.000 OA
ATOM     11  N   UNL     1      -5.718  13.550  22.516  0.00  0.00    +0.000 N 
ATOM     12  H   UNL     1      -5.295  14.361  22.066  0.00  0.00    +0.000 HD
BRANCH  11  13
ATOM     13  C   UNL     1      -7.026  13.100  22.077  0.00  0.00    +0.000 C 
BRANCH  13  14
ATOM     14  C   UNL     1      -6.965  12.346  20.775  0.00  0.00    +0.000 A 
ATOM     15  C   UNL     1      -7.073  10.950  20.721  0.00  0.00    +0.000 A 
ATOM     16  C   UNL     1      -6.989  10.279  19.500  0.00  0.00    +0.000 A 
ATOM     17  C   UNL     1      -6.796  10.987  18.317  0.00  0.00    +0.000 A 
ATOM     18  C   UNL     1      -6.647  12.370  18.361  0.00  0.00    +0.000 A 
ATOM     19 CL   UNL     1      -6.365  13.233  16.898  0.00  0.00    +0.000 Cl
ATOM     20  C   UNL     1      -6.719  13.040  19.583  0.00  0.00    +0.000 A 
ATOM     21  F   UNL     1      -6.549  14.371  19.627  0.00  0.00    +0.000 F 
ENDBRANCH  13  14
ENDBRANCH  11  13
ENDBRANCH   8   9
BRANCH   1  22
ATOM     22  C   UNL     1      -0.621  12.616  21.916  0.00  0.00    +0.000 C 
BRANCH  22  25
ATOM     23  C   UNL     1       0.416  10.084  19.704  0.00  0.00    +0.000 A 
ATOM     24  N   UNL     1       0.563  10.805  20.830  0.00  0.00    +0.000 NA
ATOM     25  N   UNL     1      -0.471  11.681  20.814  0.00  0.00    +0.000 N 
ATOM     26  C   UNL     1      -1.321  11.503  19.759  0.00  0.00    +0.000 A 
ATOM     27  C   UNL     1      -2.507  12.121  19.394  0.00  0.00    +0.000 A 
ATOM     28  N   UNL     1      -3.132  11.713  18.265  0.00  0.00    +0.000 NA
ATOM     29  C   UNL     1      -2.593  10.729  17.504  0.00  0.00    +0.000 A 
ATOM     30  C   UNL     1      -3.325  10.353  16.250  0.00  0.00    +0.000 C 
ATOM     31  C   UNL     1      -1.405  10.082  17.823  0.00  0.00    +0.000 A 
ATOM     32  C   UNL     1      -0.759  10.481  18.998  0.00  0.00    +0.000 A 
BRANCH  23  34
ATOM     33  C   UNL     1       1.675   7.943  20.308  0.00  0.00    +0.000 C 
ATOM     34  C   UNL     1       1.369   9.038  19.317  0.00  0.00    +0.000 C 
ATOM     35  O   UNL     1       1.925   9.041  18.213  0.00  0.00    +0.000 OA
ENDBRANCH  23  34
ENDBRANCH  22  25
ENDBRANCH   1  22
TORSDOF 6
ENDMDL
MODEL 5
REMARK VINA RESULT:      -8.2      1.074      1.213
REMARK  Name = 
REMARK  8 active torsions:
REMARK  status: ('A' for Active; 'I' for Inactive)
REMARK    1  A    between atoms: C_1  and  C_2
REMARK    2  A    between atoms: C_2  and  C_4
REMARK    3  A    between atoms: N_6  and  C_7
REMARK    4  A    between atoms: C_7  and  C_8
REMARK    5  A    between atoms: C_15  and  C_16
REMARK    6  A    between atoms: N_18  and  C_19
REMARK    7  A    between atoms: C_19  and  C_20
REMARK    8  A    between atoms: C_31  and  C_32
REMARK                            x       y       z     vdW  Elec       q    Type
REMARK                         _______ _______ _______ _____ _____    ______ ____
ROOT
ATOM      1  C   UNL     1       0.534  11.558  19.393  0.00  0.00    +0.000 C 
ATOM      2  O   UNL     1       1.522  11.845  18.711  0.00  0.00    +0.000 OA
ATOM      3  N   UNL     1       0.445  10.331  20.013  0.00  0.00    +0.000 N 
ATOM      4  C   UNL     1      -0.730   9.819  20.715  0.00  0.00    +0.000 C 
ATOM      5  C   UNL     1      -0.182   8.854  21.704  0.00  0.00    +0.000 C 
ATOM      6  C   UNL     1       0.816   9.320  22.730  0.00  0.00    +0.000 C 
ATOM      7  C   UNL     1       1.272   8.666  21.442  0.00  0.00    +0.000 C 
ATOM      8  C   UNL     1       1.627   9.459  20.199  0.00  0.00    +0.000 C 
ENDROOT
BRANCH   8   9
ATOM      9  C   UNL     1       1.890   8.527  18.986  0.00  0.00    +0.000 C 
ATOM     10  O   UNL     1       1.781   8.908  17.820  0.00  0.00    +0.000 OA
ATOM     11  N   UNL     1       2.210   7.227  19.302  0.00  0.00    +0.000 N 
ATOM     12  H   UNL     1       2.312   6.972  20.284  0.00  0.00    +0.000 HD
BRANCH  11  13
ATOM     13  C   UNL     1       2.531   6.248  18.280  0.00  0.00    +0.000 C 
BRANCH  13  14
ATOM     14  C   UNL     1       2.929   4.918  18.864  0.00  0.00    +0.000 A 
ATOM     15  C   UNL     1       3.997   4.172  18.350  0.00  0.00    +0.000 A 
ATOM     16  C   UNL     1       4.325   2.931  18.899  0.00  0.00    +0.000 A 
ATOM     17  C   UNL     1       3.595   2.416  19.966  0.00  0.00    +0.000 A 
ATOM     18  C   UNL     1       2.506   3.128  20.460  0.00  0.00    +0.000 A 
ATOM     19 CL   UNL     1       1.580   2.463  21.752  0.00  0.00    +0.000 Cl
ATOM     20  C   UNL     1       2.171   4.363  19.903  0.00  0.00    +0.000 A 
ATOM     21  F   UNL     1       1.104   5.037  20.364  0.00  0.00    +0.000 F 
ENDBRANCH  13  14
ENDBRANCH  11  13
ENDBRANCH   8   9
BRANCH   1  22
ATOM     22  C   UNL     1      -0.548  12.594  19.657  0.00  0.00    +0.000 C 
BRANCH  22  25
ATOM     23  C   UNL     1      -3.231  11.516  17.654  0.00  0.00    +0.000 A 
ATOM     24  N   UNL     1      -1.918  11.717  17.865  0.00  0.00    +0.000 NA
ATOM     25  N   UNL     1      -1.849  12.261  19.104  0.00  0.00    +0.000 N 
ATOM     26  C   UNL     1      -3.061  12.348  19.730  0.00  0.00    +0.000 A 
ATOM     27  C   UNL     1      -3.436  12.773  20.995  0.00  0.00    +0.000 A 
ATOM     28  N   UNL     1      -4.747  12.739  21.330  0.00  0.00    +0.000 NA
ATOM     29  C   UNL     1      -5.669  12.311  20.434  0.00  0.00    +0.000 A 
ATOM     30  C   UNL     1      -7.105  12.332  20.866  0.00  0.00    +0.000 C 
ATOM     31  C   UNL     1      -5.346  11.879  19.153  0.00  0.00    +0.000 A 
ATOM     32  C   UNL     1      -3.992  11.890  18.801  0.00  0.00    +0.000 A 
BRANCH  23  34
ATOM     33  C   UNL     1      -2.854  10.053  15.591  0.00  0.00    +0.000 C 
ATOM     34  C   UNL     1      -3.744  10.970  16.391  0.00  0.00    +0.000 C 
ATOM     35  O   UNL     1      -4.873  11.251  15.974  0.00  0.00    +0.000 OA
ENDBRANCH  23  34
ENDBRANCH  22  25
ENDBRANCH   1  22
TORSDOF 6
ENDMDL
MODEL 6
REMARK VINA RESULT:      -8.2      1.543      2.170
REMARK  Name = 
REMARK  8 active torsions:
REMARK  status: ('A' for Active; 'I' for Inactive)
REMARK    1  A    between atoms: C_1  and  C_2
REMARK    2  A    between atoms: C_2  and  C_4
REMARK    3  A    between atoms: N_6  and  C_7
REMARK    4  A    between atoms: C_7  and  C_8
REMARK    5  A    between atoms: C_15  and  C_16
REMARK    6  A    between atoms: N_18  and  C_19
REMARK    7  A    between atoms: C_19  and  C_20
REMARK    8  A    between atoms: C_31  and  C_32
REMARK                            x       y       z     vdW  Elec       q    Type
REMARK                         _______ _______ _______ _____ _____    ______ ____
ROOT
ATOM      1  C   UNL     1       0.661  11.388  19.313  0.00  0.00    +0.000 C 
ATOM      2  O   UNL     1       1.657  11.643  18.630  0.00  0.00    +0.000 OA
ATOM      3  N   UNL     1       0.535  10.166  19.936  0.00  0.00    +0.000 N 
ATOM      4  C   UNL     1      -0.655   9.690  20.638  0.00  0.00    +0.000 C 
ATOM      5  C   UNL     1      -0.137   8.713  21.630  0.00  0.00    +0.000 C 
ATOM      6  C   UNL     1       0.873   9.151  22.655  0.00  0.00    +0.000 C 
ATOM      7  C   UNL     1       1.310   8.480  21.370  0.00  0.00    +0.000 C 
ATOM      8  C   UNL     1       1.689   9.259  20.125  0.00  0.00    +0.000 C 
ENDROOT
BRANCH   8   9
ATOM      9  C   UNL     1       1.925   8.317  18.914  0.00  0.00    +0.000 C 
ATOM     10  O   UNL     1       1.625   8.628  17.762  0.00  0.00    +0.000 OA
ATOM     11  N   UNL     1       2.453   7.083  19.222  0.00  0.00    +0.000 N 
ATOM     12  H   UNL     1       2.708   6.888  20.190  0.00  0.00    +0.000 HD
BRANCH  11  13
ATOM     13  C   UNL     1       2.776   6.110  18.196  0.00  0.00    +0.000 C 
BRANCH  13  14
ATOM     14  C   UNL     1       4.214   6.192  17.759  0.00  0.00    +0.000 A 
ATOM     15  C   UNL     1       4.574   6.536  16.449  0.00  0.00    +0.000 A 
ATOM     16  C   UNL     1       5.916   6.579  16.070  0.00  0.00    +0.000 A 
ATOM     17  C   UNL     1       6.919   6.281  16.988  0.00  0.00    +0.000 A 
ATOM     18  C   UNL     1       6.575   5.899  18.281  0.00  0.00    +0.000 A 
ATOM     19 CL   UNL     1       7.820   5.489  19.398  0.00  0.00    +0.000 Cl
ATOM     20  C   UNL     1       5.232   5.844  18.657  0.00  0.00    +0.000 A 
ATOM     21  F   UNL     1       4.900   5.450  19.897  0.00  0.00    +0.000 F 
ENDBRANCH  13  14
ENDBRANCH  11  13
ENDBRANCH   8   9
BRANCH   1  22
ATOM     22  C   UNL     1      -0.389  12.456  19.574  0.00  0.00    +0.000 C 
BRANCH  22  25
ATOM     23  C   UNL     1      -3.105  11.444  17.579  0.00  0.00    +0.000 A 
ATOM     24  N   UNL     1      -1.786  11.605  17.789  0.00  0.00    +0.000 NA
ATOM     25  N   UNL     1      -1.700  12.160  19.022  0.00  0.00    +0.000 N 
ATOM     26  C   UNL     1      -2.909  12.295  19.645  0.00  0.00    +0.000 A 
ATOM     27  C   UNL     1      -3.272  12.748  20.904  0.00  0.00    +0.000 A 
ATOM     28  N   UNL     1      -4.583  12.761  21.237  0.00  0.00    +0.000 NA
ATOM     29  C   UNL     1      -5.519  12.353  20.345  0.00  0.00    +0.000 A 
ATOM     30  C   UNL     1      -6.953  12.427  20.774  0.00  0.00    +0.000 C 
ATOM     31  C   UNL     1      -5.208  11.895  19.070  0.00  0.00    +0.000 A 
ATOM     32  C   UNL     1      -3.854  11.858  18.720  0.00  0.00    +0.000 A 
BRANCH  23  34
ATOM     33  C   UNL     1      -2.811   9.880  15.578  0.00  0.00    +0.000 C 
ATOM     34  C   UNL     1      -3.634  10.901  16.322  0.00  0.00    +0.000 C 
ATOM     35  O   UNL     1      -4.723  11.266  15.865  0.00  0.00    +0.000 OA
ENDBRANCH  23  34
ENDBRANCH  22  25
ENDBRANCH   1  22
TORSDOF 6
ENDMDL
MODEL 7
REMARK VINA RESULT:      -8.2      3.342      4.977
REMARK  Name = 
REMARK  8 active torsions:
REMARK  status: ('A' for Active; 'I' for Inactive)
REMARK    1  A    between atoms: C_1  and  C_2
REMARK    2  A    between atoms: C_2  and  C_4
REMARK    3  A    between atoms: N_6  and  C_7
REMARK    4  A    between atoms: C_7  and  C_8
REMARK    5  A    between atoms: C_15  and  C_16
REMARK    6  A    between atoms: N_18  and  C_19
REMARK    7  A    between atoms: C_19  and  C_20
REMARK    8  A    between atoms: C_31  and  C_32
REMARK                            x       y       z     vdW  Elec       q    Type
REMARK                         _______ _______ _______ _____ _____    ______ ____
ROOT
ATOM      1  C   UNL     1       0.442  12.399  20.784  0.00  0.00    +0.000 C 
ATOM      2  O   UNL     1       0.958  11.673  21.637  0.00  0.00    +0.000 OA
ATOM      3  N   UNL     1      -0.044  11.864  19.611  0.00  0.00    +0.000 N 
ATOM      4  C   UNL     1      -0.533  12.631  18.468  0.00  0.00    +0.000 C 
ATOM      5  C   UNL     1      -1.493  11.720  17.791  0.00  0.00    +0.000 C 
ATOM      6  C   UNL     1      -2.680  11.188  18.546  0.00  0.00    +0.000 C 
ATOM      7  C   UNL     1      -1.409  10.374  18.422  0.00  0.00    +0.000 C 
ATOM      8  C   UNL     1      -0.302  10.415  19.459  0.00  0.00    +0.000 C 
ENDROOT
BRANCH   8   9
ATOM      9  C   UNL     1       0.947   9.622  18.990  0.00  0.00    +0.000 C 
ATOM     10  O   UNL     1       1.575   9.915  17.973  0.00  0.00    +0.000 OA
ATOM     11  N   UNL     1       1.278   8.534  19.765  0.00  0.00    +0.000 N 
ATOM     12  H   UNL     1       0.739   8.353  20.611  0.00  0.00    +0.000 HD
BRANCH  11  13
ATOM     13  C   UNL     1       2.447   7.722  19.484  0.00  0.00    +0.000 C 
BRANCH  13  14
ATOM     14  C   UNL     1       2.145   6.247  19.527  0.00  0.00    +0.000 A 
ATOM     15  C   UNL     1       1.592   5.636  20.660  0.00  0.00    +0.000 A 
ATOM     16  C   UNL     1       1.346   4.263  20.677  0.00  0.00    +0.000 A 
ATOM     17  C   UNL     1       1.647   3.478  19.567  0.00  0.00    +0.000 A 
ATOM     18  C   UNL     1       2.234   4.065  18.450  0.00  0.00    +0.000 A 
ATOM     19 CL   UNL     1       2.643   3.080  17.098  0.00  0.00    +0.000 Cl
ATOM     20  C   UNL     1       2.490   5.437  18.438  0.00  0.00    +0.000 A 
ATOM     21  F   UNL     1       3.080   5.998  17.370  0.00  0.00    +0.000 F 
ENDBRANCH  13  14
ENDBRANCH  11  13
ENDBRANCH   8   9
BRANCH   1  22
ATOM     22  C   UNL     1       0.228  13.880  21.059  0.00  0.00    +0.000 C 
BRANCH  22  25
ATOM     23  C   UNL     1      -0.957  15.160  24.115  0.00  0.00    +0.000 A 
ATOM     24  N   UNL     1      -0.060  15.129  23.113  0.00  0.00    +0.000 NA
ATOM     25  N   UNL     1      -0.514  14.166  22.275  0.00  0.00    +0.000 N 
ATOM     26  C   UNL     1      -1.709  13.626  22.660  0.00  0.00    +0.000 A 
ATOM     27  C   UNL     1      -2.542  12.681  22.084  0.00  0.00    +0.000 A 
ATOM     28  N   UNL     1      -3.688  12.347  22.723  0.00  0.00    +0.000 NA
ATOM     29  C   UNL     1      -3.998  12.920  23.911  0.00  0.00    +0.000 A 
ATOM     30  C   UNL     1      -5.267  12.477  24.576  0.00  0.00    +0.000 C 
ATOM     31  C   UNL     1      -3.195  13.869  24.534  0.00  0.00    +0.000 A 
ATOM     32  C   UNL     1      -2.018  14.237  23.874  0.00  0.00    +0.000 A 
BRANCH  23  34
ATOM     33  C   UNL     1      -0.740  17.541  25.021  0.00  0.00    +0.000 C 
ATOM     34  C   UNL     1      -0.807  16.055  25.269  0.00  0.00    +0.000 C 
ATOM     35  O   UNL     1      -0.729  15.619  26.423  0.00  0.00    +0.000 OA
ENDBRANCH  23  34
ENDBRANCH  22  25
ENDBRANCH   1  22
TORSDOF 6
ENDMDL
MODEL 8
REMARK VINA RESULT:      -8.2      3.296      4.564
REMARK  Name = 
REMARK  8 active torsions:
REMARK  status: ('A' for Active; 'I' for Inactive)
REMARK    1  A    between atoms: C_1  and  C_2
REMARK    2  A    between atoms: C_2  and  C_4
REMARK    3  A    between atoms: N_6  and  C_7
REMARK    4  A    between atoms: C_7  and  C_8
REMARK    5  A    between atoms: C_15  and  C_16
REMARK    6  A    between atoms: N_18  and  C_19
REMARK    7  A    between atoms: C_19  and  C_20
REMARK    8  A    between atoms: C_31  and  C_32
REMARK                            x       y       z     vdW  Elec       q    Type
REMARK                         _______ _______ _______ _____ _____    ______ ____
ROOT
ATOM      1  C   UNL     1       0.712  11.840  20.957  0.00  0.00    +0.000 C 
ATOM      2  O   UNL     1       1.136  10.974  21.727  0.00  0.00    +0.000 OA
ATOM      3  N   UNL     1       0.217  11.493  19.719  0.00  0.00    +0.000 N 
ATOM      4  C   UNL     1      -0.168  12.431  18.666  0.00  0.00    +0.000 C 
ATOM      5  C   UNL     1      -1.182  11.696  17.866  0.00  0.00    +0.000 C 
ATOM      6  C   UNL     1      -2.434  11.188  18.528  0.00  0.00    +0.000 C 
ATOM      7  C   UNL     1      -1.236  10.283  18.332  0.00  0.00    +0.000 C 
ATOM      8  C   UNL     1      -0.163  10.102  19.388  0.00  0.00    +0.000 C 
ENDROOT
BRANCH   8   9
ATOM      9  C   UNL     1       1.026   9.259  18.852  0.00  0.00    +0.000 C 
ATOM     10  O   UNL     1       1.492   9.412  17.723  0.00  0.00    +0.000 OA
ATOM     11  N   UNL     1       1.497   8.293  19.711  0.00  0.00    +0.000 N 
ATOM     12  H   UNL     1       1.092   8.227  20.644  0.00  0.00    +0.000 HD
BRANCH  11  13
ATOM     13  C   UNL     1       2.634   7.457  19.374  0.00  0.00    +0.000 C 
BRANCH  13  14
ATOM     14  C   UNL     1       2.241   6.025  19.129  0.00  0.00    +0.000 A 
ATOM     15  C   UNL     1       2.093   5.506  17.836  0.00  0.00    +0.000 A 
ATOM     16  C   UNL     1       1.704   4.180  17.643  0.00  0.00    +0.000 A 
ATOM     17  C   UNL     1       1.457   3.351  18.734  0.00  0.00    +0.000 A 
ATOM     18  C   UNL     1       1.562   3.864  20.023  0.00  0.00    +0.000 A 
ATOM     19 CL   UNL     1       1.213   2.843  21.366  0.00  0.00    +0.000 Cl
ATOM     20  C   UNL     1       1.939   5.193  20.216  0.00  0.00    +0.000 A 
ATOM     21  F   UNL     1       2.014   5.694  21.460  0.00  0.00    +0.000 F 
ENDBRANCH  13  14
ENDBRANCH  11  13
ENDBRANCH   8   9
BRANCH   1  22
ATOM     22  C   UNL     1       0.619  13.291  21.404  0.00  0.00    +0.000 C 
BRANCH  22  25
ATOM     23  C   UNL     1      -2.519  13.290  22.995  0.00  0.00    +0.000 A 
ATOM     24  N   UNL     1      -1.590  12.715  22.210  0.00  0.00    +0.000 NA
ATOM     25  N   UNL     1      -0.573  13.611  22.169  0.00  0.00    +0.000 N 
ATOM     26  C   UNL     1      -0.781  14.708  22.957  0.00  0.00    +0.000 A 
ATOM     27  C   UNL     1       0.001  15.814  23.252  0.00  0.00    +0.000 A 
ATOM     28  N   UNL     1      -0.493  16.755  24.090  0.00  0.00    +0.000 NA
ATOM     29  C   UNL     1      -1.737  16.619  24.612  0.00  0.00    +0.000 A 
ATOM     30  C   UNL     1      -2.229  17.718  25.505  0.00  0.00    +0.000 C 
ATOM     31  C   UNL     1      -2.562  15.533  24.344  0.00  0.00    +0.000 A 
ATOM     32  C   UNL     1      -2.055  14.543  23.496  0.00  0.00    +0.000 A 
BRANCH  23  34
ATOM     33  C   UNL     1      -4.962  12.935  22.332  0.00  0.00    +0.000 C 
ATOM     34  C   UNL     1      -3.813  12.653  23.267  0.00  0.00    +0.000 C 
ATOM     35  O   UNL     1      -3.978  11.906  24.238  0.00  0.00    +0.000 OA
ENDBRANCH  23  34
ENDBRANCH  22  25
ENDBRANCH   1  22
TORSDOF 6
ENDMDL
MODEL 9
REMARK VINA RESULT:      -8.2      1.193      1.229
REMARK  Name = 
REMARK  8 active torsions:
REMARK  status: ('A' for Active; 'I' for Inactive)
REMARK    1  A    between atoms: C_1  and  C_2
REMARK    2  A    between atoms: C_2  and  C_4
REMARK    3  A    between atoms: N_6  and  C_7
REMARK    4  A    between atoms: C_7  and  C_8
REMARK    5  A    between atoms: C_15  and  C_16
REMARK    6  A    between atoms: N_18  and  C_19
REMARK    7  A    between atoms: C_19  and  C_20
REMARK    8  A    between atoms: C_31  and  C_32
REMARK                            x       y       z     vdW  Elec       q    Type
REMARK                         _______ _______ _______ _____ _____    ______ ____
ROOT
ATOM      1  C   UNL     1       0.340  11.481  19.634  0.00  0.00    +0.000 C 
ATOM      2  O   UNL     1       1.391  11.820  19.083  0.00  0.00    +0.000 OA
ATOM      3  N   UNL     1       0.260  10.284  20.310  0.00  0.00    +0.000 N 
ATOM      4  C   UNL     1      -0.961   9.704  20.867  0.00  0.00    +0.000 C 
ATOM      5  C   UNL     1      -0.489   8.843  21.983  0.00  0.00    +0.000 C 
ATOM      6  C   UNL     1       0.306   9.445  23.109  0.00  0.00    +0.000 C 
ATOM      7  C   UNL     1       0.998   8.772  21.943  0.00  0.00    +0.000 C 
ATOM      8  C   UNL     1       1.467   9.531  20.716  0.00  0.00    +0.000 C 
ENDROOT
BRANCH   8   9
ATOM      9  C   UNL     1       1.981   8.567  19.613  0.00  0.00    +0.000 C 
ATOM     10  O   UNL     1       1.992   8.869  18.420  0.00  0.00    +0.000 OA
ATOM     11  N   UNL     1       2.383   7.327  20.056  0.00  0.00    +0.000 N 
ATOM     12  H   UNL     1       2.377   7.139  21.058  0.00  0.00    +0.000 HD
BRANCH  11  13
ATOM     13  C   UNL     1       2.932   6.333  19.153  0.00  0.00    +0.000 C 
BRANCH  13  14
ATOM     14  C   UNL     1       2.498   4.935  19.505  0.00  0.00    +0.000 A 
ATOM     15  C   UNL     1       1.504   4.685  20.461  0.00  0.00    +0.000 A 
ATOM     16  C   UNL     1       1.142   3.377  20.782  0.00  0.00    +0.000 A 
ATOM     17  C   UNL     1       1.763   2.298  20.158  0.00  0.00    +0.000 A 
ATOM     18  C   UNL     1       2.779   2.531  19.236  0.00  0.00    +0.000 A 
ATOM     19 CL   UNL     1       3.572   1.191  18.500  0.00  0.00    +0.000 Cl
ATOM     20  C   UNL     1       3.150   3.840  18.924  0.00  0.00    +0.000 A 
ATOM     21  F   UNL     1       4.149   4.063  18.054  0.00  0.00    +0.000 F 
ENDBRANCH  13  14
ENDBRANCH  11  13
ENDBRANCH   8   9
BRANCH   1  22
ATOM     22  C   UNL     1      -0.850  12.429  19.677  0.00  0.00    +0.000 C 
BRANCH  22  25
ATOM     23  C   UNL     1      -3.011  11.036  17.275  0.00  0.00    +0.000 A 
ATOM     24  N   UNL     1      -1.780  11.292  17.752  0.00  0.00    +0.000 NA
ATOM     25  N   UNL     1      -1.992  11.997  18.890  0.00  0.00    +0.000 N 
ATOM     26  C   UNL     1      -3.315  12.142  19.203  0.00  0.00    +0.000 A 
ATOM     27  C   UNL     1      -3.966  12.724  20.279  0.00  0.00    +0.000 A 
ATOM     28  N   UNL     1      -5.319  12.708  20.306  0.00  0.00    +0.000 NA
ATOM     29  C   UNL     1      -6.015  12.144  19.288  0.00  0.00    +0.000 A 
ATOM     30  C   UNL     1      -7.512  12.193  19.372  0.00  0.00    +0.000 C 
ATOM     31  C   UNL     1      -5.411  11.552  18.186  0.00  0.00    +0.000 A 
ATOM     32  C   UNL     1      -4.012  11.545  18.156  0.00  0.00    +0.000 A 
BRANCH  23  34
ATOM     33  C   UNL     1      -3.935  11.031  14.891  0.00  0.00    +0.000 C 
ATOM     34  C   UNL     1      -3.225  10.317  16.014  0.00  0.00    +0.000 C 
ATOM     35  O   UNL     1      -2.847   9.150  15.860  0.00  0.00    +0.000 OA
ENDBRANCH  23  34
ENDBRANCH  22  25
ENDBRANCH   1  22
TORSDOF 6
ENDMDL
