MODEL 1
REMARK VINA RESULT:      -7.8      0.000      0.000
REMARK  Name = 
REMARK  12 active torsions:
REMARK  status: ('A' for Active; 'I' for Inactive)
REMARK    1  A    between atoms: C_1  and  C_2
REMARK    2  A    between atoms: C_2  and  C_3
REMARK    3  A    between atoms: C_3  and  C_4
REMARK    4  A    between atoms: C_4  and  C_5
REMARK    5  A    between atoms: C_5  and  N_6
REMARK    6  A    between atoms: C_5  and  C_7
REMARK    7  A    between atoms: N_9  and  C_10
REMARK    8  A    between atoms: C_10  and  C_11
REMARK    9  A    between atoms: C_11  and  C_12
REMARK   10  A    between atoms: C_15  and  C_16
REMARK   11  A    between atoms: C_19  and  O_20
REMARK   12  A    between atoms: O_20  and  C_21
REMARK                            x       y       z     vdW  Elec       q    Type
REMARK                         _______ _______ _______ _____ _____    ______ ____
ROOT
ATOM      1  C   UNL     1       2.669   5.383  19.087  0.00  0.00    +0.000 A 
ATOM      2  C   UNL     1       1.973   5.241  20.302  0.00  0.00    +0.000 A 
ATOM      3  C   UNL     1       1.397   6.334  20.925  0.00  0.00    +0.000 A 
ATOM      4  C   UNL     1       1.512   7.618  20.376  0.00  0.00    +0.000 A 
ATOM      5  C   UNL     1       2.234   7.772  19.173  0.00  0.00    +0.000 A 
ATOM      6  C   UNL     1       2.801   6.665  18.533  0.00  0.00    +0.000 A 
ENDROOT
BRANCH   4   7
ATOM      7  C   UNL     1       0.882   8.780  21.065  0.00  0.00    +0.000 A 
ATOM      8  C   UNL     1       0.378   8.659  22.380  0.00  0.00    +0.000 A 
ATOM      9  C   UNL     1      -0.193   9.751  23.019  0.00  0.00    +0.000 A 
ATOM     10  C   UNL     1      -0.280  10.991  22.380  0.00  0.00    +0.000 A 
ATOM     11  C   UNL     1       0.187  11.111  21.059  0.00  0.00    +0.000 A 
ATOM     12  C   UNL     1       0.770  10.022  20.419  0.00  0.00    +0.000 A 
BRANCH  10  13
ATOM     13  O   UNL     1      -0.830  12.021  23.074  0.00  0.00    +0.000 OA
BRANCH  13  14
ATOM     14  C   UNL     1      -2.139  12.475  23.068  0.00  0.00    +0.000 C 
ATOM     15  F   UNL     1      -2.593  12.803  21.805  0.00  0.00    +0.000 F 
ATOM     16  F   UNL     1      -2.959  11.509  23.618  0.00  0.00    +0.000 F 
ATOM     17  F   UNL     1      -2.208  13.616  23.844  0.00  0.00    +0.000 F 
ENDBRANCH  13  14
ENDBRANCH  10  13
ENDBRANCH   4   7
BRANCH   1  18
ATOM     18  C   UNL     1       3.272   4.183  18.391  0.00  0.00    +0.000 C 
BRANCH  18  19
ATOM     19  C   UNL     1       4.800   4.168  18.530  0.00  0.00    +0.000 C 
BRANCH  19  22
ATOM     20  C   UNL     1       5.900   4.810  16.424  0.00  0.00    +0.000 C 
ATOM     21  O   UNL     1       5.724   5.998  16.670  0.00  0.00    +0.000 OA
ATOM     22  N   UNL     1       5.440   3.846  17.272  0.00  0.00    +0.000 N 
ATOM     23  H   UNL     1       5.571   2.850  17.038  0.00  0.00    +0.000 HD
BRANCH  20  24
ATOM     24  C   UNL     1       6.661   4.439  15.185  0.00  0.00    +0.000 C 
BRANCH  24  25
ATOM     25  N   UNL     1       7.664   5.483  14.946  0.00  0.00    +0.000 NA
ATOM     26  H   UNL     1       7.248   6.275  14.402  0.00  0.00    +0.000 HD
ATOM     27  H   UNL     1       8.492   5.099  14.436  0.00  0.00    +0.000 HD
ENDBRANCH  24  25
BRANCH  24  28
ATOM     28  C   UNL     1       5.693   4.275  13.993  0.00  0.00    +0.000 C 
BRANCH  28  29
ATOM     29  C   UNL     1       6.367   3.561  12.820  0.00  0.00    +0.000 C 
BRANCH  29  31
ATOM     30  C   UNL     1       5.889   1.608  11.328  0.00  0.00    +0.000 C 
ATOM     31  C   UNL     1       5.353   2.932  11.866  0.00  0.00    +0.000 C 
ENDBRANCH  29  31
ENDBRANCH  28  29
ENDBRANCH  24  28
ENDBRANCH  20  24
ENDBRANCH  19  22
ENDBRANCH  18  19
ENDBRANCH   1  18
TORSDOF 11
ENDMDL
MODEL 2
REMARK VINA RESULT:      -7.7      2.874      4.222
REMARK  Name = 
REMARK  12 active torsions:
REMARK  status: ('A' for Active; 'I' for Inactive)
REMARK    1  A    between atoms: C_1  and  C_2
REMARK    2  A    between atoms: C_2  and  C_3
REMARK    3  A    between atoms: C_3  and  C_4
REMARK    4  A    between atoms: C_4  and  C_5
REMARK    5  A    between atoms: C_5  and  N_6
REMARK    6  A    between atoms: C_5  and  C_7
REMARK    7  A    between atoms: N_9  and  C_10
REMARK    8  A    between atoms: C_10  and  C_11
REMARK    9  A    between atoms: C_11  and  C_12
REMARK   10  A    between atoms: C_15  and  C_16
REMARK   11  A    between atoms: C_19  and  O_20
REMARK   12  A    between atoms: O_20  and  C_21
REMARK                            x       y       z     vdW  Elec       q    Type
REMARK                         _______ _______ _______ _____ _____    ______ ____
ROOT
ATOM      1  C   UNL     1       3.104   7.179  18.108  0.00  0.00    +0.000 A 
ATOM      2  C   UNL     1       2.843   6.696  19.404  0.00  0.00    +0.000 A 
ATOM      3  C   UNL     1       2.028   7.398  20.275  0.00  0.00    +0.000 A 
ATOM      4  C   UNL     1       1.459   8.622  19.899  0.00  0.00    +0.000 A 
ATOM      5  C   UNL     1       1.741   9.127  18.611  0.00  0.00    +0.000 A 
ATOM      6  C   UNL     1       2.550   8.409  17.724  0.00  0.00    +0.000 A 
ENDROOT
BRANCH   4   7
ATOM      7  C   UNL     1       0.583   9.359  20.854  0.00  0.00    +0.000 A 
ATOM      8  C   UNL     1      -0.184  10.467  20.429  0.00  0.00    +0.000 A 
ATOM      9  C   UNL     1      -1.010  11.137  21.321  0.00  0.00    +0.000 A 
ATOM     10  C   UNL     1      -1.102  10.731  22.655  0.00  0.00    +0.000 A 
ATOM     11  C   UNL     1      -0.316   9.652  23.095  0.00  0.00    +0.000 A 
ATOM     12  C   UNL     1       0.504   8.971  22.201  0.00  0.00    +0.000 A 
BRANCH  10  13
ATOM     13  O   UNL     1      -1.947  11.419  23.467  0.00  0.00    +0.000 OA
BRANCH  13  14
ATOM     14  C   UNL     1      -2.672  12.568  23.196  0.00  0.00    +0.000 C 
ATOM     15  F   UNL     1      -1.890  13.603  22.722  0.00  0.00    +0.000 F 
ATOM     16  F   UNL     1      -3.662  12.277  22.279  0.00  0.00    +0.000 F 
ATOM     17  F   UNL     1      -3.261  12.997  24.370  0.00  0.00    +0.000 F 
ENDBRANCH  13  14
ENDBRANCH  10  13
ENDBRANCH   4   7
BRANCH   1  18
ATOM     18  C   UNL     1       3.970   6.396  17.146  0.00  0.00    +0.000 C 
BRANCH  18  19
ATOM     19  C   UNL     1       4.758   5.298  17.874  0.00  0.00    +0.000 C 
BRANCH  19  22
ATOM     20  C   UNL     1       4.249   3.106  18.871  0.00  0.00    +0.000 C 
ATOM     21  O   UNL     1       5.160   3.238  19.678  0.00  0.00    +0.000 OA
ATOM     22  N   UNL     1       4.010   4.060  17.925  0.00  0.00    +0.000 N 
ATOM     23  H   UNL     1       3.256   3.922  17.234  0.00  0.00    +0.000 HD
BRANCH  20  24
ATOM     24  C   UNL     1       3.378   1.888  18.965  0.00  0.00    +0.000 C 
BRANCH  24  25
ATOM     25  N   UNL     1       4.003   0.828  18.166  0.00  0.00    +0.000 NA
ATOM     26  H   UNL     1       4.815   1.205  17.625  0.00  0.00    +0.000 HD
ATOM     27  H   UNL     1       3.313   0.392  17.512  0.00  0.00    +0.000 HD
ENDBRANCH  24  25
BRANCH  24  28
ATOM     28  C   UNL     1       1.948   2.215  18.483  0.00  0.00    +0.000 C 
BRANCH  28  29
ATOM     29  C   UNL     1       1.282   3.260  19.379  0.00  0.00    +0.000 C 
BRANCH  29  31
ATOM     30  C   UNL     1       2.118   3.662  21.704  0.00  0.00    +0.000 C 
ATOM     31  C   UNL     1       1.201   2.806  20.836  0.00  0.00    +0.000 C 
ENDBRANCH  29  31
ENDBRANCH  28  29
ENDBRANCH  24  28
ENDBRANCH  20  24
ENDBRANCH  19  22
ENDBRANCH  18  19
ENDBRANCH   1  18
TORSDOF 11
ENDMDL
MODEL 3
REMARK VINA RESULT:      -7.6      2.085      3.143
REMARK  Name = 
REMARK  12 active torsions:
REMARK  status: ('A' for Active; 'I' for Inactive)
REMARK    1  A    between atoms: C_1  and  C_2
REMARK    2  A    between atoms: C_2  and  C_3
REMARK    3  A    between atoms: C_3  and  C_4
REMARK    4  A    between atoms: C_4  and  C_5
REMARK    5  A    between atoms: C_5  and  N_6
REMARK    6  A    between atoms: C_5  and  C_7
REMARK    7  A    between atoms: N_9  and  C_10
REMARK    8  A    between atoms: C_10  and  C_11
REMARK    9  A    between atoms: C_11  and  C_12
REMARK   10  A    between atoms: C_15  and  C_16
REMARK   11  A    between atoms: C_19  and  O_20
REMARK   12  A    between atoms: O_20  and  C_21
REMARK                            x       y       z     vdW  Elec       q    Type
REMARK                         _______ _______ _______ _____ _____    ______ ____
ROOT
ATOM      1  C   UNL     1       4.040   4.733  17.215  0.00  0.00    +0.000 A 
ATOM      2  C   UNL     1       2.864   4.596  17.976  0.00  0.00    +0.000 A 
ATOM      3  C   UNL     1       2.216   5.705  18.491  0.00  0.00    +0.000 A 
ATOM      4  C   UNL     1       2.726   6.994  18.292  0.00  0.00    +0.000 A 
ATOM      5  C   UNL     1       3.922   7.136  17.555  0.00  0.00    +0.000 A 
ATOM      6  C   UNL     1       4.567   6.018  17.018  0.00  0.00    +0.000 A 
ENDROOT
BRANCH   4   7
ATOM      7  C   UNL     1       2.009   8.173  18.855  0.00  0.00    +0.000 A 
ATOM      8  C   UNL     1       1.750   9.313  18.061  0.00  0.00    +0.000 A 
ATOM      9  C   UNL     1       1.068  10.400  18.590  0.00  0.00    +0.000 A 
ATOM     10  C   UNL     1       0.621  10.391  19.914  0.00  0.00    +0.000 A 
ATOM     11  C   UNL     1       0.905   9.275  20.721  0.00  0.00    +0.000 A 
ATOM     12  C   UNL     1       1.579   8.179  20.191  0.00  0.00    +0.000 A 
BRANCH  10  13
ATOM     13  O   UNL     1      -0.060  11.479  20.358  0.00  0.00    +0.000 OA
BRANCH  13  14
ATOM     14  C   UNL     1       0.423  12.736  20.684  0.00  0.00    +0.000 C 
ATOM     15  F   UNL     1       1.763  12.730  21.021  0.00  0.00    +0.000 F 
ATOM     16  F   UNL     1       0.217  13.594  19.622  0.00  0.00    +0.000 F 
ATOM     17  F   UNL     1      -0.279  13.201  21.779  0.00  0.00    +0.000 F 
ENDBRANCH  13  14
ENDBRANCH  10  13
ENDBRANCH   4   7
BRANCH   1  18
ATOM     18  C   UNL     1       4.731   3.523  16.626  0.00  0.00    +0.000 C 
BRANCH  18  19
ATOM     19  C   UNL     1       6.087   3.899  16.014  0.00  0.00    +0.000 C 
BRANCH  19  22
ATOM     20  C   UNL     1       6.774   4.201  13.670  0.00  0.00    +0.000 C 
ATOM     21  O   UNL     1       7.176   5.332  13.912  0.00  0.00    +0.000 OA
ATOM     22  N   UNL     1       6.190   3.444  14.644  0.00  0.00    +0.000 N 
ATOM     23  H   UNL     1       5.831   2.504  14.418  0.00  0.00    +0.000 HD
BRANCH  20  24
ATOM     24  C   UNL     1       6.967   3.651  12.288  0.00  0.00    +0.000 C 
BRANCH  24  25
ATOM     25  N   UNL     1       7.202   4.783  11.384  0.00  0.00    +0.000 NA
ATOM     26  H   UNL     1       8.150   4.714  10.947  0.00  0.00    +0.000 HD
ATOM     27  H   UNL     1       7.111   5.694  11.890  0.00  0.00    +0.000 HD
ENDBRANCH  24  25
BRANCH  24  28
ATOM     28  C   UNL     1       5.739   2.815  11.868  0.00  0.00    +0.000 C 
BRANCH  28  29
ATOM     29  C   UNL     1       4.495   3.690  11.707  0.00  0.00    +0.000 C 
BRANCH  29  31
ATOM     30  C   UNL     1       3.033   4.152   9.728  0.00  0.00    +0.000 C 
ATOM     31  C   UNL     1       3.490   3.091  10.724  0.00  0.00    +0.000 C 
ENDBRANCH  29  31
ENDBRANCH  28  29
ENDBRANCH  24  28
ENDBRANCH  20  24
ENDBRANCH  19  22
ENDBRANCH  18  19
ENDBRANCH   1  18
TORSDOF 11
ENDMDL
MODEL 4
REMARK VINA RESULT:      -7.5      1.600      2.439
REMARK  Name = 
REMARK  12 active torsions:
REMARK  status: ('A' for Active; 'I' for Inactive)
REMARK    1  A    between atoms: C_1  and  C_2
REMARK    2  A    between atoms: C_2  and  C_3
REMARK    3  A    between atoms: C_3  and  C_4
REMARK    4  A    between atoms: C_4  and  C_5
REMARK    5  A    between atoms: C_5  and  N_6
REMARK    6  A    between atoms: C_5  and  C_7
REMARK    7  A    between atoms: N_9  and  C_10
REMARK    8  A    between atoms: C_10  and  C_11
REMARK    9  A    between atoms: C_11  and  C_12
REMARK   10  A    between atoms: C_15  and  C_16
REMARK   11  A    between atoms: C_19  and  O_20
REMARK   12  A    between atoms: O_20  and  C_21
REMARK                            x       y       z     vdW  Elec       q    Type
REMARK                         _______ _______ _______ _____ _____    ______ ____
ROOT
ATOM      1  C   UNL     1       3.975   5.216  18.676  0.00  0.00    +0.000 A 
ATOM      2  C   UNL     1       4.007   6.316  17.798  0.00  0.00    +0.000 A 
ATOM      3  C   UNL     1       3.197   7.419  18.009  0.00  0.00    +0.000 A 
ATOM      4  C   UNL     1       2.305   7.460  19.088  0.00  0.00    +0.000 A 
ATOM      5  C   UNL     1       2.247   6.348  19.955  0.00  0.00    +0.000 A 
ATOM      6  C   UNL     1       3.078   5.241  19.753  0.00  0.00    +0.000 A 
ENDROOT
BRANCH   4   7
ATOM      7  C   UNL     1       1.444   8.660  19.296  0.00  0.00    +0.000 A 
ATOM      8  C   UNL     1       1.070   9.482  18.209  0.00  0.00    +0.000 A 
ATOM      9  C   UNL     1       0.255  10.587  18.409  0.00  0.00    +0.000 A 
ATOM     10  C   UNL     1      -0.214  10.910  19.686  0.00  0.00    +0.000 A 
ATOM     11  C   UNL     1       0.182  10.118  20.777  0.00  0.00    +0.000 A 
ATOM     12  C   UNL     1       0.990   9.003  20.579  0.00  0.00    +0.000 A 
BRANCH  10  13
ATOM     13  O   UNL     1      -1.026  11.993  19.804  0.00  0.00    +0.000 OA
BRANCH  13  14
ATOM     14  C   UNL     1      -0.783  13.197  20.444  0.00  0.00    +0.000 C 
ATOM     15  F   UNL     1       0.544  13.576  20.402  0.00  0.00    +0.000 F 
ATOM     16  F   UNL     1      -1.565  14.183  19.873  0.00  0.00    +0.000 F 
ATOM     17  F   UNL     1      -1.134  13.062  21.773  0.00  0.00    +0.000 F 
ENDBRANCH  13  14
ENDBRANCH  10  13
ENDBRANCH   4   7
BRANCH   1  18
ATOM     18  C   UNL     1       4.882   4.025  18.462  0.00  0.00    +0.000 C 
BRANCH  18  19
ATOM     19  C   UNL     1       6.263   4.461  17.953  0.00  0.00    +0.000 C 
BRANCH  19  22
ATOM     20  C   UNL     1       7.010   4.926  15.655  0.00  0.00    +0.000 C 
ATOM     21  O   UNL     1       7.299   6.077  15.958  0.00  0.00    +0.000 OA
ATOM     22  N   UNL     1       6.460   4.078  16.571  0.00  0.00    +0.000 N 
ATOM     23  H   UNL     1       6.197   3.120  16.293  0.00  0.00    +0.000 HD
BRANCH  20  24
ATOM     24  C   UNL     1       7.306   4.456  14.260  0.00  0.00    +0.000 C 
BRANCH  24  25
ATOM     25  N   UNL     1       7.886   5.584  13.522  0.00  0.00    +0.000 NA
ATOM     26  H   UNL     1       8.895   5.705  13.768  0.00  0.00    +0.000 HD
ATOM     27  H   UNL     1       7.364   6.469  13.716  0.00  0.00    +0.000 HD
ENDBRANCH  24  25
BRANCH  24  28
ATOM     28  C   UNL     1       6.021   3.920  13.593  0.00  0.00    +0.000 C 
BRANCH  28  29
ATOM     29  C   UNL     1       6.257   3.574  12.123  0.00  0.00    +0.000 C 
BRANCH  29  31
ATOM     30  C   UNL     1       6.482   1.332  11.030  0.00  0.00    +0.000 C 
ATOM     31  C   UNL     1       5.517   2.304  11.701  0.00  0.00    +0.000 C 
ENDBRANCH  29  31
ENDBRANCH  28  29
ENDBRANCH  24  28
ENDBRANCH  20  24
ENDBRANCH  19  22
ENDBRANCH  18  19
ENDBRANCH   1  18
TORSDOF 11
ENDMDL
MODEL 5
REMARK VINA RESULT:      -7.5      2.891      4.895
REMARK  Name = 
REMARK  12 active torsions:
REMARK  status: ('A' for Active; 'I' for Inactive)
REMARK    1  A    between atoms: C_1  and  C_2
REMARK    2  A    between atoms: C_2  and  C_3
REMARK    3  A    between atoms: C_3  and  C_4
REMARK    4  A    between atoms: C_4  and  C_5
REMARK    5  A    between atoms: C_5  and  N_6
REMARK    6  A    between atoms: C_5  and  C_7
REMARK    7  A    between atoms: N_9  and  C_10
REMARK    8  A    between atoms: C_10  and  C_11
REMARK    9  A    between atoms: C_11  and  C_12
REMARK   10  A    between atoms: C_15  and  C_16
REMARK   11  A    between atoms: C_19  and  O_20
REMARK   12  A    between atoms: O_20  and  C_21
REMARK                            x       y       z     vdW  Elec       q    Type
REMARK                         _______ _______ _______ _____ _____    ______ ____
ROOT
ATOM      1  C   UNL     1       4.804   5.135  16.086  0.00  0.00    +0.000 A 
ATOM      2  C   UNL     1       4.773   6.539  15.992  0.00  0.00    +0.000 A 
ATOM      3  C   UNL     1       4.017   7.295  16.870  0.00  0.00    +0.000 A 
ATOM      4  C   UNL     1       3.240   6.682  17.863  0.00  0.00    +0.000 A 
ATOM      5  C   UNL     1       3.244   5.273  17.944  0.00  0.00    +0.000 A 
ATOM      6  C   UNL     1       4.023   4.509  17.068  0.00  0.00    +0.000 A 
ENDROOT
BRANCH   4   7
ATOM      7  C   UNL     1       2.435   7.518  18.799  0.00  0.00    +0.000 A 
ATOM      8  C   UNL     1       1.919   8.770  18.393  0.00  0.00    +0.000 A 
ATOM      9  C   UNL     1       1.157   9.533  19.266  0.00  0.00    +0.000 A 
ATOM     10  C   UNL     1       0.882   9.083  20.560  0.00  0.00    +0.000 A 
ATOM     11  C   UNL     1       1.421   7.855  20.983  0.00  0.00    +0.000 A 
ATOM     12  C   UNL     1       2.176   7.082  20.107  0.00  0.00    +0.000 A 
BRANCH  10  13
ATOM     13  O   UNL     1       0.110   9.872  21.353  0.00  0.00    +0.000 OA
BRANCH  13  14
ATOM     14  C   UNL     1      -0.361   9.626  22.632  0.00  0.00    +0.000 C 
ATOM     15  F   UNL     1      -1.094   8.459  22.724  0.00  0.00    +0.000 F 
ATOM     16  F   UNL     1       0.704   9.575  23.509  0.00  0.00    +0.000 F 
ATOM     17  F   UNL     1      -1.193  10.667  22.996  0.00  0.00    +0.000 F 
ENDBRANCH  13  14
ENDBRANCH  10  13
ENDBRANCH   4   7
BRANCH   1  18
ATOM     18  C   UNL     1       5.655   4.311  15.145  0.00  0.00    +0.000 C 
BRANCH  18  19
ATOM     19  C   UNL     1       7.151   4.549  15.395  0.00  0.00    +0.000 C 
BRANCH  19  22
ATOM     20  C   UNL     1       7.750   5.185  17.695  0.00  0.00    +0.000 C 
ATOM     21  O   UNL     1       7.872   4.008  18.012  0.00  0.00    +0.000 OA
ATOM     22  N   UNL     1       7.361   5.533  16.435  0.00  0.00    +0.000 N 
ATOM     23  H   UNL     1       7.236   6.528  16.192  0.00  0.00    +0.000 HD
BRANCH  20  24
ATOM     24  C   UNL     1       8.070   6.238  18.715  0.00  0.00    +0.000 C 
BRANCH  24  25
ATOM     25  N   UNL     1       7.734   5.699  20.038  0.00  0.00    +0.000 NA
ATOM     26  H   UNL     1       8.186   6.265  20.792  0.00  0.00    +0.000 HD
ATOM     27  H   UNL     1       8.026   4.698  20.121  0.00  0.00    +0.000 HD
ENDBRANCH  24  25
BRANCH  24  28
ATOM     28  C   UNL     1       7.299   7.538  18.401  0.00  0.00    +0.000 C 
BRANCH  28  29
ATOM     29  C   UNL     1       8.219   8.605  17.806  0.00  0.00    +0.000 C 
BRANCH  29  31
ATOM     30  C   UNL     1       9.283  10.819  18.286  0.00  0.00    +0.000 C 
ATOM     31  C   UNL     1       8.862   9.480  18.882  0.00  0.00    +0.000 C 
ENDBRANCH  29  31
ENDBRANCH  28  29
ENDBRANCH  24  28
ENDBRANCH  20  24
ENDBRANCH  19  22
ENDBRANCH  18  19
ENDBRANCH   1  18
TORSDOF 11
ENDMDL
MODEL 6
REMARK VINA RESULT:      -7.5      1.794      2.503
REMARK  Name = 
REMARK  12 active torsions:
REMARK  status: ('A' for Active; 'I' for Inactive)
REMARK    1  A    between atoms: C_1  and  C_2
REMARK    2  A    between atoms: C_2  and  C_3
REMARK    3  A    between atoms: C_3  and  C_4
REMARK    4  A    between atoms: C_4  and  C_5
REMARK    5  A    between atoms: C_5  and  N_6
REMARK    6  A    between atoms: C_5  and  C_7
REMARK    7  A    between atoms: N_9  and  C_10
REMARK    8  A    between atoms: C_10  and  C_11
REMARK    9  A    between atoms: C_11  and  C_12
REMARK   10  A    between atoms: C_15  and  C_16
REMARK   11  A    between atoms: C_19  and  O_20
REMARK   12  A    between atoms: O_20  and  C_21
REMARK                            x       y       z     vdW  Elec       q    Type
REMARK                         _______ _______ _______ _____ _____    ______ ____
ROOT
ATOM      1  C   UNL     1       4.067   5.183  18.802  0.00  0.00    +0.000 A 
ATOM      2  C   UNL     1       4.012   6.250  17.887  0.00  0.00    +0.000 A 
ATOM      3  C   UNL     1       3.185   7.338  18.110  0.00  0.00    +0.000 A 
ATOM      4  C   UNL     1       2.361   7.395  19.241  0.00  0.00    +0.000 A 
ATOM      5  C   UNL     1       2.390   6.314  20.148  0.00  0.00    +0.000 A 
ATOM      6  C   UNL     1       3.238   5.223  19.933  0.00  0.00    +0.000 A 
ENDROOT
BRANCH   4   7
ATOM      7  C   UNL     1       1.481   8.578  19.461  0.00  0.00    +0.000 A 
ATOM      8  C   UNL     1       0.942   8.855  20.737  0.00  0.00    +0.000 A 
ATOM      9  C   UNL     1       0.136   9.967  20.936  0.00  0.00    +0.000 A 
ATOM     10  C   UNL     1      -0.157  10.837  19.882  0.00  0.00    +0.000 A 
ATOM     11  C   UNL     1       0.346  10.550  18.601  0.00  0.00    +0.000 A 
ATOM     12  C   UNL     1       1.163   9.441  18.401  0.00  0.00    +0.000 A 
BRANCH  10  13
ATOM     13  O   UNL     1      -0.933  11.919  20.154  0.00  0.00    +0.000 OA
BRANCH  13  14
ATOM     14  C   UNL     1      -1.956  12.469  19.398  0.00  0.00    +0.000 C 
ATOM     15  F   UNL     1      -2.731  13.366  20.107  0.00  0.00    +0.000 F 
ATOM     16  F   UNL     1      -1.419  13.095  18.290  0.00  0.00    +0.000 F 
ATOM     17  F   UNL     1      -2.784  11.446  18.978  0.00  0.00    +0.000 F 
ENDBRANCH  13  14
ENDBRANCH  10  13
ENDBRANCH   4   7
BRANCH   1  18
ATOM     18  C   UNL     1       4.993   4.009  18.573  0.00  0.00    +0.000 C 
BRANCH  18  19
ATOM     19  C   UNL     1       6.321   4.461  17.951  0.00  0.00    +0.000 C 
BRANCH  19  22
ATOM     20  C   UNL     1       6.799   4.879  15.573  0.00  0.00    +0.000 C 
ATOM     21  O   UNL     1       6.985   6.069  15.798  0.00  0.00    +0.000 OA
ATOM     22  N   UNL     1       6.432   4.028  16.575  0.00  0.00    +0.000 N 
ATOM     23  H   UNL     1       6.252   3.034  16.364  0.00  0.00    +0.000 HD
BRANCH  20  24
ATOM     24  C   UNL     1       7.016   4.370  14.178  0.00  0.00    +0.000 C 
BRANCH  24  25
ATOM     25  N   UNL     1       7.561   5.473  13.379  0.00  0.00    +0.000 NA
ATOM     26  H   UNL     1       7.822   5.140  12.422  0.00  0.00    +0.000 HD
ATOM     27  H   UNL     1       8.394   5.900  13.845  0.00  0.00    +0.000 HD
ENDBRANCH  24  25
BRANCH  24  28
ATOM     28  C   UNL     1       5.693   3.825  13.597  0.00  0.00    +0.000 C 
BRANCH  28  29
ATOM     29  C   UNL     1       5.801   3.589  12.090  0.00  0.00    +0.000 C 
BRANCH  29  31
ATOM     30  C   UNL     1       3.800   3.683  10.588  0.00  0.00    +0.000 C 
ATOM     31  C   UNL     1       4.608   2.807  11.540  0.00  0.00    +0.000 C 
ENDBRANCH  29  31
ENDBRANCH  28  29
ENDBRANCH  24  28
ENDBRANCH  20  24
ENDBRANCH  19  22
ENDBRANCH  18  19
ENDBRANCH   1  18
TORSDOF 11
ENDMDL
MODEL 7
REMARK VINA RESULT:      -7.4      1.202      1.326
REMARK  Name = 
REMARK  12 active torsions:
REMARK  status: ('A' for Active; 'I' for Inactive)
REMARK    1  A    between atoms: C_1  and  C_2
REMARK    2  A    between atoms: C_2  and  C_3
REMARK    3  A    between atoms: C_3  and  C_4
REMARK    4  A    between atoms: C_4  and  C_5
REMARK    5  A    between atoms: C_5  and  N_6
REMARK    6  A    between atoms: C_5  and  C_7
REMARK    7  A    between atoms: N_9  and  C_10
REMARK    8  A    between atoms: C_10  and  C_11
REMARK    9  A    between atoms: C_11  and  C_12
REMARK   10  A    between atoms: C_15  and  C_16
REMARK   11  A    between atoms: C_19  and  O_20
REMARK   12  A    between atoms: O_20  and  C_21
REMARK                            x       y       z     vdW  Elec       q    Type
REMARK                         _______ _______ _______ _____ _____    ______ ____
ROOT
ATOM      1  C   UNL     1       2.607   6.810  18.717  0.00  0.00    +0.000 A 
ATOM      2  C   UNL     1       2.237   6.523  20.044  0.00  0.00    +0.000 A 
ATOM      3  C   UNL     1       1.514   7.434  20.795  0.00  0.00    +0.000 A 
ATOM      4  C   UNL     1       1.152   8.679  20.263  0.00  0.00    +0.000 A 
ATOM      5  C   UNL     1       1.546   8.984  18.942  0.00  0.00    +0.000 A 
ATOM      6  C   UNL     1       2.260   8.057  18.177  0.00  0.00    +0.000 A 
ENDROOT
BRANCH   4   7
ATOM      7  C   UNL     1       0.372   9.643  21.090  0.00  0.00    +0.000 A 
ATOM      8  C   UNL     1      -0.084   9.290  22.380  0.00  0.00    +0.000 A 
ATOM      9  C   UNL     1      -0.795  10.199  23.150  0.00  0.00    +0.000 A 
ATOM     10  C   UNL     1      -1.075  11.482  22.668  0.00  0.00    +0.000 A 
ATOM     11  C   UNL     1      -0.655  11.829  21.372  0.00  0.00    +0.000 A 
ATOM     12  C   UNL     1       0.068  10.923  20.603  0.00  0.00    +0.000 A 
BRANCH  10  13
ATOM     13  O   UNL     1      -1.756  12.327  23.485  0.00  0.00    +0.000 OA
BRANCH  13  14
ATOM     14  C   UNL     1      -2.928  13.022  23.236  0.00  0.00    +0.000 C 
ATOM     15  F   UNL     1      -2.726  14.192  22.530  0.00  0.00    +0.000 F 
ATOM     16  F   UNL     1      -3.803  12.208  22.543  0.00  0.00    +0.000 F 
ATOM     17  F   UNL     1      -3.498  13.362  24.448  0.00  0.00    +0.000 F 
ENDBRANCH  13  14
ENDBRANCH  10  13
ENDBRANCH   4   7
BRANCH   1  18
ATOM     18  C   UNL     1       3.370   5.801  17.888  0.00  0.00    +0.000 C 
BRANCH  18  19
ATOM     19  C   UNL     1       4.850   6.189  17.764  0.00  0.00    +0.000 C 
BRANCH  19  22
ATOM     20  C   UNL     1       6.453   4.986  16.334  0.00  0.00    +0.000 C 
ATOM     21  O   UNL     1       7.048   4.565  17.319  0.00  0.00    +0.000 OA
ATOM     22  N   UNL     1       5.383   5.822  16.469  0.00  0.00    +0.000 N 
ATOM     23  H   UNL     1       4.910   6.191  15.629  0.00  0.00    +0.000 HD
BRANCH  20  24
ATOM     24  C   UNL     1       6.906   4.536  14.976  0.00  0.00    +0.000 C 
BRANCH  24  25
ATOM     25  N   UNL     1       7.863   5.527  14.472  0.00  0.00    +0.000 NA
ATOM     26  H   UNL     1       8.818   5.108  14.391  0.00  0.00    +0.000 HD
ATOM     27  H   UNL     1       7.897   6.368  15.093  0.00  0.00    +0.000 HD
ENDBRANCH  24  25
BRANCH  24  28
ATOM     28  C   UNL     1       5.692   4.367  14.037  0.00  0.00    +0.000 C 
BRANCH  28  29
ATOM     29  C   UNL     1       5.787   3.073  13.229  0.00  0.00    +0.000 C 
BRANCH  29  31
ATOM     30  C   UNL     1       4.157   3.204  11.333  0.00  0.00    +0.000 C 
ATOM     31  C   UNL     1       5.626   3.315  11.728  0.00  0.00    +0.000 C 
ENDBRANCH  29  31
ENDBRANCH  28  29
ENDBRANCH  24  28
ENDBRANCH  20  24
ENDBRANCH  19  22
ENDBRANCH  18  19
ENDBRANCH   1  18
TORSDOF 11
ENDMDL
MODEL 8
REMARK VINA RESULT:      -7.4      1.416      2.089
REMARK  Name = 
REMARK  12 active torsions:
REMARK  status: ('A' for Active; 'I' for Inactive)
REMARK    1  A    between atoms: C_1  and  C_2
REMARK    2  A    between atoms: C_2  and  C_3
REMARK    3  A    between atoms: C_3  and  C_4
REMARK    4  A    between atoms: C_4  and  C_5
REMARK    5  A    between atoms: C_5  and  N_6
REMARK    6  A    between atoms: C_5  and  C_7
REMARK    7  A    between atoms: N_9  and  C_10
REMARK    8  A    between atoms: C_10  and  C_11
REMARK    9  A    between atoms: C_11  and  C_12
REMARK   10  A    between atoms: C_15  and  C_16
REMARK   11  A    between atoms: C_19  and  O_20
REMARK   12  A    between atoms: O_20  and  C_21
REMARK                            x       y       z     vdW  Elec       q    Type
REMARK                         _______ _______ _______ _____ _____    ______ ____
ROOT
ATOM      1  C   UNL     1       2.352   7.751  18.325  0.00  0.00    +0.000 A 
ATOM      2  C   UNL     1       1.689   8.901  17.859  0.00  0.00    +0.000 A 
ATOM      3  C   UNL     1       0.961   9.703  18.721  0.00  0.00    +0.000 A 
ATOM      4  C   UNL     1       0.843   9.378  20.078  0.00  0.00    +0.000 A 
ATOM      5  C   UNL     1       1.482   8.210  20.547  0.00  0.00    +0.000 A 
ATOM      6  C   UNL     1       2.233   7.409  19.680  0.00  0.00    +0.000 A 
ENDROOT
BRANCH   4   7
ATOM      7  C   UNL     1       0.055  10.258  20.988  0.00  0.00    +0.000 A 
ATOM      8  C   UNL     1      -0.325   9.817  22.275  0.00  0.00    +0.000 A 
ATOM      9  C   UNL     1      -1.045  10.649  23.121  0.00  0.00    +0.000 A 
ATOM     10  C   UNL     1      -1.406  11.939  22.721  0.00  0.00    +0.000 A 
ATOM     11  C   UNL     1      -1.062  12.373  21.429  0.00  0.00    +0.000 A 
ATOM     12  C   UNL     1      -0.331  11.545  20.583  0.00  0.00    +0.000 A 
BRANCH  10  13
ATOM     13  O   UNL     1      -2.090  12.706  23.609  0.00  0.00    +0.000 OA
BRANCH  13  14
ATOM     14  C   UNL     1      -3.457  12.798  23.809  0.00  0.00    +0.000 C 
ATOM     15  F   UNL     1      -3.947  11.829  24.664  0.00  0.00    +0.000 F 
ATOM     16  F   UNL     1      -3.763  14.050  24.304  0.00  0.00    +0.000 F 
ATOM     17  F   UNL     1      -4.087  12.632  22.591  0.00  0.00    +0.000 F 
ENDBRANCH  13  14
ENDBRANCH  10  13
ENDBRANCH   4   7
BRANCH   1  18
ATOM     18  C   UNL     1       3.173   6.893  17.388  0.00  0.00    +0.000 C 
BRANCH  18  19
ATOM     19  C   UNL     1       4.524   6.521  18.014  0.00  0.00    +0.000 C 
BRANCH  19  22
ATOM     20  C   UNL     1       5.411   4.629  16.713  0.00  0.00    +0.000 C 
ATOM     21  O   UNL     1       4.678   3.848  17.308  0.00  0.00    +0.000 OA
ATOM     22  N   UNL     1       5.422   5.956  17.029  0.00  0.00    +0.000 N 
ATOM     23  H   UNL     1       6.065   6.596  16.538  0.00  0.00    +0.000 HD
BRANCH  20  24
ATOM     24  C   UNL     1       6.275   4.099  15.606  0.00  0.00    +0.000 C 
BRANCH  24  25
ATOM     25  N   UNL     1       7.498   4.910  15.565  0.00  0.00    +0.000 NA
ATOM     26  H   UNL     1       8.085   4.732  16.413  0.00  0.00    +0.000 HD
ATOM     27  H   UNL     1       7.272   5.929  15.497  0.00  0.00    +0.000 HD
ENDBRANCH  24  25
BRANCH  24  28
ATOM     28  C   UNL     1       5.508   4.133  14.267  0.00  0.00    +0.000 C 
BRANCH  28  29
ATOM     29  C   UNL     1       6.400   3.709  13.100  0.00  0.00    +0.000 C 
BRANCH  29  31
ATOM     30  C   UNL     1       5.890   1.834  11.522  0.00  0.00    +0.000 C 
ATOM     31  C   UNL     1       5.590   3.287  11.875  0.00  0.00    +0.000 C 
ENDBRANCH  29  31
ENDBRANCH  28  29
ENDBRANCH  24  28
ENDBRANCH  20  24
ENDBRANCH  19  22
ENDBRANCH  18  19
ENDBRANCH   1  18
TORSDOF 11
ENDMDL
MODEL 9
REMARK VINA RESULT:      -7.4      6.536     10.519
REMARK  Name = 
REMARK  12 active torsions:
REMARK  status: ('A' for Active; 'I' for Inactive)
REMARK    1  A    between atoms: C_1  and  C_2
REMARK    2  A    between atoms: C_2  and  C_3
REMARK    3  A    between atoms: C_3  and  C_4
REMARK    4  A    between atoms: C_4  and  C_5
REMARK    5  A    between atoms: C_5  and  N_6
REMARK    6  A    between atoms: C_5  and  C_7
REMARK    7  A    between atoms: N_9  and  C_10
REMARK    8  A    between atoms: C_10  and  C_11
REMARK    9  A    between atoms: C_11  and  C_12
REMARK   10  A    between atoms: C_15  and  C_16
REMARK   11  A    between atoms: C_19  and  O_20
REMARK   12  A    between atoms: O_20  and  C_21
REMARK                            x       y       z     vdW  Elec       q    Type
REMARK                         _______ _______ _______ _____ _____    ______ ____
ROOT
ATOM      1  C   UNL     1       2.049   7.458  19.796  0.00  0.00    +0.000 A 
ATOM      2  C   UNL     1       2.389   6.095  19.872  0.00  0.00    +0.000 A 
ATOM      3  C   UNL     1       3.162   5.497  18.892  0.00  0.00    +0.000 A 
ATOM      4  C   UNL     1       3.606   6.227  17.782  0.00  0.00    +0.000 A 
ATOM      5  C   UNL     1       3.244   7.588  17.684  0.00  0.00    +0.000 A 
ATOM      6  C   UNL     1       2.479   8.197  18.684  0.00  0.00    +0.000 A 
ENDROOT
BRANCH   4   7
ATOM      7  C   UNL     1       4.439   5.562  16.739  0.00  0.00    +0.000 A 
ATOM      8  C   UNL     1       4.639   4.163  16.753  0.00  0.00    +0.000 A 
ATOM      9  C   UNL     1       5.402   3.551  15.769  0.00  0.00    +0.000 A 
ATOM     10  C   UNL     1       5.986   4.301  14.744  0.00  0.00    +0.000 A 
ATOM     11  C   UNL     1       5.821   5.696  14.743  0.00  0.00    +0.000 A 
ATOM     12  C   UNL     1       5.047   6.312  15.721  0.00  0.00    +0.000 A 
BRANCH  10  13
ATOM     13  O   UNL     1       6.701   3.632  13.802  0.00  0.00    +0.000 OA
BRANCH  13  14
ATOM     14  C   UNL     1       6.534   3.622  12.427  0.00  0.00    +0.000 C 
ATOM     15  F   UNL     1       7.123   4.704  11.802  0.00  0.00    +0.000 F 
ATOM     16  F   UNL     1       7.055   2.450  11.913  0.00  0.00    +0.000 F 
ATOM     17  F   UNL     1       5.181   3.669  12.153  0.00  0.00    +0.000 F 
ENDBRANCH  13  14
ENDBRANCH  10  13
ENDBRANCH   4   7
BRANCH   1  18
ATOM     18  C   UNL     1       1.231   8.118  20.884  0.00  0.00    +0.000 C 
BRANCH  18  19
ATOM     19  C   UNL     1       1.075   9.623  20.628  0.00  0.00    +0.000 C 
BRANCH  19  22
ATOM     20  C   UNL     1      -0.818  10.847  19.641  0.00  0.00    +0.000 C 
ATOM     21  O   UNL     1      -0.965  11.494  20.671  0.00  0.00    +0.000 OA
ATOM     22  N   UNL     1       0.140   9.880  19.553  0.00  0.00    +0.000 N 
ATOM     23  H   UNL     1       0.233   9.325  18.688  0.00  0.00    +0.000 HD
BRANCH  20  24
ATOM     24  C   UNL     1      -1.694  11.164  18.464  0.00  0.00    +0.000 C 
BRANCH  24  25
ATOM     25  N   UNL     1      -2.630  12.218  18.874  0.00  0.00    +0.000 NA
ATOM     26  H   UNL     1      -2.491  12.462  19.881  0.00  0.00    +0.000 HD
ATOM     27  H   UNL     1      -3.621  11.925  18.713  0.00  0.00    +0.000 HD
ENDBRANCH  24  25
BRANCH  24  28
ATOM     28  C   UNL     1      -2.423   9.891  17.983  0.00  0.00    +0.000 C 
BRANCH  28  29
ATOM     29  C   UNL     1      -3.333  10.186  16.789  0.00  0.00    +0.000 C 
BRANCH  29  31
ATOM     30  C   UNL     1      -3.608  10.139  14.301  0.00  0.00    +0.000 C 
ATOM     31  C   UNL     1      -2.622   9.972  15.453  0.00  0.00    +0.000 C 
ENDBRANCH  29  31
ENDBRANCH  28  29
ENDBRANCH  24  28
ENDBRANCH  20  24
ENDBRANCH  19  22
ENDBRANCH  18  19
ENDBRANCH   1  18
TORSDOF 11
ENDMDL
