MODEL 1
REMARK VINA RESULT:      -6.8      0.000      0.000
REMARK  Name = 
REMARK  10 active torsions:
REMARK  status: ('A' for Active; 'I' for Inactive)
REMARK    1  A    between atoms: C_1  and  C_2
REMARK    2  A    between atoms: C_2  and  C_3
REMARK    3  A    between atoms: C_3  and  C_4
REMARK    4  A    between atoms: C_4  and  N_5
REMARK    5  A    between atoms: C_6  and  C_8
REMARK    6  A    between atoms: N_10  and  C_11
REMARK    7  A    between atoms: C_14  and  C_15
REMARK    8  A    between atoms: C_15  and  C_16
REMARK    9  A    between atoms: C_20  and  C_21
REMARK   10  A    between atoms: C_21  and  O_22
REMARK                            x       y       z     vdW  Elec       q    Type
REMARK                         _______ _______ _______ _____ _____    ______ ____
ROOT
ATOM      1  C   UNL     1       1.286   9.218  19.055  0.00  0.00    +0.000 A 
ATOM      2  N   UNL     1       1.968   8.701  18.008  0.00  0.00    +0.000 NA
ATOM      3  N   UNL     1       2.517   7.570  18.553  0.00  0.00    +0.000 N 
ATOM      4  N   UNL     1       2.245   7.355  19.865  0.00  0.00    +0.000 NA
ATOM      5  C   UNL     1       1.468   8.389  20.189  0.00  0.00    +0.000 A 
ENDROOT
BRANCH   3   6
ATOM      6  C   UNL     1       3.348   6.658  17.843  0.00  0.00    +0.000 A 
ATOM      7  C   UNL     1       4.445   7.090  17.092  0.00  0.00    +0.000 A 
ATOM      8  C   UNL     1       5.246   6.146  16.427  0.00  0.00    +0.000 A 
ATOM      9  C   UNL     1       4.952   4.774  16.490  0.00  0.00    +0.000 A 
ATOM     10  C   UNL     1       3.851   4.354  17.241  0.00  0.00    +0.000 A 
ATOM     11  C   UNL     1       3.057   5.285  17.911  0.00  0.00    +0.000 A 
BRANCH   9  12
ATOM     12  C   UNL     1       5.801   3.755  15.771  0.00  0.00    +0.000 C 
ATOM     13  C   UNL     1       6.046   4.119  14.313  0.00  0.00    +0.000 C 
ENDBRANCH   9  12
ENDBRANCH   3   6
BRANCH   1  15
ATOM     14  N   UNL     1      -0.482  10.491  18.032  0.00  0.00    +0.000 N 
ATOM     15  C   UNL     1       0.487  10.450  19.013  0.00  0.00    +0.000 C 
ATOM     16  O   UNL     1       0.675  11.366  19.812  0.00  0.00    +0.000 OA
ATOM     17  H   UNL     1      -0.661   9.607  17.564  0.00  0.00    +0.000 HD
BRANCH  14  18
ATOM     18  C   UNL     1      -1.443  11.574  17.949  0.00  0.00    +0.000 C 
BRANCH  18  19
ATOM     19  C   UNL     1      -2.861  11.099  17.627  0.00  0.00    +0.000 C 
BRANCH  19  21
ATOM     20  C   UNL     1      -2.906  10.479  15.182  0.00  0.00    +0.000 C 
ATOM     21  C   UNL     1      -2.897   9.956  16.611  0.00  0.00    +0.000 C 
ENDBRANCH  19  21
ENDBRANCH  18  19
ENDBRANCH  14  18
ENDBRANCH   1  15
BRANCH   5  22
ATOM     22  C   UNL     1       0.951   8.551  21.577  0.00  0.00    +0.000 C 
BRANCH  22  23
ATOM     23  O   UNL     1       1.491   9.687  22.243  0.00  0.00    +0.000 OA
ATOM     24  H   UNL     1       2.331   9.386  22.649  0.00  0.00    +0.000 HD
ENDBRANCH  22  23
ENDBRANCH   5  22
TORSDOF 8
ENDMDL
MODEL 2
REMARK VINA RESULT:      -6.8      3.311      7.974
REMARK  Name = 
REMARK  10 active torsions:
REMARK  status: ('A' for Active; 'I' for Inactive)
REMARK    1  A    between atoms: C_1  and  C_2
REMARK    2  A    between atoms: C_2  and  C_3
REMARK    3  A    between atoms: C_3  and  C_4
REMARK    4  A    between atoms: C_4  and  N_5
REMARK    5  A    between atoms: C_6  and  C_8
REMARK    6  A    between atoms: N_10  and  C_11
REMARK    7  A    between atoms: C_14  and  C_15
REMARK    8  A    between atoms: C_15  and  C_16
REMARK    9  A    between atoms: C_20  and  C_21
REMARK   10  A    between atoms: C_21  and  O_22
REMARK                            x       y       z     vdW  Elec       q    Type
REMARK                         _______ _______ _______ _____ _____    ______ ____
ROOT
ATOM      1  C   UNL     1       4.773   5.967  17.224  0.00  0.00    +0.000 A 
ATOM      2  N   UNL     1       4.057   7.115  17.205  0.00  0.00    +0.000 NA
ATOM      3  N   UNL     1       3.256   6.970  18.307  0.00  0.00    +0.000 N 
ATOM      4  N   UNL     1       3.404   5.812  18.998  0.00  0.00    +0.000 NA
ATOM      5  C   UNL     1       4.360   5.174  18.323  0.00  0.00    +0.000 A 
ENDROOT
BRANCH   3   6
ATOM      6  C   UNL     1       2.293   7.930  18.731  0.00  0.00    +0.000 A 
ATOM      7  C   UNL     1       1.750   8.870  17.850  0.00  0.00    +0.000 A 
ATOM      8  C   UNL     1       0.787   9.781  18.315  0.00  0.00    +0.000 A 
ATOM      9  C   UNL     1       0.373   9.776  19.657  0.00  0.00    +0.000 A 
ATOM     10  C   UNL     1       0.924   8.834  20.529  0.00  0.00    +0.000 A 
ATOM     11  C   UNL     1       1.874   7.920  20.072  0.00  0.00    +0.000 A 
BRANCH   9  12
ATOM     12  C   UNL     1      -0.653  10.758  20.166  0.00  0.00    +0.000 C 
ATOM     13  C   UNL     1      -1.446  11.413  19.044  0.00  0.00    +0.000 C 
ENDBRANCH   9  12
ENDBRANCH   3   6
BRANCH   1  15
ATOM     14  N   UNL     1       5.465   4.615  15.357  0.00  0.00    +0.000 N 
ATOM     15  C   UNL     1       5.812   5.607  16.250  0.00  0.00    +0.000 C 
ATOM     16  O   UNL     1       6.905   6.171  16.239  0.00  0.00    +0.000 OA
ATOM     17  H   UNL     1       4.480   4.365  15.349  0.00  0.00    +0.000 HD
BRANCH  14  18
ATOM     18  C   UNL     1       6.326   4.246  14.248  0.00  0.00    +0.000 C 
BRANCH  18  19
ATOM     19  C   UNL     1       5.563   3.645  13.067  0.00  0.00    +0.000 C 
BRANCH  19  21
ATOM     20  C   UNL     1       5.868   1.775  11.402  0.00  0.00    +0.000 C 
ATOM     21  C   UNL     1       6.480   3.028  12.008  0.00  0.00    +0.000 C 
ENDBRANCH  19  21
ENDBRANCH  18  19
ENDBRANCH  14  18
ENDBRANCH   1  15
BRANCH   5  22
ATOM     22  C   UNL     1       4.822   3.823  18.746  0.00  0.00    +0.000 C 
BRANCH  22  23
ATOM     23  O   UNL     1       4.552   2.814  17.778  0.00  0.00    +0.000 OA
ATOM     24  H   UNL     1       3.581   2.825  17.644  0.00  0.00    +0.000 HD
ENDBRANCH  22  23
ENDBRANCH   5  22
TORSDOF 8
ENDMDL
MODEL 3
REMARK VINA RESULT:      -6.7      3.838      7.859
REMARK  Name = 
REMARK  10 active torsions:
REMARK  status: ('A' for Active; 'I' for Inactive)
REMARK    1  A    between atoms: C_1  and  C_2
REMARK    2  A    between atoms: C_2  and  C_3
REMARK    3  A    between atoms: C_3  and  C_4
REMARK    4  A    between atoms: C_4  and  N_5
REMARK    5  A    between atoms: C_6  and  C_8
REMARK    6  A    between atoms: N_10  and  C_11
REMARK    7  A    between atoms: C_14  and  C_15
REMARK    8  A    between atoms: C_15  and  C_16
REMARK    9  A    between atoms: C_20  and  C_21
REMARK   10  A    between atoms: C_21  and  O_22
REMARK                            x       y       z     vdW  Elec       q    Type
REMARK                         _______ _______ _______ _____ _____    ______ ____
ROOT
ATOM      1  C   UNL     1       4.718   4.851  16.861  0.00  0.00    +0.000 A 
ATOM      2  N   UNL     1       4.395   6.147  17.080  0.00  0.00    +0.000 NA
ATOM      3  N   UNL     1       3.322   6.036  17.924  0.00  0.00    +0.000 N 
ATOM      4  N   UNL     1       2.940   4.771  18.232  0.00  0.00    +0.000 NA
ATOM      5  C   UNL     1       3.815   4.018  17.567  0.00  0.00    +0.000 A 
ENDROOT
BRANCH   3   6
ATOM      6  C   UNL     1       2.601   7.143  18.454  0.00  0.00    +0.000 A 
ATOM      7  C   UNL     1       2.253   8.244  17.666  0.00  0.00    +0.000 A 
ATOM      8  C   UNL     1       1.522   9.301  18.233  0.00  0.00    +0.000 A 
ATOM      9  C   UNL     1       1.149   9.279  19.587  0.00  0.00    +0.000 A 
ATOM     10  C   UNL     1       1.503   8.175  20.366  0.00  0.00    +0.000 A 
ATOM     11  C   UNL     1       2.221   7.118  19.807  0.00  0.00    +0.000 A 
BRANCH   9  12
ATOM     12  C   UNL     1       0.372  10.415  20.207  0.00  0.00    +0.000 C 
ATOM     13  C   UNL     1       0.816  11.777  19.694  0.00  0.00    +0.000 C 
ENDBRANCH   9  12
ENDBRANCH   3   6
BRANCH   1  15
ATOM     14  N   UNL     1       5.518   4.185  14.691  0.00  0.00    +0.000 N 
ATOM     15  C   UNL     1       5.830   4.391  16.019  0.00  0.00    +0.000 C 
ATOM     16  O   UNL     1       6.957   4.218  16.481  0.00  0.00    +0.000 OA
ATOM     17  H   UNL     1       4.612   4.540  14.400  0.00  0.00    +0.000 HD
BRANCH  14  18
ATOM     18  C   UNL     1       6.534   3.867  13.706  0.00  0.00    +0.000 C 
BRANCH  18  19
ATOM     19  C   UNL     1       5.962   3.608  12.312  0.00  0.00    +0.000 C 
BRANCH  19  21
ATOM     20  C   UNL     1       3.908   3.202  10.904  0.00  0.00    +0.000 C 
ATOM     21  C   UNL     1       4.448   3.381  12.314  0.00  0.00    +0.000 C 
ENDBRANCH  19  21
ENDBRANCH  18  19
ENDBRANCH  14  18
ENDBRANCH   1  15
BRANCH   5  22
ATOM     22  C   UNL     1       3.737   2.531  17.617  0.00  0.00    +0.000 C 
BRANCH  22  23
ATOM     23  O   UNL     1       2.401   2.042  17.568  0.00  0.00    +0.000 OA
ATOM     24  H   UNL     1       1.824   2.829  17.664  0.00  0.00    +0.000 HD
ENDBRANCH  22  23
ENDBRANCH   5  22
TORSDOF 8
ENDMDL
MODEL 4
REMARK VINA RESULT:      -6.7      5.347      8.081
REMARK  Name = 
REMARK  10 active torsions:
REMARK  status: ('A' for Active; 'I' for Inactive)
REMARK    1  A    between atoms: C_1  and  C_2
REMARK    2  A    between atoms: C_2  and  C_3
REMARK    3  A    between atoms: C_3  and  C_4
REMARK    4  A    between atoms: C_4  and  N_5
REMARK    5  A    between atoms: C_6  and  C_8
REMARK    6  A    between atoms: N_10  and  C_11
REMARK    7  A    between atoms: C_14  and  C_15
REMARK    8  A    between atoms: C_15  and  C_16
REMARK    9  A    between atoms: C_20  and  C_21
REMARK   10  A    between atoms: C_21  and  O_22
REMARK                            x       y       z     vdW  Elec       q    Type
REMARK                         _______ _______ _______ _____ _____    ______ ____
ROOT
ATOM      1  C   UNL     1       6.068   4.837  15.510  0.00  0.00    +0.000 A 
ATOM      2  N   UNL     1       5.002   4.140  15.965  0.00  0.00    +0.000 NA
ATOM      3  N   UNL     1       4.814   4.684  17.208  0.00  0.00    +0.000 N 
ATOM      4  N   UNL     1       5.693   5.652  17.569  0.00  0.00    +0.000 NA
ATOM      5  C   UNL     1       6.487   5.756  16.504  0.00  0.00    +0.000 A 
ENDROOT
BRANCH   3   6
ATOM      6  C   UNL     1       3.793   4.279  18.115  0.00  0.00    +0.000 A 
ATOM      7  C   UNL     1       2.463   4.680  17.957  0.00  0.00    +0.000 A 
ATOM      8  C   UNL     1       1.492   4.235  18.869  0.00  0.00    +0.000 A 
ATOM      9  C   UNL     1       1.837   3.406  19.949  0.00  0.00    +0.000 A 
ATOM     10  C   UNL     1       3.169   3.013  20.098  0.00  0.00    +0.000 A 
ATOM     11  C   UNL     1       4.138   3.444  19.191  0.00  0.00    +0.000 A 
BRANCH   9  12
ATOM     12  C   UNL     1       0.800   2.931  20.938  0.00  0.00    +0.000 C 
ATOM     13  C   UNL     1       1.417   2.402  22.225  0.00  0.00    +0.000 C 
ENDBRANCH   9  12
ENDBRANCH   3   6
BRANCH   1  15
ATOM     14  N   UNL     1       6.252   3.563  13.477  0.00  0.00    +0.000 N 
ATOM     15  C   UNL     1       6.689   4.659  14.190  0.00  0.00    +0.000 C 
ATOM     16  O   UNL     1       7.530   5.449  13.764  0.00  0.00    +0.000 OA
ATOM     17  H   UNL     1       5.430   3.101  13.854  0.00  0.00    +0.000 HD
BRANCH  14  18
ATOM     18  C   UNL     1       6.663   3.328  12.105  0.00  0.00    +0.000 C 
BRANCH  18  19
ATOM     19  C   UNL     1       5.560   2.714  11.242  0.00  0.00    +0.000 C 
BRANCH  19  21
ATOM     20  C   UNL     1       3.363   3.487  10.270  0.00  0.00    +0.000 C 
ATOM     21  C   UNL     1       4.172   3.286  11.543  0.00  0.00    +0.000 C 
ENDBRANCH  19  21
ENDBRANCH  18  19
ENDBRANCH  14  18
ENDBRANCH   1  15
BRANCH   5  22
ATOM     22  C   UNL     1       7.626   6.715  16.491  0.00  0.00    +0.000 C 
BRANCH  22  23
ATOM     23  O   UNL     1       7.330   7.939  17.154  0.00  0.00    +0.000 OA
ATOM     24  H   UNL     1       7.281   8.620  16.450  0.00  0.00    +0.000 HD
ENDBRANCH  22  23
ENDBRANCH   5  22
TORSDOF 8
ENDMDL
MODEL 5
REMARK VINA RESULT:      -6.7      3.492      7.895
REMARK  Name = 
REMARK  10 active torsions:
REMARK  status: ('A' for Active; 'I' for Inactive)
REMARK    1  A    between atoms: C_1  and  C_2
REMARK    2  A    between atoms: C_2  and  C_3
REMARK    3  A    between atoms: C_3  and  C_4
REMARK    4  A    between atoms: C_4  and  N_5
REMARK    5  A    between atoms: C_6  and  C_8
REMARK    6  A    between atoms: N_10  and  C_11
REMARK    7  A    between atoms: C_14  and  C_15
REMARK    8  A    between atoms: C_15  and  C_16
REMARK    9  A    between atoms: C_20  and  C_21
REMARK   10  A    between atoms: C_21  and  O_22
REMARK                            x       y       z     vdW  Elec       q    Type
REMARK                         _______ _______ _______ _____ _____    ______ ____
ROOT
ATOM      1  C   UNL     1       4.758   5.432  16.961  0.00  0.00    +0.000 A 
ATOM      2  N   UNL     1       4.428   6.712  17.252  0.00  0.00    +0.000 NA
ATOM      3  N   UNL     1       3.266   6.554  17.960  0.00  0.00    +0.000 N 
ATOM      4  N   UNL     1       2.837   5.276  18.114  0.00  0.00    +0.000 NA
ATOM      5  C   UNL     1       3.773   4.562  17.488  0.00  0.00    +0.000 A 
ENDROOT
BRANCH   3   6
ATOM      6  C   UNL     1       2.503   7.628  18.499  0.00  0.00    +0.000 A 
ATOM      7  C   UNL     1       2.022   7.606  19.812  0.00  0.00    +0.000 A 
ATOM      8  C   UNL     1       1.292   8.701  20.302  0.00  0.00    +0.000 A 
ATOM      9  C   UNL     1       1.020   9.813  19.488  0.00  0.00    +0.000 A 
ATOM     10  C   UNL     1       1.503   9.823  18.177  0.00  0.00    +0.000 A 
ATOM     11  C   UNL     1       2.237   8.743  17.687  0.00  0.00    +0.000 A 
BRANCH   9  12
ATOM     12  C   UNL     1       0.228  10.990  20.004  0.00  0.00    +0.000 C 
ATOM     13  C   UNL     1      -1.200  11.011  19.479  0.00  0.00    +0.000 C 
ENDBRANCH   9  12
ENDBRANCH   3   6
BRANCH   1  15
ATOM     14  N   UNL     1       5.719   4.588  14.922  0.00  0.00    +0.000 N 
ATOM     15  C   UNL     1       5.953   5.021  16.210  0.00  0.00    +0.000 C 
ATOM     16  O   UNL     1       7.075   5.077  16.709  0.00  0.00    +0.000 OA
ATOM     17  H   UNL     1       4.783   4.765  14.569  0.00  0.00    +0.000 HD
BRANCH  14  18
ATOM     18  C   UNL     1       6.804   4.281  14.008  0.00  0.00    +0.000 C 
BRANCH  18  19
ATOM     19  C   UNL     1       6.323   3.730  12.665  0.00  0.00    +0.000 C 
BRANCH  19  21
ATOM     20  C   UNL     1       4.359   3.068  11.225  0.00  0.00    +0.000 C 
ATOM     21  C   UNL     1       4.806   3.531  12.604  0.00  0.00    +0.000 C 
ENDBRANCH  19  21
ENDBRANCH  18  19
ENDBRANCH  14  18
ENDBRANCH   1  15
BRANCH   5  22
ATOM     22  C   UNL     1       3.672   3.078  17.403  0.00  0.00    +0.000 C 
BRANCH  22  23
ATOM     23  O   UNL     1       4.583   2.408  18.266  0.00  0.00    +0.000 OA
ATOM     24  H   UNL     1       4.083   1.659  18.655  0.00  0.00    +0.000 HD
ENDBRANCH  22  23
ENDBRANCH   5  22
TORSDOF 8
ENDMDL
MODEL 6
REMARK VINA RESULT:      -6.6      3.650      8.073
REMARK  Name = 
REMARK  10 active torsions:
REMARK  status: ('A' for Active; 'I' for Inactive)
REMARK    1  A    between atoms: C_1  and  C_2
REMARK    2  A    between atoms: C_2  and  C_3
REMARK    3  A    between atoms: C_3  and  C_4
REMARK    4  A    between atoms: C_4  and  N_5
REMARK    5  A    between atoms: C_6  and  C_8
REMARK    6  A    between atoms: N_10  and  C_11
REMARK    7  A    between atoms: C_14  and  C_15
REMARK    8  A    between atoms: C_15  and  C_16
REMARK    9  A    between atoms: C_20  and  C_21
REMARK   10  A    between atoms: C_21  and  O_22
REMARK                            x       y       z     vdW  Elec       q    Type
REMARK                         _______ _______ _______ _____ _____    ______ ____
ROOT
ATOM      1  C   UNL     1       4.816   5.255  17.665  0.00  0.00    +0.000 A 
ATOM      2  N   UNL     1       4.207   6.454  17.516  0.00  0.00    +0.000 NA
ATOM      3  N   UNL     1       3.336   6.466  18.574  0.00  0.00    +0.000 N 
ATOM      4  N   UNL     1       3.343   5.360  19.358  0.00  0.00    +0.000 NA
ATOM      5  C   UNL     1       4.274   4.591  18.792  0.00  0.00    +0.000 A 
ENDROOT
BRANCH   3   6
ATOM      6  C   UNL     1       2.441   7.535  18.865  0.00  0.00    +0.000 A 
ATOM      7  C   UNL     1       1.906   7.723  20.142  0.00  0.00    +0.000 A 
ATOM      8  C   UNL     1       1.043   8.806  20.380  0.00  0.00    +0.000 A 
ATOM      9  C   UNL     1       0.695   9.695  19.350  0.00  0.00    +0.000 A 
ATOM     10  C   UNL     1       1.234   9.496  18.077  0.00  0.00    +0.000 A 
ATOM     11  C   UNL     1       2.098   8.428  17.836  0.00  0.00    +0.000 A 
BRANCH   9  12
ATOM     12  C   UNL     1      -0.239  10.855  19.596  0.00  0.00    +0.000 C 
ATOM     13  C   UNL     1       0.364  11.908  20.516  0.00  0.00    +0.000 C 
ENDBRANCH   9  12
ENDBRANCH   3   6
BRANCH   1  15
ATOM     14  N   UNL     1       5.457   4.367  15.522  0.00  0.00    +0.000 N 
ATOM     15  C   UNL     1       5.871   4.733  16.786  0.00  0.00    +0.000 C 
ATOM     16  O   UNL     1       7.038   4.645  17.165  0.00  0.00    +0.000 OA
ATOM     17  H   UNL     1       4.517   4.660  15.272  0.00  0.00    +0.000 HD
BRANCH  14  18
ATOM     18  C   UNL     1       6.399   3.966  14.494  0.00  0.00    +0.000 C 
BRANCH  18  19
ATOM     19  C   UNL     1       5.737   3.693  13.143  0.00  0.00    +0.000 C 
BRANCH  19  21
ATOM     20  C   UNL     1       6.693   2.138  11.401  0.00  0.00    +0.000 C 
ATOM     21  C   UNL     1       6.742   3.536  11.999  0.00  0.00    +0.000 C 
ENDBRANCH  19  21
ENDBRANCH  18  19
ENDBRANCH  14  18
ENDBRANCH   1  15
BRANCH   5  22
ATOM     22  C   UNL     1       4.591   3.243  19.343  0.00  0.00    +0.000 C 
BRANCH  22  23
ATOM     23  O   UNL     1       4.204   2.183  18.476  0.00  0.00    +0.000 OA
ATOM     24  H   UNL     1       4.070   1.401  19.052  0.00  0.00    +0.000 HD
ENDBRANCH  22  23
ENDBRANCH   5  22
TORSDOF 8
ENDMDL
MODEL 7
REMARK VINA RESULT:      -6.6      0.648      1.219
REMARK  Name = 
REMARK  10 active torsions:
REMARK  status: ('A' for Active; 'I' for Inactive)
REMARK    1  A    between atoms: C_1  and  C_2
REMARK    2  A    between atoms: C_2  and  C_3
REMARK    3  A    between atoms: C_3  and  C_4
REMARK    4  A    between atoms: C_4  and  N_5
REMARK    5  A    between atoms: C_6  and  C_8
REMARK    6  A    between atoms: N_10  and  C_11
REMARK    7  A    between atoms: C_14  and  C_15
REMARK    8  A    between atoms: C_15  and  C_16
REMARK    9  A    between atoms: C_20  and  C_21
REMARK   10  A    between atoms: C_21  and  O_22
REMARK                            x       y       z     vdW  Elec       q    Type
REMARK                         _______ _______ _______ _____ _____    ______ ____
ROOT
ATOM      1  C   UNL     1       1.418   9.133  18.897  0.00  0.00    +0.000 A 
ATOM      2  N   UNL     1       2.093   8.571  17.868  0.00  0.00    +0.000 NA
ATOM      3  N   UNL     1       2.613   7.444  18.448  0.00  0.00    +0.000 N 
ATOM      4  N   UNL     1       2.329   7.272  19.763  0.00  0.00    +0.000 NA
ATOM      5  C   UNL     1       1.574   8.332  20.054  0.00  0.00    +0.000 A 
ENDROOT
BRANCH   3   6
ATOM      6  C   UNL     1       3.427   6.494  17.768  0.00  0.00    +0.000 A 
ATOM      7  C   UNL     1       3.148   5.124  17.803  0.00  0.00    +0.000 A 
ATOM      8  C   UNL     1       3.971   4.231  17.097  0.00  0.00    +0.000 A 
ATOM      9  C   UNL     1       5.082   4.689  16.370  0.00  0.00    +0.000 A 
ATOM     10  C   UNL     1       5.352   6.060  16.344  0.00  0.00    +0.000 A 
ATOM     11  C   UNL     1       4.534   6.953  17.035  0.00  0.00    +0.000 A 
BRANCH   9  12
ATOM     12  C   UNL     1       5.976   3.735  15.617  0.00  0.00    +0.000 C 
ATOM     13  C   UNL     1       6.069   4.064  14.134  0.00  0.00    +0.000 C 
ENDBRANCH   9  12
ENDBRANCH   3   6
BRANCH   1  15
ATOM     14  N   UNL     1      -0.608  10.264  18.257  0.00  0.00    +0.000 N 
ATOM     15  C   UNL     1       0.648  10.382  18.815  0.00  0.00    +0.000 C 
ATOM     16  O   UNL     1       1.103  11.446  19.232  0.00  0.00    +0.000 OA
ATOM     17  H   UNL     1      -0.937   9.312  18.127  0.00  0.00    +0.000 HD
BRANCH  14  18
ATOM     18  C   UNL     1      -1.543  11.373  18.234  0.00  0.00    +0.000 C 
BRANCH  18  19
ATOM     19  C   UNL     1      -2.846  11.048  17.502  0.00  0.00    +0.000 C 
BRANCH  19  21
ATOM     20  C   UNL     1      -3.037   9.802  15.316  0.00  0.00    +0.000 C 
ATOM     21  C   UNL     1      -2.720  11.134  15.979  0.00  0.00    +0.000 C 
ENDBRANCH  19  21
ENDBRANCH  18  19
ENDBRANCH  14  18
ENDBRANCH   1  15
BRANCH   5  22
ATOM     22  C   UNL     1       1.054   8.544  21.433  0.00  0.00    +0.000 C 
BRANCH  22  23
ATOM     23  O   UNL     1      -0.359   8.392  21.524  0.00  0.00    +0.000 OA
ATOM     24  H   UNL     1      -0.739   9.255  21.258  0.00  0.00    +0.000 HD
ENDBRANCH  22  23
ENDBRANCH   5  22
TORSDOF 8
ENDMDL
MODEL 8
REMARK VINA RESULT:      -6.6      4.012      7.875
REMARK  Name = 
REMARK  10 active torsions:
REMARK  status: ('A' for Active; 'I' for Inactive)
REMARK    1  A    between atoms: C_1  and  C_2
REMARK    2  A    between atoms: C_2  and  C_3
REMARK    3  A    between atoms: C_3  and  C_4
REMARK    4  A    between atoms: C_4  and  N_5
REMARK    5  A    between atoms: C_6  and  C_8
REMARK    6  A    between atoms: N_10  and  C_11
REMARK    7  A    between atoms: C_14  and  C_15
REMARK    8  A    between atoms: C_15  and  C_16
REMARK    9  A    between atoms: C_20  and  C_21
REMARK   10  A    between atoms: C_21  and  O_22
REMARK                            x       y       z     vdW  Elec       q    Type
REMARK                         _______ _______ _______ _____ _____    ______ ____
ROOT
ATOM      1  C   UNL     1       5.810   5.493  16.159  0.00  0.00    +0.000 A 
ATOM      2  N   UNL     1       4.667   6.213  16.230  0.00  0.00    +0.000 NA
ATOM      3  N   UNL     1       4.569   6.462  17.573  0.00  0.00    +0.000 N 
ATOM      4  N   UNL     1       5.552   5.937  18.345  0.00  0.00    +0.000 NA
ATOM      5  C   UNL     1       6.340   5.324  17.461  0.00  0.00    +0.000 A 
ENDROOT
BRANCH   3   6
ATOM      6  C   UNL     1       3.510   7.199  18.177  0.00  0.00    +0.000 A 
ATOM      7  C   UNL     1       2.963   8.335  17.574  0.00  0.00    +0.000 A 
ATOM      8  C   UNL     1       1.905   9.013  18.203  0.00  0.00    +0.000 A 
ATOM      9  C   UNL     1       1.399   8.578  19.439  0.00  0.00    +0.000 A 
ATOM     10  C   UNL     1       1.956   7.443  20.034  0.00  0.00    +0.000 A 
ATOM     11  C   UNL     1       3.000   6.760  19.410  0.00  0.00    +0.000 A 
BRANCH   9  12
ATOM     12  C   UNL     1       0.269   9.306  20.126  0.00  0.00    +0.000 C 
ATOM     13  C   UNL     1      -0.066   8.717  21.488  0.00  0.00    +0.000 C 
ENDBRANCH   9  12
ENDBRANCH   3   6
BRANCH   1  15
ATOM     14  N   UNL     1       5.662   3.992  14.283  0.00  0.00    +0.000 N 
ATOM     15  C   UNL     1       6.399   4.969  14.918  0.00  0.00    +0.000 C 
ATOM     16  O   UNL     1       7.470   5.393  14.487  0.00  0.00    +0.000 OA
ATOM     17  H   UNL     1       4.718   3.865  14.634  0.00  0.00    +0.000 HD
BRANCH  14  18
ATOM     18  C   UNL     1       6.037   3.475  12.980  0.00  0.00    +0.000 C 
BRANCH  18  19
ATOM     19  C   UNL     1       5.163   4.012  11.845  0.00  0.00    +0.000 C 
BRANCH  19  21
ATOM     20  C   UNL     1       3.234   3.580  10.277  0.00  0.00    +0.000 C 
ATOM     21  C   UNL     1       4.192   2.968  11.288  0.00  0.00    +0.000 C 
ENDBRANCH  19  21
ENDBRANCH  18  19
ENDBRANCH  14  18
ENDBRANCH   1  15
BRANCH   5  22
ATOM     22  C   UNL     1       7.555   4.585  17.904  0.00  0.00    +0.000 C 
BRANCH  22  23
ATOM     23  O   UNL     1       8.084   5.070  19.133  0.00  0.00    +0.000 OA
ATOM     24  H   UNL     1       8.202   6.036  19.012  0.00  0.00    +0.000 HD
ENDBRANCH  22  23
ENDBRANCH   5  22
TORSDOF 8
ENDMDL
MODEL 9
REMARK VINA RESULT:      -6.6      3.430      7.809
REMARK  Name = 
REMARK  10 active torsions:
REMARK  status: ('A' for Active; 'I' for Inactive)
REMARK    1  A    between atoms: C_1  and  C_2
REMARK    2  A    between atoms: C_2  and  C_3
REMARK    3  A    between atoms: C_3  and  C_4
REMARK    4  A    between atoms: C_4  and  N_5
REMARK    5  A    between atoms: C_6  and  C_8
REMARK    6  A    between atoms: N_10  and  C_11
REMARK    7  A    between atoms: C_14  and  C_15
REMARK    8  A    between atoms: C_15  and  C_16
REMARK    9  A    between atoms: C_20  and  C_21
REMARK   10  A    between atoms: C_21  and  O_22
REMARK                            x       y       z     vdW  Elec       q    Type
REMARK                         _______ _______ _______ _____ _____    ______ ____
ROOT
ATOM      1  C   UNL     1       3.566   5.205  19.217  0.00  0.00    +0.000 A 
ATOM      2  N   UNL     1       3.258   6.512  19.055  0.00  0.00    +0.000 NA
ATOM      3  N   UNL     1       2.266   6.689  19.983  0.00  0.00    +0.000 N 
ATOM      4  N   UNL     1       1.919   5.588  20.695  0.00  0.00    +0.000 NA
ATOM      5  C   UNL     1       2.735   4.647  20.219  0.00  0.00    +0.000 A 
ENDROOT
BRANCH   3   6
ATOM      6  C   UNL     1       1.589   7.922  20.209  0.00  0.00    +0.000 A 
ATOM      7  C   UNL     1       1.460   8.888  19.207  0.00  0.00    +0.000 A 
ATOM      8  C   UNL     1       0.764  10.078  19.477  0.00  0.00    +0.000 A 
ATOM      9  C   UNL     1       0.209  10.322  20.744  0.00  0.00    +0.000 A 
ATOM     10  C   UNL     1       0.346   9.350  21.738  0.00  0.00    +0.000 A 
ATOM     11  C   UNL     1       1.028   8.162  21.474  0.00  0.00    +0.000 A 
BRANCH   9  12
ATOM     12  C   UNL     1      -0.532  11.602  21.044  0.00  0.00    +0.000 C 
ATOM     13  C   UNL     1      -0.862  11.756  22.522  0.00  0.00    +0.000 C 
ENDBRANCH   9  12
ENDBRANCH   3   6
BRANCH   1  15
ATOM     14  N   UNL     1       4.411   4.441  17.097  0.00  0.00    +0.000 N 
ATOM     15  C   UNL     1       4.601   4.484  18.462  0.00  0.00    +0.000 C 
ATOM     16  O   UNL     1       5.567   3.972  19.025  0.00  0.00    +0.000 OA
ATOM     17  H   UNL     1       3.684   5.055  16.741  0.00  0.00    +0.000 HD
BRANCH  14  18
ATOM     18  C   UNL     1       5.412   3.891  16.201  0.00  0.00    +0.000 C 
BRANCH  18  19
ATOM     19  C   UNL     1       5.354   4.487  14.794  0.00  0.00    +0.000 C 
BRANCH  19  21
ATOM     20  C   UNL     1       5.959   3.503  12.551  0.00  0.00    +0.000 C 
ATOM     21  C   UNL     1       6.487   4.002  13.887  0.00  0.00    +0.000 C 
ENDBRANCH  19  21
ENDBRANCH  18  19
ENDBRANCH  14  18
ENDBRANCH   1  15
BRANCH   5  22
ATOM     22  C   UNL     1       2.669   3.249  20.729  0.00  0.00    +0.000 C 
BRANCH  22  23
ATOM     23  O   UNL     1       2.258   3.172  22.090  0.00  0.00    +0.000 OA
ATOM     24  H   UNL     1       3.083   3.129  22.617  0.00  0.00    +0.000 HD
ENDBRANCH  22  23
ENDBRANCH   5  22
TORSDOF 8
ENDMDL
