MODEL 1
REMARK VINA RESULT:      -8.1      0.000      0.000
REMARK  Name = 
REMARK  13 active torsions:
REMARK  status: ('A' for Active; 'I' for Inactive)
REMARK    1  A    between atoms: C_1  and  O_2
REMARK    2  A    between atoms: O_2  and  C_3
REMARK    3  A    between atoms: C_6  and  C_7
REMARK    4  A    between atoms: C_8  and  C_9
REMARK    5  A    between atoms: N_11  and  C_12
REMARK    6  A    between atoms: C_12  and  C_13
REMARK    7  A    between atoms: C_18  and  N_19
REMARK    8  A    between atoms: N_19  and  C_20
REMARK    9  A    between atoms: N_19  and  C_21
REMARK   10  A    between atoms: C_21  and  C_22
REMARK   11  A    between atoms: C_22  and  N_23
REMARK   12  A    between atoms: C_32  and  O_33
REMARK   13  A    between atoms: O_33  and  C_34
REMARK                            x       y       z     vdW  Elec       q    Type
REMARK                         _______ _______ _______ _____ _____    ______ ____
ROOT
ATOM      1  C   UNL     1       1.635   8.091  20.019  0.00  0.00    +0.000 C 
ATOM      2  O   UNL     1       1.494   8.933  19.119  0.00  0.00    +0.000 OA
ATOM      3  N   UNL     1       2.102   6.815  19.765  0.00  0.00    +0.000 N 
ATOM      4  C   UNL     1       2.707   6.519  18.465  0.00  0.00    +0.000 C 
ATOM      5  C   UNL     1       2.213   5.198  17.901  0.00  0.00    +0.000 C 
ATOM      6  C   UNL     1       2.242   4.032  18.911  0.00  0.00    +0.000 C 
ATOM      7  C   UNL     1       1.504   4.480  20.182  0.00  0.00    +0.000 C 
ATOM      8  C   UNL     1       2.091   5.747  20.769  0.00  0.00    +0.000 C 
ENDROOT
BRANCH   6   9
ATOM      9  N   UNL     1       3.554   3.363  19.108  0.00  0.00    +0.000 NA
ATOM     10  C   UNL     1       3.604   1.906  19.038  0.00  0.00    +0.000 C 
BRANCH   9  11
ATOM     11  C   UNL     1       4.611   3.886  18.207  0.00  0.00    +0.000 C 
BRANCH  11  12
ATOM     12  C   UNL     1       5.641   4.785  18.914  0.00  0.00    +0.000 C 
BRANCH  12  13
ATOM     13  N   UNL     1       7.039   4.574  18.485  0.00  0.00    +0.000 NA
ATOM     14  C   UNL     1       7.949   5.687  18.836  0.00  0.00    +0.000 C 
ATOM     15  C   UNL     1       7.647   6.985  18.072  0.00  0.00    +0.000 C 
ATOM     16  O   UNL     1       7.715   6.773  16.655  0.00  0.00    +0.000 OA
ATOM     17  C   UNL     1       6.825   5.727  16.243  0.00  0.00    +0.000 C 
ATOM     18  C   UNL     1       7.086   4.417  17.010  0.00  0.00    +0.000 C 
ENDBRANCH  12  13
ENDBRANCH  11  12
ENDBRANCH   9  11
ENDBRANCH   6   9
BRANCH   1  19
ATOM     19  C   UNL     1       1.201   8.427  21.439  0.00  0.00    +0.000 C 
BRANCH  19  22
ATOM     20  C   UNL     1      -0.263  10.041  22.565  0.00  0.00    +0.000 C 
ATOM     21  O   UNL     1       0.217   9.806  23.674  0.00  0.00    +0.000 OA
ATOM     22  N   UNL     1       0.119   9.398  21.425  0.00  0.00    +0.000 N 
ATOM     23  H   UNL     1      -0.265   9.654  20.523  0.00  0.00    +0.000 HD
BRANCH  20  25
ATOM     24  C   UNL     1      -1.720  11.826  23.367  0.00  0.00    +0.000 C 
ATOM     25  C   UNL     1      -1.327  11.046  22.348  0.00  0.00    +0.000 C 
BRANCH  24  29
ATOM     26  C   UNL     1      -4.944  14.654  23.208  0.00  0.00    +0.000 A 
ATOM     27  C   UNL     1      -4.833  13.614  22.268  0.00  0.00    +0.000 A 
ATOM     28  C   UNL     1      -3.777  12.702  22.324  0.00  0.00    +0.000 A 
ATOM     29  C   UNL     1      -2.767  12.850  23.273  0.00  0.00    +0.000 A 
ATOM     30  C   UNL     1      -2.833  13.941  24.145  0.00  0.00    +0.000 A 
ATOM     31  C   UNL     1      -3.899  14.856  24.121  0.00  0.00    +0.000 A 
BRANCH  26  33
ATOM     32  C   UNL     1      -6.537  15.859  21.948  0.00  0.00    +0.000 C 
ATOM     33  O   UNL     1      -6.052  15.458  23.234  0.00  0.00    +0.000 OA
ENDBRANCH  26  33
BRANCH  31  34
ATOM     34  O   UNL     1      -3.741  15.830  25.067  0.00  0.00    +0.000 OA
ATOM     35  C   UNL     1      -3.800  17.195  24.695  0.00  0.00    +0.000 C 
ENDBRANCH  31  34
ENDBRANCH  24  29
ENDBRANCH  20  25
ENDBRANCH  19  22
ENDBRANCH   1  19
TORSDOF 10
ENDMDL
MODEL 2
REMARK VINA RESULT:      -7.7      1.095      1.878
REMARK  Name = 
REMARK  13 active torsions:
REMARK  status: ('A' for Active; 'I' for Inactive)
REMARK    1  A    between atoms: C_1  and  O_2
REMARK    2  A    between atoms: O_2  and  C_3
REMARK    3  A    between atoms: C_6  and  C_7
REMARK    4  A    between atoms: C_8  and  C_9
REMARK    5  A    between atoms: N_11  and  C_12
REMARK    6  A    between atoms: C_12  and  C_13
REMARK    7  A    between atoms: C_18  and  N_19
REMARK    8  A    between atoms: N_19  and  C_20
REMARK    9  A    between atoms: N_19  and  C_21
REMARK   10  A    between atoms: C_21  and  C_22
REMARK   11  A    between atoms: C_22  and  N_23
REMARK   12  A    between atoms: C_32  and  O_33
REMARK   13  A    between atoms: O_33  and  C_34
REMARK                            x       y       z     vdW  Elec       q    Type
REMARK                         _______ _______ _______ _____ _____    ______ ____
ROOT
ATOM      1  C   UNL     1       1.635   8.173  20.167  0.00  0.00    +0.000 C 
ATOM      2  O   UNL     1       1.323   9.019  19.315  0.00  0.00    +0.000 OA
ATOM      3  N   UNL     1       2.064   6.905  19.822  0.00  0.00    +0.000 N 
ATOM      4  C   UNL     1       2.429   6.626  18.432  0.00  0.00    +0.000 C 
ATOM      5  C   UNL     1       1.857   5.303  17.954  0.00  0.00    +0.000 C 
ATOM      6  C   UNL     1       2.083   4.130  18.931  0.00  0.00    +0.000 C 
ATOM      7  C   UNL     1       1.581   4.559  20.319  0.00  0.00    +0.000 C 
ATOM      8  C   UNL     1       2.248   5.831  20.802  0.00  0.00    +0.000 C 
ENDROOT
BRANCH   6   9
ATOM      9  N   UNL     1       3.417   3.479  18.883  0.00  0.00    +0.000 NA
ATOM     10  C   UNL     1       3.672   2.356  19.781  0.00  0.00    +0.000 C 
BRANCH   9  11
ATOM     11  C   UNL     1       3.802   3.047  17.516  0.00  0.00    +0.000 C 
BRANCH  11  12
ATOM     12  C   UNL     1       4.792   3.997  16.820  0.00  0.00    +0.000 C 
BRANCH  12  13
ATOM     13  N   UNL     1       5.958   4.383  17.641  0.00  0.00    +0.000 NA
ATOM     14  C   UNL     1       5.867   5.746  18.209  0.00  0.00    +0.000 C 
ATOM     15  C   UNL     1       5.935   6.854  17.147  0.00  0.00    +0.000 C 
ATOM     16  O   UNL     1       7.145   6.759  16.384  0.00  0.00    +0.000 OA
ATOM     17  C   UNL     1       7.275   5.468  15.774  0.00  0.00    +0.000 C 
ATOM     18  C   UNL     1       7.187   4.332  16.811  0.00  0.00    +0.000 C 
ENDBRANCH  12  13
ENDBRANCH  11  12
ENDBRANCH   9  11
ENDBRANCH   6   9
BRANCH   1  19
ATOM     19  C   UNL     1       1.460   8.494  21.645  0.00  0.00    +0.000 C 
BRANCH  19  22
ATOM     20  C   UNL     1      -0.066   9.756  23.093  0.00  0.00    +0.000 C 
ATOM     21  O   UNL     1       0.595   9.526  24.105  0.00  0.00    +0.000 OA
ATOM     22  N   UNL     1       0.249   9.269  21.858  0.00  0.00    +0.000 N 
ATOM     23  H   UNL     1      -0.293   9.521  21.041  0.00  0.00    +0.000 HD
BRANCH  20  25
ATOM     24  C   UNL     1      -1.211  11.897  22.856  0.00  0.00    +0.000 C 
ATOM     25  C   UNL     1      -1.294  10.582  23.107  0.00  0.00    +0.000 C 
BRANCH  24  29
ATOM     26  C   UNL     1      -4.405  14.760  22.725  0.00  0.00    +0.000 A 
ATOM     27  C   UNL     1      -3.428  14.796  23.734  0.00  0.00    +0.000 A 
ATOM     28  C   UNL     1      -2.395  13.857  23.773  0.00  0.00    +0.000 A 
ATOM     29  C   UNL     1      -2.356  12.815  22.848  0.00  0.00    +0.000 A 
ATOM     30  C   UNL     1      -3.383  12.729  21.903  0.00  0.00    +0.000 A 
ATOM     31  C   UNL     1      -4.417  13.678  21.833  0.00  0.00    +0.000 A 
BRANCH  26  33
ATOM     32  C   UNL     1      -4.921  16.874  21.807  0.00  0.00    +0.000 C 
ATOM     33  O   UNL     1      -5.331  15.762  22.610  0.00  0.00    +0.000 OA
ENDBRANCH  26  33
BRANCH  31  34
ATOM     34  O   UNL     1      -5.297  13.381  20.830  0.00  0.00    +0.000 OA
ATOM     35  C   UNL     1      -6.471  12.642  21.112  0.00  0.00    +0.000 C 
ENDBRANCH  31  34
ENDBRANCH  24  29
ENDBRANCH  20  25
ENDBRANCH  19  22
ENDBRANCH   1  19
TORSDOF 10
ENDMDL
MODEL 3
REMARK VINA RESULT:      -7.7      1.324      1.743
REMARK  Name = 
REMARK  13 active torsions:
REMARK  status: ('A' for Active; 'I' for Inactive)
REMARK    1  A    between atoms: C_1  and  O_2
REMARK    2  A    between atoms: O_2  and  C_3
REMARK    3  A    between atoms: C_6  and  C_7
REMARK    4  A    between atoms: C_8  and  C_9
REMARK    5  A    between atoms: N_11  and  C_12
REMARK    6  A    between atoms: C_12  and  C_13
REMARK    7  A    between atoms: C_18  and  N_19
REMARK    8  A    between atoms: N_19  and  C_20
REMARK    9  A    between atoms: N_19  and  C_21
REMARK   10  A    between atoms: C_21  and  C_22
REMARK   11  A    between atoms: C_22  and  N_23
REMARK   12  A    between atoms: C_32  and  O_33
REMARK   13  A    between atoms: O_33  and  C_34
REMARK                            x       y       z     vdW  Elec       q    Type
REMARK                         _______ _______ _______ _____ _____    ______ ____
ROOT
ATOM      1  C   UNL     1       1.571   8.191  20.098  0.00  0.00    +0.000 C 
ATOM      2  O   UNL     1       1.472   9.047  19.207  0.00  0.00    +0.000 OA
ATOM      3  N   UNL     1       2.009   6.906  19.839  0.00  0.00    +0.000 N 
ATOM      4  C   UNL     1       2.637   6.611  18.549  0.00  0.00    +0.000 C 
ATOM      5  C   UNL     1       2.120   5.311  17.956  0.00  0.00    +0.000 C 
ATOM      6  C   UNL     1       2.096   4.131  18.951  0.00  0.00    +0.000 C 
ATOM      7  C   UNL     1       1.342   4.583  20.211  0.00  0.00    +0.000 C 
ATOM      8  C   UNL     1       1.948   5.826  20.828  0.00  0.00    +0.000 C 
ENDROOT
BRANCH   6   9
ATOM      9  N   UNL     1       3.386   3.426  19.169  0.00  0.00    +0.000 NA
ATOM     10  C   UNL     1       3.507   2.550  20.330  0.00  0.00    +0.000 C 
BRANCH   9  11
ATOM     11  C   UNL     1       3.830   2.652  17.983  0.00  0.00    +0.000 C 
BRANCH  11  12
ATOM     12  C   UNL     1       4.341   3.527  16.825  0.00  0.00    +0.000 C 
BRANCH  12  13
ATOM     13  N   UNL     1       5.811   3.646  16.745  0.00  0.00    +0.000 NA
ATOM     14  C   UNL     1       6.374   4.709  17.607  0.00  0.00    +0.000 C 
ATOM     15  C   UNL     1       5.985   6.127  17.160  0.00  0.00    +0.000 C 
ATOM     16  O   UNL     1       6.400   6.370  15.809  0.00  0.00    +0.000 OA
ATOM     17  C   UNL     1       5.855   5.392  14.914  0.00  0.00    +0.000 C 
ATOM     18  C   UNL     1       6.207   3.956  15.349  0.00  0.00    +0.000 C 
ENDBRANCH  12  13
ENDBRANCH  11  12
ENDBRANCH   9  11
ENDBRANCH   6   9
BRANCH   1  19
ATOM     19  C   UNL     1       1.113   8.521  21.513  0.00  0.00    +0.000 C 
BRANCH  19  22
ATOM     20  C   UNL     1      -0.242  10.225  22.642  0.00  0.00    +0.000 C 
ATOM     21  O   UNL     1       0.166   9.907  23.759  0.00  0.00    +0.000 OA
ATOM     22  N   UNL     1       0.128   9.590  21.493  0.00  0.00    +0.000 N 
ATOM     23  H   UNL     1      -0.192   9.912  20.588  0.00  0.00    +0.000 HD
BRANCH  20  25
ATOM     24  C   UNL     1      -2.096  11.632  23.374  0.00  0.00    +0.000 C 
ATOM     25  C   UNL     1      -1.198  11.333  22.422  0.00  0.00    +0.000 C 
BRANCH  24  29
ATOM     26  C   UNL     1      -5.061  14.683  22.815  0.00  0.00    +0.000 A 
ATOM     27  C   UNL     1      -3.747  14.842  22.343  0.00  0.00    +0.000 A 
ATOM     28  C   UNL     1      -2.786  13.846  22.535  0.00  0.00    +0.000 A 
ATOM     29  C   UNL     1      -3.095  12.701  23.266  0.00  0.00    +0.000 A 
ATOM     30  C   UNL     1      -4.376  12.591  23.815  0.00  0.00    +0.000 A 
ATOM     31  C   UNL     1      -5.364  13.571  23.613  0.00  0.00    +0.000 A 
BRANCH  26  33
ATOM     32  C   UNL     1      -6.195  15.853  21.104  0.00  0.00    +0.000 C 
ATOM     33  O   UNL     1      -6.032  15.598  22.504  0.00  0.00    +0.000 OA
ENDBRANCH  26  33
BRANCH  31  34
ATOM     34  O   UNL     1      -6.530  13.239  24.245  0.00  0.00    +0.000 OA
ATOM     35  C   UNL     1      -7.570  12.602  23.525  0.00  0.00    +0.000 C 
ENDBRANCH  31  34
ENDBRANCH  24  29
ENDBRANCH  20  25
ENDBRANCH  19  22
ENDBRANCH   1  19
TORSDOF 10
ENDMDL
MODEL 4
REMARK VINA RESULT:      -7.7      1.275      1.593
REMARK  Name = 
REMARK  13 active torsions:
REMARK  status: ('A' for Active; 'I' for Inactive)
REMARK    1  A    between atoms: C_1  and  O_2
REMARK    2  A    between atoms: O_2  and  C_3
REMARK    3  A    between atoms: C_6  and  C_7
REMARK    4  A    between atoms: C_8  and  C_9
REMARK    5  A    between atoms: N_11  and  C_12
REMARK    6  A    between atoms: C_12  and  C_13
REMARK    7  A    between atoms: C_18  and  N_19
REMARK    8  A    between atoms: N_19  and  C_20
REMARK    9  A    between atoms: N_19  and  C_21
REMARK   10  A    between atoms: C_21  and  C_22
REMARK   11  A    between atoms: C_22  and  N_23
REMARK   12  A    between atoms: C_32  and  O_33
REMARK   13  A    between atoms: O_33  and  C_34
REMARK                            x       y       z     vdW  Elec       q    Type
REMARK                         _______ _______ _______ _____ _____    ______ ____
ROOT
ATOM      1  C   UNL     1       1.660   7.979  20.195  0.00  0.00    +0.000 C 
ATOM      2  O   UNL     1       1.538   8.876  19.348  0.00  0.00    +0.000 OA
ATOM      3  N   UNL     1       1.913   6.666  19.845  0.00  0.00    +0.000 N 
ATOM      4  C   UNL     1       2.321   6.357  18.473  0.00  0.00    +0.000 C 
ATOM      5  C   UNL     1       1.587   5.145  17.926  0.00  0.00    +0.000 C 
ATOM      6  C   UNL     1       1.566   3.936  18.885  0.00  0.00    +0.000 C 
ATOM      7  C   UNL     1       1.046   4.415  20.249  0.00  0.00    +0.000 C 
ATOM      8  C   UNL     1       1.866   5.560  20.806  0.00  0.00    +0.000 C 
ENDROOT
BRANCH   6   9
ATOM      9  N   UNL     1       2.786   3.088  18.903  0.00  0.00    +0.000 NA
ATOM     10  C   UNL     1       2.630   1.648  18.721  0.00  0.00    +0.000 C 
BRANCH   9  11
ATOM     11  C   UNL     1       3.823   3.544  17.944  0.00  0.00    +0.000 C 
BRANCH  11  12
ATOM     12  C   UNL     1       5.099   4.080  18.616  0.00  0.00    +0.000 C 
BRANCH  12  13
ATOM     13  N   UNL     1       5.628   5.328  18.028  0.00  0.00    +0.000 NA
ATOM     14  C   UNL     1       5.593   5.354  16.548  0.00  0.00    +0.000 C 
ATOM     15  C   UNL     1       6.553   4.346  15.898  0.00  0.00    +0.000 C 
ATOM     16  O   UNL     1       7.903   4.575  16.326  0.00  0.00    +0.000 OA
ATOM     17  C   UNL     1       8.011   4.525  17.755  0.00  0.00    +0.000 C 
ATOM     18  C   UNL     1       7.042   5.508  18.438  0.00  0.00    +0.000 C 
ENDBRANCH  12  13
ENDBRANCH  11  12
ENDBRANCH   9  11
ENDBRANCH   6   9
BRANCH   1  19
ATOM     19  C   UNL     1       1.440   8.299  21.668  0.00  0.00    +0.000 C 
BRANCH  19  22
ATOM     20  C   UNL     1      -0.002   9.733  23.039  0.00  0.00    +0.000 C 
ATOM     21  O   UNL     1       0.641   9.514  24.066  0.00  0.00    +0.000 OA
ATOM     22  N   UNL     1       0.281   9.162  21.833  0.00  0.00    +0.000 N 
ATOM     23  H   UNL     1      -0.241   9.405  21.001  0.00  0.00    +0.000 HD
BRANCH  20  25
ATOM     24  C   UNL     1      -1.000  11.934  22.711  0.00  0.00    +0.000 C 
ATOM     25  C   UNL     1      -1.174  10.636  23.003  0.00  0.00    +0.000 C 
BRANCH  24  29
ATOM     26  C   UNL     1      -4.190  14.804  22.796  0.00  0.00    +0.000 A 
ATOM     27  C   UNL     1      -4.446  13.422  22.821  0.00  0.00    +0.000 A 
ATOM     28  C   UNL     1      -3.402  12.495  22.786  0.00  0.00    +0.000 A 
ATOM     29  C   UNL     1      -2.083  12.924  22.652  0.00  0.00    +0.000 A 
ATOM     30  C   UNL     1      -1.842  14.296  22.532  0.00  0.00    +0.000 A 
ATOM     31  C   UNL     1      -2.876  15.246  22.589  0.00  0.00    +0.000 A 
BRANCH  26  33
ATOM     32  C   UNL     1      -5.291  16.274  24.282  0.00  0.00    +0.000 C 
ATOM     33  O   UNL     1      -5.205  15.706  22.970  0.00  0.00    +0.000 OA
ENDBRANCH  26  33
BRANCH  31  34
ATOM     34  O   UNL     1      -2.393  16.517  22.451  0.00  0.00    +0.000 OA
ATOM     35  C   UNL     1      -1.033  16.793  22.732  0.00  0.00    +0.000 C 
ENDBRANCH  31  34
ENDBRANCH  24  29
ENDBRANCH  20  25
ENDBRANCH  19  22
ENDBRANCH   1  19
TORSDOF 10
ENDMDL
MODEL 5
REMARK VINA RESULT:      -7.6      1.298      1.901
REMARK  Name = 
REMARK  13 active torsions:
REMARK  status: ('A' for Active; 'I' for Inactive)
REMARK    1  A    between atoms: C_1  and  O_2
REMARK    2  A    between atoms: O_2  and  C_3
REMARK    3  A    between atoms: C_6  and  C_7
REMARK    4  A    between atoms: C_8  and  C_9
REMARK    5  A    between atoms: N_11  and  C_12
REMARK    6  A    between atoms: C_12  and  C_13
REMARK    7  A    between atoms: C_18  and  N_19
REMARK    8  A    between atoms: N_19  and  C_20
REMARK    9  A    between atoms: N_19  and  C_21
REMARK   10  A    between atoms: C_21  and  C_22
REMARK   11  A    between atoms: C_22  and  N_23
REMARK   12  A    between atoms: C_32  and  O_33
REMARK   13  A    between atoms: O_33  and  C_34
REMARK                            x       y       z     vdW  Elec       q    Type
REMARK                         _______ _______ _______ _____ _____    ______ ____
ROOT
ATOM      1  C   UNL     1       1.740   7.959  19.990  0.00  0.00    +0.000 C 
ATOM      2  O   UNL     1       1.597   8.784  19.075  0.00  0.00    +0.000 OA
ATOM      3  N   UNL     1       2.052   6.635  19.743  0.00  0.00    +0.000 N 
ATOM      4  C   UNL     1       2.498   6.241  18.405  0.00  0.00    +0.000 C 
ATOM      5  C   UNL     1       1.823   4.962  17.940  0.00  0.00    +0.000 C 
ATOM      6  C   UNL     1       1.833   3.828  18.987  0.00  0.00    +0.000 C 
ATOM      7  C   UNL     1       1.269   4.386  20.302  0.00  0.00    +0.000 C 
ATOM      8  C   UNL     1       2.032   5.603  20.784  0.00  0.00    +0.000 C 
ENDROOT
BRANCH   6   9
ATOM      9  N   UNL     1       3.086   3.036  19.087  0.00  0.00    +0.000 NA
ATOM     10  C   UNL     1       3.386   2.080  18.025  0.00  0.00    +0.000 C 
BRANCH   9  11
ATOM     11  C   UNL     1       4.292   3.879  19.275  0.00  0.00    +0.000 C 
BRANCH  11  12
ATOM     12  C   UNL     1       5.251   3.871  18.072  0.00  0.00    +0.000 C 
BRANCH  12  13
ATOM     13  N   UNL     1       6.552   4.527  18.316  0.00  0.00    +0.000 NA
ATOM     14  C   UNL     1       6.449   5.977  18.593  0.00  0.00    +0.000 C 
ATOM     15  C   UNL     1       5.981   6.797  17.382  0.00  0.00    +0.000 C 
ATOM     16  O   UNL     1       6.860   6.609  16.265  0.00  0.00    +0.000 OA
ATOM     17  C   UNL     1       6.973   5.222  15.920  0.00  0.00    +0.000 C 
ATOM     18  C   UNL     1       7.418   4.367  17.122  0.00  0.00    +0.000 C 
ENDBRANCH  12  13
ENDBRANCH  11  12
ENDBRANCH   9  11
ENDBRANCH   6   9
BRANCH   1  19
ATOM     19  C   UNL     1       1.480   8.378  21.430  0.00  0.00    +0.000 C 
BRANCH  19  22
ATOM     20  C   UNL     1       0.228  10.480  21.611  0.00  0.00    +0.000 C 
ATOM     21  O   UNL     1       1.250  11.162  21.678  0.00  0.00    +0.000 OA
ATOM     22  N   UNL     1       0.232   9.118  21.527  0.00  0.00    +0.000 N 
ATOM     23  H   UNL     1      -0.629   8.595  21.425  0.00  0.00    +0.000 HD
BRANCH  20  25
ATOM     24  C   UNL     1      -1.614  11.584  22.768  0.00  0.00    +0.000 C 
ATOM     25  C   UNL     1      -1.131  11.066  21.629  0.00  0.00    +0.000 C 
BRANCH  24  29
ATOM     26  C   UNL     1      -5.394  13.553  23.271  0.00  0.00    +0.000 A 
ATOM     27  C   UNL     1      -4.736  12.942  24.352  0.00  0.00    +0.000 A 
ATOM     28  C   UNL     1      -3.509  12.298  24.178  0.00  0.00    +0.000 A 
ATOM     29  C   UNL     1      -2.946  12.185  22.908  0.00  0.00    +0.000 A 
ATOM     30  C   UNL     1      -3.651  12.712  21.822  0.00  0.00    +0.000 A 
ATOM     31  C   UNL     1      -4.875  13.385  21.979  0.00  0.00    +0.000 A 
BRANCH  26  33
ATOM     32  C   UNL     1      -6.295  15.702  23.655  0.00  0.00    +0.000 C 
ATOM     33  O   UNL     1      -6.523  14.301  23.471  0.00  0.00    +0.000 OA
ENDBRANCH  26  33
BRANCH  31  34
ATOM     34  O   UNL     1      -5.368  13.809  20.776  0.00  0.00    +0.000 OA
ATOM     35  C   UNL     1      -5.236  12.992  19.628  0.00  0.00    +0.000 C 
ENDBRANCH  31  34
ENDBRANCH  24  29
ENDBRANCH  20  25
ENDBRANCH  19  22
ENDBRANCH   1  19
TORSDOF 10
ENDMDL
MODEL 6
REMARK VINA RESULT:      -7.5      1.611      1.755
REMARK  Name = 
REMARK  13 active torsions:
REMARK  status: ('A' for Active; 'I' for Inactive)
REMARK    1  A    between atoms: C_1  and  O_2
REMARK    2  A    between atoms: O_2  and  C_3
REMARK    3  A    between atoms: C_6  and  C_7
REMARK    4  A    between atoms: C_8  and  C_9
REMARK    5  A    between atoms: N_11  and  C_12
REMARK    6  A    between atoms: C_12  and  C_13
REMARK    7  A    between atoms: C_18  and  N_19
REMARK    8  A    between atoms: N_19  and  C_20
REMARK    9  A    between atoms: N_19  and  C_21
REMARK   10  A    between atoms: C_21  and  C_22
REMARK   11  A    between atoms: C_22  and  N_23
REMARK   12  A    between atoms: C_32  and  O_33
REMARK   13  A    between atoms: O_33  and  C_34
REMARK                            x       y       z     vdW  Elec       q    Type
REMARK                         _______ _______ _______ _____ _____    ______ ____
ROOT
ATOM      1  C   UNL     1       1.606   8.060  20.247  0.00  0.00    +0.000 C 
ATOM      2  O   UNL     1       1.515   8.975  19.415  0.00  0.00    +0.000 OA
ATOM      3  N   UNL     1       1.948   6.770  19.887  0.00  0.00    +0.000 N 
ATOM      4  C   UNL     1       2.486   6.519  18.548  0.00  0.00    +0.000 C 
ATOM      5  C   UNL     1       1.858   5.293  17.909  0.00  0.00    +0.000 C 
ATOM      6  C   UNL     1       1.812   4.057  18.832  0.00  0.00    +0.000 C 
ATOM      7  C   UNL     1       1.155   4.472  20.158  0.00  0.00    +0.000 C 
ATOM      8  C   UNL     1       1.871   5.636  20.812  0.00  0.00    +0.000 C 
ENDROOT
BRANCH   6   9
ATOM      9  N   UNL     1       3.064   3.263  18.935  0.00  0.00    +0.000 NA
ATOM     10  C   UNL     1       2.956   1.839  19.236  0.00  0.00    +0.000 C 
BRANCH   9  11
ATOM     11  C   UNL     1       3.934   3.398  17.741  0.00  0.00    +0.000 C 
BRANCH  11  12
ATOM     12  C   UNL     1       5.296   4.052  18.034  0.00  0.00    +0.000 C 
BRANCH  12  13
ATOM     13  N   UNL     1       6.146   4.265  16.845  0.00  0.00    +0.000 NA
ATOM     14  C   UNL     1       7.435   4.928  17.141  0.00  0.00    +0.000 C 
ATOM     15  C   UNL     1       7.279   6.387  17.598  0.00  0.00    +0.000 C 
ATOM     16  O   UNL     1       6.585   7.162  16.611  0.00  0.00    +0.000 OA
ATOM     17  C   UNL     1       5.305   6.590  16.307  0.00  0.00    +0.000 C 
ATOM     18  C   UNL     1       5.426   5.118  15.868  0.00  0.00    +0.000 C 
ENDBRANCH  12  13
ENDBRANCH  11  12
ENDBRANCH   9  11
ENDBRANCH   6   9
BRANCH   1  19
ATOM     19  C   UNL     1       1.246   8.328  21.702  0.00  0.00    +0.000 C 
BRANCH  19  22
ATOM     20  C   UNL     1      -0.117   9.911  22.987  0.00  0.00    +0.000 C 
ATOM     21  O   UNL     1       0.384   9.576  24.061  0.00  0.00    +0.000 OA
ATOM     22  N   UNL     1       0.206   9.339  21.792  0.00  0.00    +0.000 N 
ATOM     23  H   UNL     1      -0.193   9.675  20.924  0.00  0.00    +0.000 HD
BRANCH  20  25
ATOM     24  C   UNL     1      -1.203  11.724  21.768  0.00  0.00    +0.000 C 
ATOM     25  C   UNL     1      -1.144  10.970  22.877  0.00  0.00    +0.000 C 
BRANCH  24  29
ATOM     26  C   UNL     1      -4.028  14.930  21.380  0.00  0.00    +0.000 A 
ATOM     27  C   UNL     1      -4.424  13.651  21.806  0.00  0.00    +0.000 A 
ATOM     28  C   UNL     1      -3.499  12.611  21.923  0.00  0.00    +0.000 A 
ATOM     29  C   UNL     1      -2.171  12.805  21.548  0.00  0.00    +0.000 A 
ATOM     30  C   UNL     1      -1.802  14.052  21.036  0.00  0.00    +0.000 A 
ATOM     31  C   UNL     1      -2.712  15.118  20.933  0.00  0.00    +0.000 A 
BRANCH  26  33
ATOM     32  C   UNL     1      -6.291  15.606  21.426  0.00  0.00    +0.000 C 
ATOM     33  O   UNL     1      -4.909  15.979  21.401  0.00  0.00    +0.000 OA
ENDBRANCH  26  33
BRANCH  31  34
ATOM     34  O   UNL     1      -2.118  16.231  20.407  0.00  0.00    +0.000 OA
ATOM     35  C   UNL     1      -1.156  16.944  21.162  0.00  0.00    +0.000 C 
ENDBRANCH  31  34
ENDBRANCH  24  29
ENDBRANCH  20  25
ENDBRANCH  19  22
ENDBRANCH   1  19
TORSDOF 10
ENDMDL
MODEL 7
REMARK VINA RESULT:      -7.5      4.077     10.687
REMARK  Name = 
REMARK  13 active torsions:
REMARK  status: ('A' for Active; 'I' for Inactive)
REMARK    1  A    between atoms: C_1  and  O_2
REMARK    2  A    between atoms: O_2  and  C_3
REMARK    3  A    between atoms: C_6  and  C_7
REMARK    4  A    between atoms: C_8  and  C_9
REMARK    5  A    between atoms: N_11  and  C_12
REMARK    6  A    between atoms: C_12  and  C_13
REMARK    7  A    between atoms: C_18  and  N_19
REMARK    8  A    between atoms: N_19  and  C_20
REMARK    9  A    between atoms: N_19  and  C_21
REMARK   10  A    between atoms: C_21  and  C_22
REMARK   11  A    between atoms: C_22  and  N_23
REMARK   12  A    between atoms: C_32  and  O_33
REMARK   13  A    between atoms: O_33  and  C_34
REMARK                            x       y       z     vdW  Elec       q    Type
REMARK                         _______ _______ _______ _____ _____    ______ ____
ROOT
ATOM      1  C   UNL     1       5.734   4.728  18.889  0.00  0.00    +0.000 C 
ATOM      2  O   UNL     1       5.527   3.638  19.443  0.00  0.00    +0.000 OA
ATOM      3  N   UNL     1       4.749   5.688  18.762  0.00  0.00    +0.000 N 
ATOM      4  C   UNL     1       3.511   5.550  19.533  0.00  0.00    +0.000 C 
ATOM      5  C   UNL     1       2.284   5.842  18.685  0.00  0.00    +0.000 C 
ATOM      6  C   UNL     1       2.389   7.138  17.853  0.00  0.00    +0.000 C 
ATOM      7  C   UNL     1       3.700   7.090  17.053  0.00  0.00    +0.000 C 
ATOM      8  C   UNL     1       4.909   6.895  17.945  0.00  0.00    +0.000 C 
ENDROOT
BRANCH   6   9
ATOM      9  N   UNL     1       2.098   8.407  18.569  0.00  0.00    +0.000 NA
ATOM     10  C   UNL     1       1.201   9.368  17.935  0.00  0.00    +0.000 C 
BRANCH   9  11
ATOM     11  C   UNL     1       1.606   8.191  19.953  0.00  0.00    +0.000 C 
BRANCH  11  12
ATOM     12  C   UNL     1       1.089   9.470  20.635  0.00  0.00    +0.000 C 
BRANCH  12  13
ATOM     13  N   UNL     1      -0.358   9.468  20.932  0.00  0.00    +0.000 NA
ATOM     14  C   UNL     1      -0.965  10.817  20.966  0.00  0.00    +0.000 C 
ATOM     15  C   UNL     1      -0.473  11.678  22.139  0.00  0.00    +0.000 C 
ATOM     16  O   UNL     1      -0.731  11.031  23.393  0.00  0.00    +0.000 OA
ATOM     17  C   UNL     1      -0.134   9.728  23.439  0.00  0.00    +0.000 C 
ATOM     18  C   UNL     1      -0.590   8.847  22.259  0.00  0.00    +0.000 C 
ENDBRANCH  12  13
ENDBRANCH  11  12
ENDBRANCH   9  11
ENDBRANCH   6   9
BRANCH   1  19
ATOM     19  C   UNL     1       7.087   4.998  18.243  0.00  0.00    +0.000 C 
BRANCH  19  22
ATOM     20  C   UNL     1       7.953   7.269  17.915  0.00  0.00    +0.000 C 
ATOM     21  O   UNL     1       7.829   7.214  16.692  0.00  0.00    +0.000 OA
ATOM     22  N   UNL     1       7.657   6.234  18.753  0.00  0.00    +0.000 N 
ATOM     23  H   UNL     1       7.727   6.335  19.758  0.00  0.00    +0.000 HD
BRANCH  20  25
ATOM     24  C   UNL     1       8.665   9.602  17.927  0.00  0.00    +0.000 C 
ATOM     25  C   UNL     1       8.457   8.471  18.617  0.00  0.00    +0.000 C 
BRANCH  24  29
ATOM     26  C   UNL     1      10.358  13.208  19.522  0.00  0.00    +0.000 A 
ATOM     27  C   UNL     1      10.608  11.957  20.112  0.00  0.00    +0.000 A 
ATOM     28  C   UNL     1      10.047  10.790  19.590  0.00  0.00    +0.000 A 
ATOM     29  C   UNL     1       9.166  10.852  18.512  0.00  0.00    +0.000 A 
ATOM     30  C   UNL     1       8.847  12.109  17.989  0.00  0.00    +0.000 A 
ATOM     31  C   UNL     1       9.419  13.293  18.484  0.00  0.00    +0.000 A 
BRANCH  26  33
ATOM     32  C   UNL     1      12.333  14.499  19.410  0.00  0.00    +0.000 C 
ATOM     33  O   UNL     1      11.019  14.329  19.951  0.00  0.00    +0.000 OA
ENDBRANCH  26  33
BRANCH  31  34
ATOM     34  O   UNL     1       8.955  14.389  17.812  0.00  0.00    +0.000 OA
ATOM     35  C   UNL     1       8.111  15.317  18.467  0.00  0.00    +0.000 C 
ENDBRANCH  31  34
ENDBRANCH  24  29
ENDBRANCH  20  25
ENDBRANCH  19  22
ENDBRANCH   1  19
TORSDOF 10
ENDMDL
MODEL 8
REMARK VINA RESULT:      -7.5      1.499      2.395
REMARK  Name = 
REMARK  13 active torsions:
REMARK  status: ('A' for Active; 'I' for Inactive)
REMARK    1  A    between atoms: C_1  and  O_2
REMARK    2  A    between atoms: O_2  and  C_3
REMARK    3  A    between atoms: C_6  and  C_7
REMARK    4  A    between atoms: C_8  and  C_9
REMARK    5  A    between atoms: N_11  and  C_12
REMARK    6  A    between atoms: C_12  and  C_13
REMARK    7  A    between atoms: C_18  and  N_19
REMARK    8  A    between atoms: N_19  and  C_20
REMARK    9  A    between atoms: N_19  and  C_21
REMARK   10  A    between atoms: C_21  and  C_22
REMARK   11  A    between atoms: C_22  and  N_23
REMARK   12  A    between atoms: C_32  and  O_33
REMARK   13  A    between atoms: O_33  and  C_34
REMARK                            x       y       z     vdW  Elec       q    Type
REMARK                         _______ _______ _______ _____ _____    ______ ____
ROOT
ATOM      1  C   UNL     1       1.632   8.266  20.210  0.00  0.00    +0.000 C 
ATOM      2  O   UNL     1       1.336   9.129  19.371  0.00  0.00    +0.000 OA
ATOM      3  N   UNL     1       2.026   6.992  19.846  0.00  0.00    +0.000 N 
ATOM      4  C   UNL     1       2.374   6.721  18.449  0.00  0.00    +0.000 C 
ATOM      5  C   UNL     1       1.765   5.419  17.960  0.00  0.00    +0.000 C 
ATOM      6  C   UNL     1       1.968   4.228  18.921  0.00  0.00    +0.000 C 
ATOM      7  C   UNL     1       1.487   4.653  20.318  0.00  0.00    +0.000 C 
ATOM      8  C   UNL     1       2.190   5.901  20.811  0.00  0.00    +0.000 C 
ENDROOT
BRANCH   6   9
ATOM      9  N   UNL     1       3.285   3.544  18.854  0.00  0.00    +0.000 NA
ATOM     10  C   UNL     1       3.474   2.330  19.643  0.00  0.00    +0.000 C 
BRANCH   9  11
ATOM     11  C   UNL     1       3.709   3.239  17.465  0.00  0.00    +0.000 C 
BRANCH  11  12
ATOM     12  C   UNL     1       5.055   3.874  17.073  0.00  0.00    +0.000 C 
BRANCH  12  13
ATOM     13  N   UNL     1       4.942   5.117  16.282  0.00  0.00    +0.000 NA
ATOM     14  C   UNL     1       5.485   5.006  14.910  0.00  0.00    +0.000 C 
ATOM     15  C   UNL     1       7.011   4.824  14.871  0.00  0.00    +0.000 C 
ATOM     16  O   UNL     1       7.672   5.909  15.536  0.00  0.00    +0.000 OA
ATOM     17  C   UNL     1       7.215   6.047  16.888  0.00  0.00    +0.000 C 
ATOM     18  C   UNL     1       5.685   6.206  16.962  0.00  0.00    +0.000 C 
ENDBRANCH  12  13
ENDBRANCH  11  12
ENDBRANCH   9  11
ENDBRANCH   6   9
BRANCH   1  19
ATOM     19  C   UNL     1       1.476   8.572  21.693  0.00  0.00    +0.000 C 
BRANCH  19  22
ATOM     20  C   UNL     1      -0.009  10.501  21.991  0.00  0.00    +0.000 C 
ATOM     21  O   UNL     1       0.907  11.313  21.868  0.00  0.00    +0.000 OA
ATOM     22  N   UNL     1       0.169   9.149  21.960  0.00  0.00    +0.000 N 
ATOM     23  H   UNL     1      -0.617   8.514  22.016  0.00  0.00    +0.000 HD
BRANCH  20  25
ATOM     24  C   UNL     1      -1.736  12.209  22.223  0.00  0.00    +0.000 C 
ATOM     25  C   UNL     1      -1.417  10.906  22.202  0.00  0.00    +0.000 C 
BRANCH  24  29
ATOM     26  C   UNL     1      -5.614  13.964  22.764  0.00  0.00    +0.000 A 
ATOM     27  C   UNL     1      -4.619  14.065  23.752  0.00  0.00    +0.000 A 
ATOM     28  C   UNL     1      -3.362  13.485  23.570  0.00  0.00    +0.000 A 
ATOM     29  C   UNL     1      -3.092  12.729  22.431  0.00  0.00    +0.000 A 
ATOM     30  C   UNL     1      -4.117  12.553  21.495  0.00  0.00    +0.000 A 
ATOM     31  C   UNL     1      -5.380  13.148  21.648  0.00  0.00    +0.000 A 
BRANCH  26  33
ATOM     32  C   UNL     1      -7.585  14.292  24.024  0.00  0.00    +0.000 C 
ATOM     33  O   UNL     1      -6.793  14.650  22.886  0.00  0.00    +0.000 OA
ENDBRANCH  26  33
BRANCH  31  34
ATOM     34  O   UNL     1      -6.209  12.832  20.607  0.00  0.00    +0.000 OA
ATOM     35  C   UNL     1      -5.749  12.955  19.274  0.00  0.00    +0.000 C 
ENDBRANCH  31  34
ENDBRANCH  24  29
ENDBRANCH  20  25
ENDBRANCH  19  22
ENDBRANCH   1  19
TORSDOF 10
ENDMDL
MODEL 9
REMARK VINA RESULT:      -7.4      2.112      3.103
REMARK  Name = 
REMARK  13 active torsions:
REMARK  status: ('A' for Active; 'I' for Inactive)
REMARK    1  A    between atoms: C_1  and  O_2
REMARK    2  A    between atoms: O_2  and  C_3
REMARK    3  A    between atoms: C_6  and  C_7
REMARK    4  A    between atoms: C_8  and  C_9
REMARK    5  A    between atoms: N_11  and  C_12
REMARK    6  A    between atoms: C_12  and  C_13
REMARK    7  A    between atoms: C_18  and  N_19
REMARK    8  A    between atoms: N_19  and  C_20
REMARK    9  A    between atoms: N_19  and  C_21
REMARK   10  A    between atoms: C_21  and  C_22
REMARK   11  A    between atoms: C_22  and  N_23
REMARK   12  A    between atoms: C_32  and  O_33
REMARK   13  A    between atoms: O_33  and  C_34
REMARK                            x       y       z     vdW  Elec       q    Type
REMARK                         _______ _______ _______ _____ _____    ______ ____
ROOT
ATOM      1  C   UNL     1       1.548   8.398  19.994  0.00  0.00    +0.000 C 
ATOM      2  O   UNL     1       1.271   9.190  19.081  0.00  0.00    +0.000 OA
ATOM      3  N   UNL     1       2.001   7.116  19.744  0.00  0.00    +0.000 N 
ATOM      4  C   UNL     1       2.431   6.760  18.390  0.00  0.00    +0.000 C 
ATOM      5  C   UNL     1       1.890   5.406  17.965  0.00  0.00    +0.000 C 
ATOM      6  C   UNL     1       2.077   4.294  19.018  0.00  0.00    +0.000 C 
ATOM      7  C   UNL     1       1.509   4.799  20.354  0.00  0.00    +0.000 C 
ATOM      8  C   UNL     1       2.146   6.102  20.792  0.00  0.00    +0.000 C 
ENDROOT
BRANCH   6   9
ATOM      9  N   UNL     1       3.416   3.653  19.069  0.00  0.00    +0.000 NA
ATOM     10  C   UNL     1       3.628   2.570  20.025  0.00  0.00    +0.000 C 
BRANCH   9  11
ATOM     11  C   UNL     1       3.877   3.169  17.744  0.00  0.00    +0.000 C 
BRANCH  11  12
ATOM     12  C   UNL     1       5.179   3.832  17.258  0.00  0.00    +0.000 C 
BRANCH  12  13
ATOM     13  N   UNL     1       4.982   5.020  16.403  0.00  0.00    +0.000 NA
ATOM     14  C   UNL     1       5.480   4.852  15.019  0.00  0.00    +0.000 C 
ATOM     15  C   UNL     1       7.009   4.733  14.932  0.00  0.00    +0.000 C 
ATOM     16  O   UNL     1       7.646   5.882  15.508  0.00  0.00    +0.000 OA
ATOM     17  C   UNL     1       7.232   6.079  16.867  0.00  0.00    +0.000 C 
ATOM     18  C   UNL     1       5.700   6.178  16.991  0.00  0.00    +0.000 C 
ENDBRANCH  12  13
ENDBRANCH  11  12
ENDBRANCH   9  11
ENDBRANCH   6   9
BRANCH   1  19
ATOM     19  C   UNL     1       1.303   8.803  21.442  0.00  0.00    +0.000 C 
BRANCH  19  22
ATOM     20  C   UNL     1       0.143  10.961  21.543  0.00  0.00    +0.000 C 
ATOM     21  O   UNL     1       1.193  11.604  21.514  0.00  0.00    +0.000 OA
ATOM     22  N   UNL     1       0.092   9.598  21.550  0.00  0.00    +0.000 N 
ATOM     23  H   UNL     1      -0.793   9.106  21.525  0.00  0.00    +0.000 HD
BRANCH  20  25
ATOM     24  C   UNL     1      -1.850  11.838  20.444  0.00  0.00    +0.000 C 
ATOM     25  C   UNL     1      -1.190  11.603  21.588  0.00  0.00    +0.000 C 
BRANCH  24  29
ATOM     26  C   UNL     1      -5.596  13.908  20.126  0.00  0.00    +0.000 A 
ATOM     27  C   UNL     1      -4.750  14.088  21.234  0.00  0.00    +0.000 A 
ATOM     28  C   UNL     1      -3.536  13.405  21.333  0.00  0.00    +0.000 A 
ATOM     29  C   UNL     1      -3.171  12.473  20.364  0.00  0.00    +0.000 A 
ATOM     30  C   UNL     1      -4.060  12.228  19.312  0.00  0.00    +0.000 A 
ATOM     31  C   UNL     1      -5.275  12.922  19.183  0.00  0.00    +0.000 A 
BRANCH  26  33
ATOM     32  C   UNL     1      -7.826  14.312  20.791  0.00  0.00    +0.000 C 
ATOM     33  O   UNL     1      -6.715  14.681  19.967  0.00  0.00    +0.000 OA
ENDBRANCH  26  33
BRANCH  31  34
ATOM     34  O   UNL     1      -5.968  12.511  18.078  0.00  0.00    +0.000 OA
ATOM     35  C   UNL     1      -7.009  11.560  18.207  0.00  0.00    +0.000 C 
ENDBRANCH  31  34
ENDBRANCH  24  29
ENDBRANCH  20  25
ENDBRANCH  19  22
ENDBRANCH   1  19
TORSDOF 10
ENDMDL
