MODEL 1
REMARK VINA RESULT:      -7.5      0.000      0.000
REMARK  Name = 
REMARK  6 active torsions:
REMARK  status: ('A' for Active; 'I' for Inactive)
REMARK    1  A    between atoms: C_1  and  C_2
REMARK    2  A    between atoms: C_2  and  N_3
REMARK    3  A    between atoms: N_3  and  C_4
REMARK    4  A    between atoms: N_3  and  C_5
REMARK    5  A    between atoms: C_5  and  C_6
REMARK    6  A    between atoms: C_6  and  N_7
REMARK                            x       y       z     vdW  Elec       q    Type
REMARK                         _______ _______ _______ _____ _____    ______ ____
ROOT
ATOM      1  N   UNL     1       5.038   5.184  18.072  0.00  0.00    +0.000 N 
ATOM      2  C   UNL     1       5.679   5.111  16.827  0.00  0.00    +0.000 A 
ATOM      3  C   UNL     1       6.908   5.722  16.603  0.00  0.00    +0.000 A 
ATOM      4  N   UNL     1       7.588   5.640  15.427  0.00  0.00    +0.000 NA
ATOM      5  C   UNL     1       6.975   4.952  14.441  0.00  0.00    +0.000 A 
ATOM      6  C   UNL     1       7.593   4.785  13.205  0.00  0.00    +0.000 A 
ATOM      7  C   UNL     1       6.980   4.062  12.175  0.00  0.00    +0.000 A 
ATOM      8  C   UNL     1       5.716   3.513  12.377  0.00  0.00    +0.000 A 
ATOM      9  C   UNL     1       5.091   3.676  13.608  0.00  0.00    +0.000 A 
ATOM     10  C   UNL     1       5.705   4.378  14.638  0.00  0.00    +0.000 A 
ATOM     11  N   UNL     1       5.060   4.472  15.812  0.00  0.00    +0.000 NA
ATOM     12  H   UNL     1       5.716   5.187  18.836  0.00  0.00    +0.000 HD
ENDROOT
BRANCH   1  13
ATOM     13  C   UNL     1       4.089   4.075  18.313  0.00  0.00    +0.000 C 
BRANCH  13  14
ATOM     14  C   UNL     1       2.708   4.620  18.879  0.00  0.00    +0.000 C 
ATOM     15  C   UNL     1       2.380   3.909  20.228  0.00  0.00    +0.000 C 
ATOM     16  C   UNL     1       1.864   2.522  19.867  0.00  0.00    +0.000 C 
ATOM     17  C   UNL     1       1.220   2.675  18.498  0.00  0.00    +0.000 C 
ATOM     18  C   UNL     1       1.546   4.090  18.001  0.00  0.00    +0.000 C 
BRANCH  14  19
ATOM     19  N   UNL     1       2.801   6.125  18.995  0.00  0.00    +0.000 NA
ATOM     20  C   UNL     1       2.175   6.683  20.200  0.00  0.00    +0.000 C 
BRANCH  19  22
ATOM     21  C   UNL     1       2.200   8.353  17.960  0.00  0.00    +0.000 C 
ATOM     22  C   UNL     1       2.288   6.835  17.797  0.00  0.00    +0.000 C 
ENDBRANCH  19  22
ENDBRANCH  14  19
ENDBRANCH  13  14
ENDBRANCH   1  13
TORSDOF 4
ENDMDL
MODEL 2
REMARK VINA RESULT:      -7.5      1.180      2.719
REMARK  Name = 
REMARK  6 active torsions:
REMARK  status: ('A' for Active; 'I' for Inactive)
REMARK    1  A    between atoms: C_1  and  C_2
REMARK    2  A    between atoms: C_2  and  N_3
REMARK    3  A    between atoms: N_3  and  C_4
REMARK    4  A    between atoms: N_3  and  C_5
REMARK    5  A    between atoms: C_5  and  C_6
REMARK    6  A    between atoms: C_6  and  N_7
REMARK                            x       y       z     vdW  Elec       q    Type
REMARK                         _______ _______ _______ _____ _____    ______ ____
ROOT
ATOM      1  N   UNL     1       5.199   4.932  17.832  0.00  0.00    +0.000 N 
ATOM      2  C   UNL     1       5.805   4.932  16.568  0.00  0.00    +0.000 A 
ATOM      3  C   UNL     1       6.984   5.628  16.325  0.00  0.00    +0.000 A 
ATOM      4  N   UNL     1       7.632   5.620  15.128  0.00  0.00    +0.000 NA
ATOM      5  C   UNL     1       7.037   4.916  14.142  0.00  0.00    +0.000 A 
ATOM      6  C   UNL     1       7.627   4.820  12.886  0.00  0.00    +0.000 A 
ATOM      7  C   UNL     1       7.032   4.082  11.856  0.00  0.00    +0.000 A 
ATOM      8  C   UNL     1       5.814   3.445  12.080  0.00  0.00    +0.000 A 
ATOM      9  C   UNL     1       5.217   3.537  13.332  0.00  0.00    +0.000 A 
ATOM     10  C   UNL     1       5.814   4.254  14.361  0.00  0.00    +0.000 A 
ATOM     11  N   UNL     1       5.200   4.276  15.555  0.00  0.00    +0.000 NA
ATOM     12  H   UNL     1       5.898   4.963  18.577  0.00  0.00    +0.000 HD
ENDROOT
BRANCH   1  13
ATOM     13  C   UNL     1       4.333   3.756  18.072  0.00  0.00    +0.000 C 
BRANCH  13  14
ATOM     14  C   UNL     1       3.205   4.089  19.140  0.00  0.00    +0.000 C 
ATOM     15  C   UNL     1       1.811   4.090  18.441  0.00  0.00    +0.000 C 
ATOM     16  C   UNL     1       1.708   5.410  17.690  0.00  0.00    +0.000 C 
ATOM     17  C   UNL     1       2.566   6.390  18.478  0.00  0.00    +0.000 C 
ATOM     18  C   UNL     1       3.307   5.580  19.550  0.00  0.00    +0.000 C 
BRANCH  14  19
ATOM     19  N   UNL     1       3.313   3.094  20.274  0.00  0.00    +0.000 NA
ATOM     20  C   UNL     1       4.432   2.150  20.151  0.00  0.00    +0.000 C 
BRANCH  19  22
ATOM     21  C   UNL     1       1.417   2.610  21.876  0.00  0.00    +0.000 C 
ATOM     22  C   UNL     1       2.056   2.342  20.513  0.00  0.00    +0.000 C 
ENDBRANCH  19  22
ENDBRANCH  14  19
ENDBRANCH  13  14
ENDBRANCH   1  13
TORSDOF 4
ENDMDL
MODEL 3
REMARK VINA RESULT:      -7.5      0.962      1.160
REMARK  Name = 
REMARK  6 active torsions:
REMARK  status: ('A' for Active; 'I' for Inactive)
REMARK    1  A    between atoms: C_1  and  C_2
REMARK    2  A    between atoms: C_2  and  N_3
REMARK    3  A    between atoms: N_3  and  C_4
REMARK    4  A    between atoms: N_3  and  C_5
REMARK    5  A    between atoms: C_5  and  C_6
REMARK    6  A    between atoms: C_6  and  N_7
REMARK                            x       y       z     vdW  Elec       q    Type
REMARK                         _______ _______ _______ _____ _____    ______ ____
ROOT
ATOM      1  N   UNL     1       4.900   5.323  19.447  0.00  0.00    +0.000 N 
ATOM      2  C   UNL     1       5.573   5.280  18.217  0.00  0.00    +0.000 A 
ATOM      3  C   UNL     1       6.852   5.803  18.069  0.00  0.00    +0.000 A 
ATOM      4  N   UNL     1       7.561   5.743  16.908  0.00  0.00    +0.000 NA
ATOM      5  C   UNL     1       6.928   5.173  15.862  0.00  0.00    +0.000 A 
ATOM      6  C   UNL     1       7.571   5.037  14.635  0.00  0.00    +0.000 A 
ATOM      7  C   UNL     1       6.936   4.434  13.543  0.00  0.00    +0.000 A 
ATOM      8  C   UNL     1       5.627   3.976  13.673  0.00  0.00    +0.000 A 
ATOM      9  C   UNL     1       4.978   4.109  14.895  0.00  0.00    +0.000 A 
ATOM     10  C   UNL     1       5.611   4.691  15.986  0.00  0.00    +0.000 A 
ATOM     11  N   UNL     1       4.939   4.759  17.145  0.00  0.00    +0.000 NA
ATOM     12  H   UNL     1       5.551   5.222  20.228  0.00  0.00    +0.000 HD
ENDROOT
BRANCH   1  13
ATOM     13  C   UNL     1       3.860   4.280  19.588  0.00  0.00    +0.000 C 
BRANCH  13  14
ATOM     14  C   UNL     1       2.405   4.917  19.543  0.00  0.00    +0.000 C 
ATOM     15  C   UNL     1       1.592   4.448  20.789  0.00  0.00    +0.000 C 
ATOM     16  C   UNL     1       1.147   3.021  20.497  0.00  0.00    +0.000 C 
ATOM     17  C   UNL     1       1.020   2.939  18.984  0.00  0.00    +0.000 C 
ATOM     18  C   UNL     1       1.584   4.248  18.412  0.00  0.00    +0.000 C 
BRANCH  14  19
ATOM     19  N   UNL     1       2.546   6.420  19.443  0.00  0.00    +0.000 NA
ATOM     20  C   UNL     1       1.809   7.170  20.468  0.00  0.00    +0.000 C 
BRANCH  19  22
ATOM     21  C   UNL     1       2.455   8.448  17.935  0.00  0.00    +0.000 C 
ATOM     22  C   UNL     1       2.202   6.949  18.099  0.00  0.00    +0.000 C 
ENDBRANCH  19  22
ENDBRANCH  14  19
ENDBRANCH  13  14
ENDBRANCH   1  13
TORSDOF 4
ENDMDL
MODEL 4
REMARK VINA RESULT:      -7.3      3.079      7.745
REMARK  Name = 
REMARK  6 active torsions:
REMARK  status: ('A' for Active; 'I' for Inactive)
REMARK    1  A    between atoms: C_1  and  C_2
REMARK    2  A    between atoms: C_2  and  N_3
REMARK    3  A    between atoms: N_3  and  C_4
REMARK    4  A    between atoms: N_3  and  C_5
REMARK    5  A    between atoms: C_5  and  C_6
REMARK    6  A    between atoms: C_6  and  N_7
REMARK                            x       y       z     vdW  Elec       q    Type
REMARK                         _______ _______ _______ _____ _____    ______ ____
ROOT
ATOM      1  N   UNL     1       2.503   6.939  19.447  0.00  0.00    +0.000 N 
ATOM      2  C   UNL     1       1.754   8.057  19.839  0.00  0.00    +0.000 A 
ATOM      3  C   UNL     1       1.508   9.112  18.968  0.00  0.00    +0.000 A 
ATOM      4  N   UNL     1       0.749  10.195  19.289  0.00  0.00    +0.000 NA
ATOM      5  C   UNL     1       0.265  10.220  20.549  0.00  0.00    +0.000 A 
ATOM      6  C   UNL     1      -0.545  11.269  20.974  0.00  0.00    +0.000 A 
ATOM      7  C   UNL     1      -1.069  11.304  22.272  0.00  0.00    +0.000 A 
ATOM      8  C   UNL     1      -0.763  10.282  23.167  0.00  0.00    +0.000 A 
ATOM      9  C   UNL     1       0.046   9.231  22.750  0.00  0.00    +0.000 A 
ATOM     10  C   UNL     1       0.554   9.184  21.457  0.00  0.00    +0.000 A 
ATOM     11  N   UNL     1       1.302   8.126  21.110  0.00  0.00    +0.000 NA
ATOM     12  H   UNL     1       2.349   6.718  18.461  0.00  0.00    +0.000 HD
ENDROOT
BRANCH   1  13
ATOM     13  C   UNL     1       2.206   5.722  20.235  0.00  0.00    +0.000 C 
BRANCH  13  14
ATOM     14  C   UNL     1       2.686   4.416  19.468  0.00  0.00    +0.000 C 
ATOM     15  C   UNL     1       1.493   3.816  18.663  0.00  0.00    +0.000 C 
ATOM     16  C   UNL     1       0.616   3.089  19.674  0.00  0.00    +0.000 C 
ATOM     17  C   UNL     1       1.561   2.637  20.777  0.00  0.00    +0.000 C 
ATOM     18  C   UNL     1       2.927   3.277  20.491  0.00  0.00    +0.000 C 
BRANCH  14  19
ATOM     19  N   UNL     1       3.876   4.779  18.608  0.00  0.00    +0.000 NA
ATOM     20  C   UNL     1       3.825   4.244  17.241  0.00  0.00    +0.000 C 
BRANCH  19  22
ATOM     21  C   UNL     1       6.305   5.409  18.927  0.00  0.00    +0.000 C 
ATOM     22  C   UNL     1       5.176   4.423  19.230  0.00  0.00    +0.000 C 
ENDBRANCH  19  22
ENDBRANCH  14  19
ENDBRANCH  13  14
ENDBRANCH   1  13
TORSDOF 4
ENDMDL
MODEL 5
REMARK VINA RESULT:      -7.2      2.491      7.167
REMARK  Name = 
REMARK  6 active torsions:
REMARK  status: ('A' for Active; 'I' for Inactive)
REMARK    1  A    between atoms: C_1  and  C_2
REMARK    2  A    between atoms: C_2  and  N_3
REMARK    3  A    between atoms: N_3  and  C_4
REMARK    4  A    between atoms: N_3  and  C_5
REMARK    5  A    between atoms: C_5  and  C_6
REMARK    6  A    between atoms: C_6  and  N_7
REMARK                            x       y       z     vdW  Elec       q    Type
REMARK                         _______ _______ _______ _____ _____    ______ ____
ROOT
ATOM      1  N   UNL     1       3.089   6.786  18.051  0.00  0.00    +0.000 N 
ATOM      2  C   UNL     1       2.311   7.796  18.634  0.00  0.00    +0.000 A 
ATOM      3  C   UNL     1       1.855   8.882  17.895  0.00  0.00    +0.000 A 
ATOM      4  N   UNL     1       1.060   9.862  18.406  0.00  0.00    +0.000 NA
ATOM      5  C   UNL     1       0.760   9.751  19.717  0.00  0.00    +0.000 A 
ATOM      6  C   UNL     1      -0.067  10.684  20.335  0.00  0.00    +0.000 A 
ATOM      7  C   UNL     1      -0.402  10.577  21.690  0.00  0.00    +0.000 A 
ATOM      8  C   UNL     1       0.115   9.528  22.447  0.00  0.00    +0.000 A 
ATOM      9  C   UNL     1       0.942   8.592  21.837  0.00  0.00    +0.000 A 
ATOM     10  C   UNL     1       1.263   8.686  20.488  0.00  0.00    +0.000 A 
ATOM     11  N   UNL     1       2.041   7.731  19.955  0.00  0.00    +0.000 NA
ATOM     12  H   UNL     1       2.814   6.622  17.081  0.00  0.00    +0.000 HD
ENDROOT
BRANCH   1  13
ATOM     13  C   UNL     1       3.011   5.493  18.768  0.00  0.00    +0.000 C 
BRANCH  13  14
ATOM     14  C   UNL     1       4.194   4.527  18.329  0.00  0.00    +0.000 C 
ATOM     15  C   UNL     1       3.753   3.696  17.085  0.00  0.00    +0.000 C 
ATOM     16  C   UNL     1       2.839   2.596  17.607  0.00  0.00    +0.000 C 
ATOM     17  C   UNL     1       3.309   2.320  19.027  0.00  0.00    +0.000 C 
ATOM     18  C   UNL     1       4.349   3.394  19.375  0.00  0.00    +0.000 C 
BRANCH  14  19
ATOM     19  N   UNL     1       5.430   5.365  18.090  0.00  0.00    +0.000 NA
ATOM     20  C   UNL     1       6.166   5.030  16.864  0.00  0.00    +0.000 C 
BRANCH  19  22
ATOM     21  C   UNL     1       7.751   5.928  18.922  0.00  0.00    +0.000 C 
ATOM     22  C   UNL     1       6.365   5.367  19.243  0.00  0.00    +0.000 C 
ENDBRANCH  19  22
ENDBRANCH  14  19
ENDBRANCH  13  14
ENDBRANCH   1  13
TORSDOF 4
ENDMDL
MODEL 6
REMARK VINA RESULT:      -7.1      2.369      7.138
REMARK  Name = 
REMARK  6 active torsions:
REMARK  status: ('A' for Active; 'I' for Inactive)
REMARK    1  A    between atoms: C_1  and  C_2
REMARK    2  A    between atoms: C_2  and  N_3
REMARK    3  A    between atoms: N_3  and  C_4
REMARK    4  A    between atoms: N_3  and  C_5
REMARK    5  A    between atoms: C_5  and  C_6
REMARK    6  A    between atoms: C_6  and  N_7
REMARK                            x       y       z     vdW  Elec       q    Type
REMARK                         _______ _______ _______ _____ _____    ______ ____
ROOT
ATOM      1  N   UNL     1       3.333   7.260  17.605  0.00  0.00    +0.000 N 
ATOM      2  C   UNL     1       2.498   8.132  18.318  0.00  0.00    +0.000 A 
ATOM      3  C   UNL     1       2.055   9.329  17.768  0.00  0.00    +0.000 A 
ATOM      4  N   UNL     1       1.208  10.184  18.404  0.00  0.00    +0.000 NA
ATOM      5  C   UNL     1       0.840   9.826  19.652  0.00  0.00    +0.000 A 
ATOM      6  C   UNL     1      -0.044  10.615  20.383  0.00  0.00    +0.000 A 
ATOM      7  C   UNL     1      -0.450  10.251  21.672  0.00  0.00    +0.000 A 
ATOM      8  C   UNL     1       0.052   9.088  22.250  0.00  0.00    +0.000 A 
ATOM      9  C   UNL     1       0.936   8.295  21.527  0.00  0.00    +0.000 A 
ATOM     10  C   UNL     1       1.327   8.643  20.241  0.00  0.00    +0.000 A 
ATOM     11  N   UNL     1       2.158   7.817  19.586  0.00  0.00    +0.000 NA
ATOM     12  H   UNL     1       3.117   7.276  16.607  0.00  0.00    +0.000 HD
ENDROOT
BRANCH   1  13
ATOM     13  C   UNL     1       3.250   5.855  18.064  0.00  0.00    +0.000 C 
BRANCH  13  14
ATOM     14  C   UNL     1       4.590   5.068  17.733  0.00  0.00    +0.000 C 
ATOM     15  C   UNL     1       4.243   3.719  17.033  0.00  0.00    +0.000 C 
ATOM     16  C   UNL     1       3.775   2.774  18.133  0.00  0.00    +0.000 C 
ATOM     17  C   UNL     1       4.501   3.228  19.390  0.00  0.00    +0.000 C 
ATOM     18  C   UNL     1       5.217   4.542  19.049  0.00  0.00    +0.000 C 
BRANCH  14  19
ATOM     19  N   UNL     1       5.479   5.969  16.904  0.00  0.00    +0.000 NA
ATOM     20  C   UNL     1       5.495   5.656  15.470  0.00  0.00    +0.000 C 
BRANCH  19  22
ATOM     21  C   UNL     1       7.426   7.461  17.522  0.00  0.00    +0.000 C 
ATOM     22  C   UNL     1       6.873   6.040  17.411  0.00  0.00    +0.000 C 
ENDBRANCH  19  22
ENDBRANCH  14  19
ENDBRANCH  13  14
ENDBRANCH   1  13
TORSDOF 4
ENDMDL
MODEL 7
REMARK VINA RESULT:      -7.1      2.604      7.056
REMARK  Name = 
REMARK  6 active torsions:
REMARK  status: ('A' for Active; 'I' for Inactive)
REMARK    1  A    between atoms: C_1  and  C_2
REMARK    2  A    between atoms: C_2  and  N_3
REMARK    3  A    between atoms: N_3  and  C_4
REMARK    4  A    between atoms: N_3  and  C_5
REMARK    5  A    between atoms: C_5  and  C_6
REMARK    6  A    between atoms: C_6  and  N_7
REMARK                            x       y       z     vdW  Elec       q    Type
REMARK                         _______ _______ _______ _____ _____    ______ ____
ROOT
ATOM      1  N   UNL     1       3.091   6.451  19.030  0.00  0.00    +0.000 N 
ATOM      2  C   UNL     1       2.283   7.593  19.131  0.00  0.00    +0.000 A 
ATOM      3  C   UNL     1       2.013   8.394  18.027  0.00  0.00    +0.000 A 
ATOM      4  N   UNL     1       1.199   9.484  18.068  0.00  0.00    +0.000 NA
ATOM      5  C   UNL     1       0.684   9.788  19.277  0.00  0.00    +0.000 A 
ATOM      6  C   UNL     1      -0.181  10.868  19.427  0.00  0.00    +0.000 A 
ATOM      7  C   UNL     1      -0.738  11.189  20.670  0.00  0.00    +0.000 A 
ATOM      8  C   UNL     1      -0.408  10.429  21.789  0.00  0.00    +0.000 A 
ATOM      9  C   UNL     1       0.456   9.349  21.649  0.00  0.00    +0.000 A 
ATOM     10  C   UNL     1       0.996   9.017  20.413  0.00  0.00    +0.000 A 
ATOM     11  N   UNL     1       1.799   7.944  20.341  0.00  0.00    +0.000 NA
ATOM     12  H   UNL     1       2.970   5.992  18.125  0.00  0.00    +0.000 HD
ENDROOT
BRANCH   1  13
ATOM     13  C   UNL     1       2.828   5.447  20.085  0.00  0.00    +0.000 C 
BRANCH  13  14
ATOM     14  C   UNL     1       2.721   3.987  19.467  0.00  0.00    +0.000 C 
ATOM     15  C   UNL     1       1.260   3.463  19.616  0.00  0.00    +0.000 C 
ATOM     16  C   UNL     1       1.105   3.030  21.067  0.00  0.00    +0.000 C 
ATOM     17  C   UNL     1       2.496   2.604  21.512  0.00  0.00    +0.000 C 
ATOM     18  C   UNL     1       3.466   2.984  20.384  0.00  0.00    +0.000 C 
BRANCH  14  19
ATOM     19  N   UNL     1       3.203   4.039  18.034  0.00  0.00    +0.000 NA
ATOM     20  C   UNL     1       2.378   3.280  17.086  0.00  0.00    +0.000 C 
BRANCH  19  22
ATOM     21  C   UNL     1       5.342   4.320  16.714  0.00  0.00    +0.000 C 
ATOM     22  C   UNL     1       4.625   3.642  17.882  0.00  0.00    +0.000 C 
ENDBRANCH  19  22
ENDBRANCH  14  19
ENDBRANCH  13  14
ENDBRANCH   1  13
TORSDOF 4
ENDMDL
MODEL 8
REMARK VINA RESULT:      -6.9      1.487      2.840
REMARK  Name = 
REMARK  6 active torsions:
REMARK  status: ('A' for Active; 'I' for Inactive)
REMARK    1  A    between atoms: C_1  and  C_2
REMARK    2  A    between atoms: C_2  and  N_3
REMARK    3  A    between atoms: N_3  and  C_4
REMARK    4  A    between atoms: N_3  and  C_5
REMARK    5  A    between atoms: C_5  and  C_6
REMARK    6  A    between atoms: C_6  and  N_7
REMARK                            x       y       z     vdW  Elec       q    Type
REMARK                         _______ _______ _______ _____ _____    ______ ____
ROOT
ATOM      1  N   UNL     1       5.057   4.519  17.978  0.00  0.00    +0.000 N 
ATOM      2  C   UNL     1       5.723   4.669  16.753  0.00  0.00    +0.000 A 
ATOM      3  C   UNL     1       6.856   5.466  16.633  0.00  0.00    +0.000 A 
ATOM      4  N   UNL     1       7.560   5.605  15.476  0.00  0.00    +0.000 NA
ATOM      5  C   UNL     1       7.069   4.947  14.406  0.00  0.00    +0.000 A 
ATOM      6  C   UNL     1       7.726   5.000  13.180  0.00  0.00    +0.000 A 
ATOM      7  C   UNL     1       7.240   4.311  12.063  0.00  0.00    +0.000 A 
ATOM      8  C   UNL     1       6.064   3.571  12.167  0.00  0.00    +0.000 A 
ATOM      9  C   UNL     1       5.402   3.514  13.388  0.00  0.00    +0.000 A 
ATOM     10  C   UNL     1       5.891   4.182  14.503  0.00  0.00    +0.000 A 
ATOM     11  N   UNL     1       5.219   4.060  15.659  0.00  0.00    +0.000 NA
ATOM     12  H   UNL     1       5.714   4.537  18.760  0.00  0.00    +0.000 HD
ENDROOT
BRANCH   1  13
ATOM     13  C   UNL     1       4.273   3.268  18.075  0.00  0.00    +0.000 C 
BRANCH  13  14
ATOM     14  C   UNL     1       3.046   3.441  19.070  0.00  0.00    +0.000 C 
ATOM     15  C   UNL     1       1.711   3.219  18.294  0.00  0.00    +0.000 C 
ATOM     16  C   UNL     1       1.455   4.497  17.508  0.00  0.00    +0.000 C 
ATOM     17  C   UNL     1       2.106   5.607  18.318  0.00  0.00    +0.000 C 
ATOM     18  C   UNL     1       2.897   4.936  19.449  0.00  0.00    +0.000 C 
BRANCH  14  19
ATOM     19  N   UNL     1       3.237   2.491  20.231  0.00  0.00    +0.000 NA
ATOM     20  C   UNL     1       2.454   2.826  21.427  0.00  0.00    +0.000 C 
BRANCH  19  22
ATOM     21  C   UNL     1       5.130   0.853  20.593  0.00  0.00    +0.000 C 
ATOM     22  C   UNL     1       4.662   2.309  20.607  0.00  0.00    +0.000 C 
ENDBRANCH  19  22
ENDBRANCH  14  19
ENDBRANCH  13  14
ENDBRANCH   1  13
TORSDOF 4
ENDMDL
MODEL 9
REMARK VINA RESULT:      -6.9      2.039      6.759
REMARK  Name = 
REMARK  6 active torsions:
REMARK  status: ('A' for Active; 'I' for Inactive)
REMARK    1  A    between atoms: C_1  and  C_2
REMARK    2  A    between atoms: C_2  and  N_3
REMARK    3  A    between atoms: N_3  and  C_4
REMARK    4  A    between atoms: N_3  and  C_5
REMARK    5  A    between atoms: C_5  and  C_6
REMARK    6  A    between atoms: C_6  and  N_7
REMARK                            x       y       z     vdW  Elec       q    Type
REMARK                         _______ _______ _______ _____ _____    ______ ____
ROOT
ATOM      1  N   UNL     1       4.233   5.667  17.530  0.00  0.00    +0.000 N 
ATOM      2  C   UNL     1       3.377   6.506  18.258  0.00  0.00    +0.000 A 
ATOM      3  C   UNL     1       2.861   6.127  19.492  0.00  0.00    +0.000 A 
ATOM      4  N   UNL     1       2.064   6.926  20.253  0.00  0.00    +0.000 NA
ATOM      5  C   UNL     1       1.752   8.125  19.720  0.00  0.00    +0.000 A 
ATOM      6  C   UNL     1       0.964   9.030  20.425  0.00  0.00    +0.000 A 
ATOM      7  C   UNL     1       0.644  10.285  19.895  0.00  0.00    +0.000 A 
ATOM      8  C   UNL     1       1.101  10.634  18.627  0.00  0.00    +0.000 A 
ATOM      9  C   UNL     1       1.888   9.736  17.915  0.00  0.00    +0.000 A 
ATOM     10  C   UNL     1       2.223   8.497  18.446  0.00  0.00    +0.000 A 
ATOM     11  N   UNL     1       3.012   7.690  17.720  0.00  0.00    +0.000 NA
ATOM     12  H   UNL     1       4.834   5.124  18.153  0.00  0.00    +0.000 HD
ENDROOT
BRANCH   1  13
ATOM     13  C   UNL     1       5.105   6.394  16.581  0.00  0.00    +0.000 C 
BRANCH  13  14
ATOM     14  C   UNL     1       6.516   5.675  16.440  0.00  0.00    +0.000 C 
ATOM     15  C   UNL     1       6.905   5.584  14.932  0.00  0.00    +0.000 C 
ATOM     16  C   UNL     1       6.089   4.440  14.347  0.00  0.00    +0.000 C 
ATOM     17  C   UNL     1       5.856   3.478  15.503  0.00  0.00    +0.000 C 
ATOM     18  C   UNL     1       6.363   4.170  16.775  0.00  0.00    +0.000 C 
BRANCH  14  19
ATOM     19  N   UNL     1       7.521   6.431  17.281  0.00  0.00    +0.000 NA
ATOM     20  C   UNL     1       7.688   5.909  18.643  0.00  0.00    +0.000 C 
BRANCH  19  22
ATOM     21  C   UNL     1       8.316   8.689  18.096  0.00  0.00    +0.000 C 
ATOM     22  C   UNL     1       7.255   7.890  17.338  0.00  0.00    +0.000 C 
ENDBRANCH  19  22
ENDBRANCH  14  19
ENDBRANCH  13  14
ENDBRANCH   1  13
TORSDOF 4
ENDMDL
