MODEL 1
REMARK VINA RESULT:      -7.4      0.000      0.000
REMARK  Name = 
REMARK  9 active torsions:
REMARK  status: ('A' for Active; 'I' for Inactive)
REMARK    1  A    between atoms: C_1  and  C_2
REMARK    2  A    between atoms: C_2  and  C_3
REMARK    3  A    between atoms: C_3  and  C_4
REMARK    4  A    between atoms: C_4  and  C_5
REMARK    5  A    between atoms: C_5  and  C_6
REMARK    6  A    between atoms: C_6  and  C_7
REMARK    7  A    between atoms: N_11  and  C_12
REMARK    8  A    between atoms: C_12  and  C_13
REMARK    9  A    between atoms: N_19  and  C_20
REMARK                            x       y       z     vdW  Elec       q    Type
REMARK                         _______ _______ _______ _____ _____    ______ ____
ROOT
ATOM      1  C   UNL     1       5.650   5.451  17.316  0.00  0.00    +0.000 C 
ATOM      2  N   UNL     1       4.345   5.236  16.734  0.00  0.00    +0.000 N 
ATOM      3  C   UNL     1       3.413   4.818  17.656  0.00  0.00    +0.000 C 
ATOM      4  O   UNL     1       2.274   4.495  17.371  0.00  0.00    +0.000 OA
ATOM      5  N   UNL     1       3.990   4.824  18.887  0.00  0.00    +0.000 N 
ATOM      6  C   UNL     1       5.308   5.156  18.800  0.00  0.00    +0.000 C 
ATOM      7  O   UNL     1       6.095   5.172  19.738  0.00  0.00    +0.000 OA
ATOM      8  H   UNL     1       4.121   5.255  15.744  0.00  0.00    +0.000 HD
ENDROOT
BRANCH   1   9
ATOM      9  C   UNL     1       6.105   6.918  17.179  0.00  0.00    +0.000 C 
BRANCH   9  11
ATOM     10  C   UNL     1       7.937   8.567  17.784  0.00  0.00    +0.000 C 
ATOM     11  C   UNL     1       7.604   7.125  17.433  0.00  0.00    +0.000 C 
ENDBRANCH   9  11
ENDBRANCH   1   9
BRANCH   1  12
ATOM     12  C   UNL     1       6.689   4.455  16.772  0.00  0.00    +0.000 C 
BRANCH  12  13
ATOM     13  C   UNL     1       6.384   3.875  15.387  0.00  0.00    +0.000 C 
ATOM     14  C   UNL     1       6.957   4.770  14.297  0.00  0.00    +0.000 C 
ENDBRANCH  12  13
ENDBRANCH   1  12
BRANCH   5  15
ATOM     15  C   UNL     1       3.284   4.495  20.107  0.00  0.00    +0.000 C 
BRANCH  15  16
ATOM     16  C   UNL     1       2.204   5.513  20.461  0.00  0.00    +0.000 C 
ATOM     17  O   UNL     1       1.064   5.134  20.736  0.00  0.00    +0.000 OA
ATOM     18  N   UNL     1       2.554   6.833  20.248  0.00  0.00    +0.000 N 
ATOM     19  C   UNL     1       1.636   7.839  20.447  0.00  0.00    +0.000 A 
ATOM     20  C   UNL     1       0.693   7.955  21.494  0.00  0.00    +0.000 A 
ATOM     21  C   UNL     1      -0.059   9.062  21.178  0.00  0.00    +0.000 A 
ATOM     22  N   UNL     1       0.430   9.501  19.983  0.00  0.00    +0.000 N 
ATOM     23  C   UNL     1      -0.196  10.455  19.102  0.00  0.00    +0.000 C 
ATOM     24  N   UNL     1       1.551   8.861  19.593  0.00  0.00    +0.000 NA
ATOM     25  H   UNL     1       3.256   7.041  19.544  0.00  0.00    +0.000 HD
ENDBRANCH  15  16
ENDBRANCH   5  15
TORSDOF 6
ENDMDL
MODEL 2
REMARK VINA RESULT:      -7.2      1.285      2.730
REMARK  Name = 
REMARK  9 active torsions:
REMARK  status: ('A' for Active; 'I' for Inactive)
REMARK    1  A    between atoms: C_1  and  C_2
REMARK    2  A    between atoms: C_2  and  C_3
REMARK    3  A    between atoms: C_3  and  C_4
REMARK    4  A    between atoms: C_4  and  C_5
REMARK    5  A    between atoms: C_5  and  C_6
REMARK    6  A    between atoms: C_6  and  C_7
REMARK    7  A    between atoms: N_11  and  C_12
REMARK    8  A    between atoms: C_12  and  C_13
REMARK    9  A    between atoms: N_19  and  C_20
REMARK                            x       y       z     vdW  Elec       q    Type
REMARK                         _______ _______ _______ _____ _____    ______ ____
ROOT
ATOM      1  C   UNL     1       6.428   5.236  17.545  0.00  0.00    +0.000 C 
ATOM      2  N   UNL     1       6.353   4.110  18.449  0.00  0.00    +0.000 N 
ATOM      3  C   UNL     1       5.066   3.840  18.856  0.00  0.00    +0.000 C 
ATOM      4  O   UNL     1       4.780   2.993  19.682  0.00  0.00    +0.000 OA
ATOM      5  N   UNL     1       4.219   4.674  18.196  0.00  0.00    +0.000 N 
ATOM      6  C   UNL     1       4.914   5.550  17.419  0.00  0.00    +0.000 C 
ATOM      7  O   UNL     1       4.420   6.462  16.768  0.00  0.00    +0.000 OA
ATOM      8  H   UNL     1       7.140   3.623  18.864  0.00  0.00    +0.000 HD
ENDROOT
BRANCH   1   9
ATOM      9  C   UNL     1       6.982   4.827  16.165  0.00  0.00    +0.000 C 
BRANCH   9  11
ATOM     10  C   UNL     1       6.476   3.967  13.831  0.00  0.00    +0.000 C 
ATOM     11  C   UNL     1       5.894   4.425  15.160  0.00  0.00    +0.000 C 
ENDBRANCH   9  11
ENDBRANCH   1   9
BRANCH   1  12
ATOM     12  C   UNL     1       7.196   6.416  18.166  0.00  0.00    +0.000 C 
BRANCH  12  13
ATOM     13  C   UNL     1       7.535   7.560  17.205  0.00  0.00    +0.000 C 
ATOM     14  C   UNL     1       8.151   8.727  17.964  0.00  0.00    +0.000 C 
ENDBRANCH  12  13
ENDBRANCH   1  12
BRANCH   5  15
ATOM     15  C   UNL     1       2.780   4.631  18.334  0.00  0.00    +0.000 C 
BRANCH  15  16
ATOM     16  C   UNL     1       2.255   5.594  19.395  0.00  0.00    +0.000 C 
ATOM     17  O   UNL     1       1.615   5.166  20.357  0.00  0.00    +0.000 OA
ATOM     18  N   UNL     1       2.378   6.934  19.077  0.00  0.00    +0.000 N 
ATOM     19  C   UNL     1       1.862   7.898  19.913  0.00  0.00    +0.000 A 
ATOM     20  C   UNL     1       1.904   7.931  21.326  0.00  0.00    +0.000 A 
ATOM     21  C   UNL     1       1.155   9.028  21.681  0.00  0.00    +0.000 A 
ATOM     22  N   UNL     1       0.691   9.542  20.508  0.00  0.00    +0.000 N 
ATOM     23  C   UNL     1      -0.360  10.520  20.359  0.00  0.00    +0.000 C 
ATOM     24  N   UNL     1       1.225   8.959  19.416  0.00  0.00    +0.000 NA
ATOM     25  H   UNL     1       2.403   7.200  18.098  0.00  0.00    +0.000 HD
ENDBRANCH  15  16
ENDBRANCH   5  15
TORSDOF 6
ENDMDL
MODEL 3
REMARK VINA RESULT:      -6.8      2.610      7.090
REMARK  Name = 
REMARK  9 active torsions:
REMARK  status: ('A' for Active; 'I' for Inactive)
REMARK    1  A    between atoms: C_1  and  C_2
REMARK    2  A    between atoms: C_2  and  C_3
REMARK    3  A    between atoms: C_3  and  C_4
REMARK    4  A    between atoms: C_4  and  C_5
REMARK    5  A    between atoms: C_5  and  C_6
REMARK    6  A    between atoms: C_6  and  C_7
REMARK    7  A    between atoms: N_11  and  C_12
REMARK    8  A    between atoms: C_12  and  C_13
REMARK    9  A    between atoms: N_19  and  C_20
REMARK                            x       y       z     vdW  Elec       q    Type
REMARK                         _______ _______ _______ _____ _____    ______ ____
ROOT
ATOM      1  C   UNL     1       2.351   4.970  19.016  0.00  0.00    +0.000 C 
ATOM      2  N   UNL     1       2.196   6.277  18.419  0.00  0.00    +0.000 N 
ATOM      3  C   UNL     1       3.401   6.863  18.102  0.00  0.00    +0.000 C 
ATOM      4  O   UNL     1       3.511   7.997  17.671  0.00  0.00    +0.000 OA
ATOM      5  N   UNL     1       4.396   5.975  18.364  0.00  0.00    +0.000 N 
ATOM      6  C   UNL     1       3.894   4.840  18.925  0.00  0.00    +0.000 C 
ATOM      7  O   UNL     1       4.562   3.898  19.332  0.00  0.00    +0.000 OA
ATOM      8  H   UNL     1       1.330   6.800  18.338  0.00  0.00    +0.000 HD
ENDROOT
BRANCH   1   9
ATOM      9  C   UNL     1       1.695   3.868  18.158  0.00  0.00    +0.000 C 
BRANCH   9  11
ATOM     10  C   UNL     1       2.854   1.624  17.907  0.00  0.00    +0.000 C 
ATOM     11  C   UNL     1       2.701   3.033  17.354  0.00  0.00    +0.000 C 
ENDBRANCH   9  11
ENDBRANCH   1   9
BRANCH   1  12
ATOM     12  C   UNL     1       1.870   4.949  20.477  0.00  0.00    +0.000 C 
BRANCH  12  13
ATOM     13  C   UNL     1       1.193   3.652  20.930  0.00  0.00    +0.000 C 
ATOM     14  C   UNL     1       2.182   2.767  21.676  0.00  0.00    +0.000 C 
ENDBRANCH  12  13
ENDBRANCH   1  12
BRANCH   5  15
ATOM     15  C   UNL     1       5.794   6.233  18.095  0.00  0.00    +0.000 C 
BRANCH  15  16
ATOM     16  C   UNL     1       6.155   6.076  16.621  0.00  0.00    +0.000 C 
ATOM     17  O   UNL     1       6.103   7.047  15.865  0.00  0.00    +0.000 OA
ATOM     18  N   UNL     1       6.330   4.771  16.200  0.00  0.00    +0.000 N 
ATOM     19  C   UNL     1       6.571   4.494  14.873  0.00  0.00    +0.000 A 
ATOM     20  C   UNL     1       7.409   5.200  13.980  0.00  0.00    +0.000 A 
ATOM     21  C   UNL     1       7.218   4.601  12.758  0.00  0.00    +0.000 A 
ATOM     22  N   UNL     1       6.279   3.635  12.974  0.00  0.00    +0.000 N 
ATOM     23  C   UNL     1       5.538   2.922  11.962  0.00  0.00    +0.000 C 
ATOM     24  N   UNL     1       5.980   3.457  14.276  0.00  0.00    +0.000 NA
ATOM     25  H   UNL     1       5.846   4.031  16.700  0.00  0.00    +0.000 HD
ENDBRANCH  15  16
ENDBRANCH   5  15
TORSDOF 6
ENDMDL
MODEL 4
REMARK VINA RESULT:      -6.7      4.296      6.529
REMARK  Name = 
REMARK  9 active torsions:
REMARK  status: ('A' for Active; 'I' for Inactive)
REMARK    1  A    between atoms: C_1  and  C_2
REMARK    2  A    between atoms: C_2  and  C_3
REMARK    3  A    between atoms: C_3  and  C_4
REMARK    4  A    between atoms: C_4  and  C_5
REMARK    5  A    between atoms: C_5  and  C_6
REMARK    6  A    between atoms: C_6  and  C_7
REMARK    7  A    between atoms: N_11  and  C_12
REMARK    8  A    between atoms: C_12  and  C_13
REMARK    9  A    between atoms: N_19  and  C_20
REMARK                            x       y       z     vdW  Elec       q    Type
REMARK                         _______ _______ _______ _____ _____    ______ ____
ROOT
ATOM      1  C   UNL     1       5.452   5.008  16.580  0.00  0.00    +0.000 C 
ATOM      2  N   UNL     1       6.528   4.076  16.827  0.00  0.00    +0.000 N 
ATOM      3  C   UNL     1       7.529   4.613  17.606  0.00  0.00    +0.000 C 
ATOM      4  O   UNL     1       8.569   4.036  17.866  0.00  0.00    +0.000 OA
ATOM      5  N   UNL     1       7.150   5.858  17.998  0.00  0.00    +0.000 N 
ATOM      6  C   UNL     1       5.958   6.200  17.434  0.00  0.00    +0.000 C 
ATOM      7  O   UNL     1       5.409   7.288  17.549  0.00  0.00    +0.000 OA
ATOM      8  H   UNL     1       6.642   3.165  16.396  0.00  0.00    +0.000 HD
ENDROOT
BRANCH   1   9
ATOM      9  C   UNL     1       4.112   4.502  17.154  0.00  0.00    +0.000 C 
BRANCH   9  11
ATOM     10  C   UNL     1       3.855   2.644  18.864  0.00  0.00    +0.000 C 
ATOM     11  C   UNL     1       4.081   2.987  17.400  0.00  0.00    +0.000 C 
ENDBRANCH   9  11
ENDBRANCH   1   9
BRANCH   1  12
ATOM     12  C   UNL     1       5.354   5.385  15.092  0.00  0.00    +0.000 C 
BRANCH  12  13
ATOM     13  C   UNL     1       6.438   4.789  14.188  0.00  0.00    +0.000 C 
ATOM     14  C   UNL     1       5.838   3.747  13.254  0.00  0.00    +0.000 C 
ENDBRANCH  12  13
ENDBRANCH   1  12
BRANCH   5  15
ATOM     15  C   UNL     1       7.935   6.696  18.878  0.00  0.00    +0.000 C 
BRANCH  15  16
ATOM     16  C   UNL     1       8.222   8.074  18.289  0.00  0.00    +0.000 C 
ATOM     17  O   UNL     1       8.121   8.261  17.075  0.00  0.00    +0.000 OA
ATOM     18  N   UNL     1       8.780   8.980  19.171  0.00  0.00    +0.000 N 
ATOM     19  C   UNL     1       9.165  10.228  18.738  0.00  0.00    +0.000 A 
ATOM     20  C   UNL     1       8.483  11.082  17.840  0.00  0.00    +0.000 A 
ATOM     21  C   UNL     1       9.329  12.146  17.644  0.00  0.00    +0.000 A 
ATOM     22  N   UNL     1      10.445  11.859  18.373  0.00  0.00    +0.000 N 
ATOM     23  C   UNL     1      11.723  12.521  18.277  0.00  0.00    +0.000 C 
ATOM     24  N   UNL     1      10.309  10.772  19.158  0.00  0.00    +0.000 NA
ATOM     25  H   UNL     1       9.320   8.626  19.955  0.00  0.00    +0.000 HD
ENDBRANCH  15  16
ENDBRANCH   5  15
TORSDOF 6
ENDMDL
MODEL 5
REMARK VINA RESULT:      -6.6      1.230      2.727
REMARK  Name = 
REMARK  9 active torsions:
REMARK  status: ('A' for Active; 'I' for Inactive)
REMARK    1  A    between atoms: C_1  and  C_2
REMARK    2  A    between atoms: C_2  and  C_3
REMARK    3  A    between atoms: C_3  and  C_4
REMARK    4  A    between atoms: C_4  and  C_5
REMARK    5  A    between atoms: C_5  and  C_6
REMARK    6  A    between atoms: C_6  and  C_7
REMARK    7  A    between atoms: N_11  and  C_12
REMARK    8  A    between atoms: C_12  and  C_13
REMARK    9  A    between atoms: N_19  and  C_20
REMARK                            x       y       z     vdW  Elec       q    Type
REMARK                         _______ _______ _______ _____ _____    ______ ____
ROOT
ATOM      1  C   UNL     1       5.292   4.469  17.250  0.00  0.00    +0.000 C 
ATOM      2  N   UNL     1       5.856   3.696  18.334  0.00  0.00    +0.000 N 
ATOM      3  C   UNL     1       4.925   3.364  19.291  0.00  0.00    +0.000 C 
ATOM      4  O   UNL     1       5.196   2.792  20.331  0.00  0.00    +0.000 OA
ATOM      5  N   UNL     1       3.704   3.792  18.874  0.00  0.00    +0.000 N 
ATOM      6  C   UNL     1       3.807   4.473  17.699  0.00  0.00    +0.000 C 
ATOM      7  O   UNL     1       2.883   5.035  17.125  0.00  0.00    +0.000 OA
ATOM      8  H   UNL     1       6.841   3.504  18.482  0.00  0.00    +0.000 HD
ENDROOT
BRANCH   1   9
ATOM      9  C   UNL     1       5.414   3.735  15.899  0.00  0.00    +0.000 C 
BRANCH   9  11
ATOM     10  C   UNL     1       6.295   3.990  13.532  0.00  0.00    +0.000 C 
ATOM     11  C   UNL     1       5.607   4.677  14.702  0.00  0.00    +0.000 C 
ENDBRANCH   9  11
ENDBRANCH   1   9
BRANCH   1  12
ATOM     12  C   UNL     1       5.869   5.894  17.205  0.00  0.00    +0.000 C 
BRANCH  12  13
ATOM     13  C   UNL     1       7.376   6.004  17.458  0.00  0.00    +0.000 C 
ATOM     14  C   UNL     1       7.737   7.408  17.924  0.00  0.00    +0.000 C 
ENDBRANCH  12  13
ENDBRANCH   1  12
BRANCH   5  15
ATOM     15  C   UNL     1       2.478   3.560  19.607  0.00  0.00    +0.000 C 
BRANCH  15  16
ATOM     16  C   UNL     1       1.812   4.850  20.076  0.00  0.00    +0.000 C 
ATOM     17  O   UNL     1       0.674   4.823  20.546  0.00  0.00    +0.000 OA
ATOM     18  N   UNL     1       2.489   6.009  19.745  0.00  0.00    +0.000 N 
ATOM     19  C   UNL     1       1.947   7.240  20.036  0.00  0.00    +0.000 A 
ATOM     20  C   UNL     1       1.265   7.630  21.211  0.00  0.00    +0.000 A 
ATOM     21  C   UNL     1       0.824   8.907  20.963  0.00  0.00    +0.000 A 
ATOM     22  N   UNL     1       1.214   9.182  19.686  0.00  0.00    +0.000 N 
ATOM     23  C   UNL     1       0.753  10.277  18.868  0.00  0.00    +0.000 C 
ATOM     24  N   UNL     1       2.021   8.241  19.156  0.00  0.00    +0.000 NA
ATOM     25  H   UNL     1       3.095   6.001  18.929  0.00  0.00    +0.000 HD
ENDBRANCH  15  16
ENDBRANCH   5  15
TORSDOF 6
ENDMDL
MODEL 6
REMARK VINA RESULT:      -6.5      2.883      7.119
REMARK  Name = 
REMARK  9 active torsions:
REMARK  status: ('A' for Active; 'I' for Inactive)
REMARK    1  A    between atoms: C_1  and  C_2
REMARK    2  A    between atoms: C_2  and  C_3
REMARK    3  A    between atoms: C_3  and  C_4
REMARK    4  A    between atoms: C_4  and  C_5
REMARK    5  A    between atoms: C_5  and  C_6
REMARK    6  A    between atoms: C_6  and  C_7
REMARK    7  A    between atoms: N_11  and  C_12
REMARK    8  A    between atoms: C_12  and  C_13
REMARK    9  A    between atoms: N_19  and  C_20
REMARK                            x       y       z     vdW  Elec       q    Type
REMARK                         _______ _______ _______ _____ _____    ______ ____
ROOT
ATOM      1  C   UNL     1       3.574   4.758  18.850  0.00  0.00    +0.000 C 
ATOM      2  N   UNL     1       4.522   5.497  19.654  0.00  0.00    +0.000 N 
ATOM      3  C   UNL     1       5.820   5.341  19.223  0.00  0.00    +0.000 C 
ATOM      4  O   UNL     1       6.786   5.802  19.803  0.00  0.00    +0.000 OA
ATOM      5  N   UNL     1       5.812   4.597  18.085  0.00  0.00    +0.000 N 
ATOM      6  C   UNL     1       4.549   4.182  17.790  0.00  0.00    +0.000 C 
ATOM      7  O   UNL     1       4.249   3.439  16.864  0.00  0.00    +0.000 OA
ATOM      8  H   UNL     1       4.319   5.985  20.519  0.00  0.00    +0.000 HD
ENDROOT
BRANCH   1   9
ATOM      9  C   UNL     1       2.560   5.691  18.157  0.00  0.00    +0.000 C 
BRANCH   9  11
ATOM     10  C   UNL     1       2.661   8.201  17.797  0.00  0.00    +0.000 C 
ATOM     11  C   UNL     1       2.459   7.079  18.804  0.00  0.00    +0.000 C 
ENDBRANCH   9  11
ENDBRANCH   1   9
BRANCH   1  12
ATOM     12  C   UNL     1       2.895   3.637  19.655  0.00  0.00    +0.000 C 
BRANCH  12  13
ATOM     13  C   UNL     1       1.365   3.608  19.583  0.00  0.00    +0.000 C 
ATOM     14  C   UNL     1       0.895   2.449  18.715  0.00  0.00    +0.000 C 
ENDBRANCH  12  13
ENDBRANCH   1  12
BRANCH   5  15
ATOM     15  C   UNL     1       7.001   4.284  17.323  0.00  0.00    +0.000 C 
BRANCH  15  16
ATOM     16  C   UNL     1       6.845   4.571  15.833  0.00  0.00    +0.000 C 
ATOM     17  O   UNL     1       6.846   5.733  15.423  0.00  0.00    +0.000 OA
ATOM     18  N   UNL     1       6.510   3.474  15.060  0.00  0.00    +0.000 N 
ATOM     19  C   UNL     1       6.256   3.621  13.715  0.00  0.00    +0.000 A 
ATOM     20  C   UNL     1       6.952   4.427  12.786  0.00  0.00    +0.000 A 
ATOM     21  C   UNL     1       6.243   4.317  11.614  0.00  0.00    +0.000 A 
ATOM     22  N   UNL     1       5.179   3.517  11.910  0.00  0.00    +0.000 N 
ATOM     23  C   UNL     1       4.000   3.328  11.101  0.00  0.00    +0.000 C 
ATOM     24  N   UNL     1       5.246   2.967  13.139  0.00  0.00    +0.000 NA
ATOM     25  H   UNL     1       6.010   2.706  15.498  0.00  0.00    +0.000 HD
ENDBRANCH  15  16
ENDBRANCH   5  15
TORSDOF 6
ENDMDL
MODEL 7
REMARK VINA RESULT:      -6.5      4.226      6.611
REMARK  Name = 
REMARK  9 active torsions:
REMARK  status: ('A' for Active; 'I' for Inactive)
REMARK    1  A    between atoms: C_1  and  C_2
REMARK    2  A    between atoms: C_2  and  C_3
REMARK    3  A    between atoms: C_3  and  C_4
REMARK    4  A    between atoms: C_4  and  C_5
REMARK    5  A    between atoms: C_5  and  C_6
REMARK    6  A    between atoms: C_6  and  C_7
REMARK    7  A    between atoms: N_11  and  C_12
REMARK    8  A    between atoms: C_12  and  C_13
REMARK    9  A    between atoms: N_19  and  C_20
REMARK                            x       y       z     vdW  Elec       q    Type
REMARK                         _______ _______ _______ _____ _____    ______ ____
ROOT
ATOM      1  C   UNL     1       6.072   4.547  16.018  0.00  0.00    +0.000 C 
ATOM      2  N   UNL     1       5.269   5.739  16.174  0.00  0.00    +0.000 N 
ATOM      3  C   UNL     1       5.771   6.599  17.124  0.00  0.00    +0.000 C 
ATOM      4  O   UNL     1       5.210   7.619  17.480  0.00  0.00    +0.000 OA
ATOM      5  N   UNL     1       6.953   6.102  17.576  0.00  0.00    +0.000 N 
ATOM      6  C   UNL     1       7.214   4.890  17.011  0.00  0.00    +0.000 C 
ATOM      7  O   UNL     1       8.170   4.176  17.283  0.00  0.00    +0.000 OA
ATOM      8  H   UNL     1       4.365   5.911  15.748  0.00  0.00    +0.000 HD
ENDROOT
BRANCH   1   9
ATOM      9  C   UNL     1       6.653   4.429  14.594  0.00  0.00    +0.000 C 
BRANCH   9  11
ATOM     10  C   UNL     1       6.326   3.461  12.271  0.00  0.00    +0.000 C 
ATOM     11  C   UNL     1       5.650   3.896  13.562  0.00  0.00    +0.000 C 
ENDBRANCH   9  11
ENDBRANCH   1   9
BRANCH   1  12
ATOM     12  C   UNL     1       5.310   3.285  16.454  0.00  0.00    +0.000 C 
BRANCH  12  13
ATOM     13  C   UNL     1       4.371   3.462  17.651  0.00  0.00    +0.000 C 
ATOM     14  C   UNL     1       2.925   3.237  17.231  0.00  0.00    +0.000 C 
ENDBRANCH  12  13
ENDBRANCH   1  12
BRANCH   5  15
ATOM     15  C   UNL     1       7.791   6.777  18.543  0.00  0.00    +0.000 C 
BRANCH  15  16
ATOM     16  C   UNL     1       8.201   8.178  18.100  0.00  0.00    +0.000 C 
ATOM     17  O   UNL     1       8.239   8.462  16.901  0.00  0.00    +0.000 OA
ATOM     18  N   UNL     1       8.701   8.984  19.105  0.00  0.00    +0.000 N 
ATOM     19  C   UNL     1       9.186  10.239  18.816  0.00  0.00    +0.000 A 
ATOM     20  C   UNL     1       8.643  11.193  17.924  0.00  0.00    +0.000 A 
ATOM     21  C   UNL     1       9.553  12.223  17.903  0.00  0.00    +0.000 A 
ATOM     22  N   UNL     1      10.570  11.823  18.718  0.00  0.00    +0.000 N 
ATOM     23  C   UNL     1      11.879  12.421  18.808  0.00  0.00    +0.000 C 
ATOM     24  N   UNL     1      10.302  10.688  19.394  0.00  0.00    +0.000 NA
ATOM     25  H   UNL     1       9.138   8.543  19.909  0.00  0.00    +0.000 HD
ENDBRANCH  15  16
ENDBRANCH   5  15
TORSDOF 6
ENDMDL
MODEL 8
REMARK VINA RESULT:      -6.4      2.872      7.347
REMARK  Name = 
REMARK  9 active torsions:
REMARK  status: ('A' for Active; 'I' for Inactive)
REMARK    1  A    between atoms: C_1  and  C_2
REMARK    2  A    between atoms: C_2  and  C_3
REMARK    3  A    between atoms: C_3  and  C_4
REMARK    4  A    between atoms: C_4  and  C_5
REMARK    5  A    between atoms: C_5  and  C_6
REMARK    6  A    between atoms: C_6  and  C_7
REMARK    7  A    between atoms: N_11  and  C_12
REMARK    8  A    between atoms: C_12  and  C_13
REMARK    9  A    between atoms: N_19  and  C_20
REMARK                            x       y       z     vdW  Elec       q    Type
REMARK                         _______ _______ _______ _____ _____    ______ ____
ROOT
ATOM      1  C   UNL     1       3.224   5.276  18.689  0.00  0.00    +0.000 C 
ATOM      2  N   UNL     1       3.534   6.530  18.041  0.00  0.00    +0.000 N 
ATOM      3  C   UNL     1       4.821   6.573  17.555  0.00  0.00    +0.000 C 
ATOM      4  O   UNL     1       5.323   7.561  17.050  0.00  0.00    +0.000 OA
ATOM      5  N   UNL     1       5.398   5.357  17.751  0.00  0.00    +0.000 N 
ATOM      6  C   UNL     1       4.558   4.529  18.429  0.00  0.00    +0.000 C 
ATOM      7  O   UNL     1       4.836   3.398  18.809  0.00  0.00    +0.000 OA
ATOM      8  H   UNL     1       2.950   7.359  18.031  0.00  0.00    +0.000 HD
ENDROOT
BRANCH   1   9
ATOM      9  C   UNL     1       2.075   4.532  17.978  0.00  0.00    +0.000 C 
BRANCH   9  11
ATOM     10  C   UNL     1       1.542   2.073  18.310  0.00  0.00    +0.000 C 
ATOM     11  C   UNL     1       2.421   3.087  17.594  0.00  0.00    +0.000 C 
ENDBRANCH   9  11
ENDBRANCH   1   9
BRANCH   1  12
ATOM     12  C   UNL     1       2.968   5.460  20.195  0.00  0.00    +0.000 C 
BRANCH  12  13
ATOM     13  C   UNL     1       1.712   4.772  20.739  0.00  0.00    +0.000 C 
ATOM     14  C   UNL     1       2.091   3.590  21.620  0.00  0.00    +0.000 C 
ENDBRANCH  12  13
ENDBRANCH   1  12
BRANCH   5  15
ATOM     15  C   UNL     1       6.734   5.022  17.308  0.00  0.00    +0.000 C 
BRANCH  15  16
ATOM     16  C   UNL     1       6.839   4.872  15.793  0.00  0.00    +0.000 C 
ATOM     17  O   UNL     1       7.413   5.733  15.124  0.00  0.00    +0.000 OA
ATOM     18  N   UNL     1       6.087   3.844  15.256  0.00  0.00    +0.000 N 
ATOM     19  C   UNL     1       6.029   3.662  13.893  0.00  0.00    +0.000 A 
ATOM     20  C   UNL     1       7.087   3.763  12.960  0.00  0.00    +0.000 A 
ATOM     21  C   UNL     1       6.495   3.610  11.729  0.00  0.00    +0.000 A 
ATOM     22  N   UNL     1       5.163   3.474  11.984  0.00  0.00    +0.000 N 
ATOM     23  C   UNL     1       4.094   3.566  11.019  0.00  0.00    +0.000 C 
ATOM     24  N   UNL     1       4.875   3.358  13.296  0.00  0.00    +0.000 NA
ATOM     25  H   UNL     1       5.256   3.540  15.754  0.00  0.00    +0.000 HD
ENDBRANCH  15  16
ENDBRANCH   5  15
TORSDOF 6
ENDMDL
MODEL 9
REMARK VINA RESULT:      -6.4      3.213      6.311
REMARK  Name = 
REMARK  9 active torsions:
REMARK  status: ('A' for Active; 'I' for Inactive)
REMARK    1  A    between atoms: C_1  and  C_2
REMARK    2  A    between atoms: C_2  and  C_3
REMARK    3  A    between atoms: C_3  and  C_4
REMARK    4  A    between atoms: C_4  and  C_5
REMARK    5  A    between atoms: C_5  and  C_6
REMARK    6  A    between atoms: C_6  and  C_7
REMARK    7  A    between atoms: N_11  and  C_12
REMARK    8  A    between atoms: C_12  and  C_13
REMARK    9  A    between atoms: N_19  and  C_20
REMARK                            x       y       z     vdW  Elec       q    Type
REMARK                         _______ _______ _______ _____ _____    ______ ____
ROOT
ATOM      1  C   UNL     1       3.952   4.330  18.003  0.00  0.00    +0.000 C 
ATOM      2  N   UNL     1       4.543   3.959  16.737  0.00  0.00    +0.000 N 
ATOM      3  C   UNL     1       5.862   4.338  16.634  0.00  0.00    +0.000 C 
ATOM      4  O   UNL     1       6.529   4.205  15.625  0.00  0.00    +0.000 OA
ATOM      5  N   UNL     1       6.251   4.878  17.820  0.00  0.00    +0.000 N 
ATOM      6  C   UNL     1       5.203   4.943  18.687  0.00  0.00    +0.000 C 
ATOM      7  O   UNL     1       5.239   5.448  19.802  0.00  0.00    +0.000 OA
ATOM      8  H   UNL     1       4.051   3.576  15.937  0.00  0.00    +0.000 HD
ENDROOT
BRANCH   1   9
ATOM      9  C   UNL     1       3.487   3.096  18.803  0.00  0.00    +0.000 C 
BRANCH   9  11
ATOM     10  C   UNL     1       2.394   3.451  21.065  0.00  0.00    +0.000 C 
ATOM     11  C   UNL     1       2.174   3.315  19.566  0.00  0.00    +0.000 C 
ENDBRANCH   9  11
ENDBRANCH   1   9
BRANCH   1  12
ATOM     12  C   UNL     1       2.839   5.377  17.828  0.00  0.00    +0.000 C 
BRANCH  12  13
ATOM     13  C   UNL     1       3.315   6.818  17.622  0.00  0.00    +0.000 C 
ATOM     14  C   UNL     1       2.340   7.798  18.260  0.00  0.00    +0.000 C 
ENDBRANCH  12  13
ENDBRANCH   1  12
BRANCH   5  15
ATOM     15  C   UNL     1       7.597   5.333  18.092  0.00  0.00    +0.000 C 
BRANCH  15  16
ATOM     16  C   UNL     1       7.812   6.801  17.737  0.00  0.00    +0.000 C 
ATOM     17  O   UNL     1       7.847   7.153  16.557  0.00  0.00    +0.000 OA
ATOM     18  N   UNL     1       8.156   7.614  18.801  0.00  0.00    +0.000 N 
ATOM     19  C   UNL     1       8.462   8.940  18.595  0.00  0.00    +0.000 A 
ATOM     20  C   UNL     1       7.814   9.853  17.731  0.00  0.00    +0.000 A 
ATOM     21  C   UNL     1       8.564  11.003  17.798  0.00  0.00    +0.000 A 
ATOM     22  N   UNL     1       9.601  10.709  18.633  0.00  0.00    +0.000 N 
ATOM     23  C   UNL     1      10.805  11.484  18.805  0.00  0.00    +0.000 C 
ATOM     24  N   UNL     1       9.480   9.512  19.240  0.00  0.00    +0.000 NA
ATOM     25  H   UNL     1       8.626   7.196  19.599  0.00  0.00    +0.000 HD
ENDBRANCH  15  16
ENDBRANCH   5  15
TORSDOF 6
ENDMDL
