MODEL 1
REMARK VINA RESULT:      -9.4      0.000      0.000
REMARK  Name = 
REMARK  5 active torsions:
REMARK  status: ('A' for Active; 'I' for Inactive)
REMARK    1  A    between atoms: C_1  and  C_2
REMARK    2  A    between atoms: C_11  and  O_12
REMARK    3  A    between atoms: O_12  and  C_13
REMARK    4  A    between atoms: C_13  and  C_14
REMARK    5  A    between atoms: N_16  and  C_17
REMARK                            x       y       z     vdW  Elec       q    Type
REMARK                         _______ _______ _______ _____ _____    ______ ____
ROOT
ATOM      1  C   UNL     1       2.921   4.972  18.027  0.00  0.00    +0.000 C 
ATOM      2  O   UNL     1       1.775   4.680  17.692  0.00  0.00    +0.000 OA
ATOM      3  N   UNL     1       3.332   6.196  18.545  0.00  0.00    +0.000 N 
ATOM      4  H   UNL     1       4.330   6.367  18.576  0.00  0.00    +0.000 HD
ENDROOT
BRANCH   3   5
ATOM      5  C   UNL     1       2.489   7.294  18.834  0.00  0.00    +0.000 A 
ATOM      6  C   UNL     1       2.115   8.234  17.872  0.00  0.00    +0.000 A 
ATOM      7  C   UNL     1       1.351   9.349  18.222  0.00  0.00    +0.000 A 
ATOM      8  C   UNL     1       0.945   9.552  19.546  0.00  0.00    +0.000 A 
ATOM      9  C   UNL     1       0.233  10.704  19.910  0.00  0.00    +0.000 A 
ATOM     10  C   UNL     1      -0.150  10.912  21.234  0.00  0.00    +0.000 A 
ATOM     11  C   UNL     1       0.160   9.963  22.202  0.00  0.00    +0.000 A 
ATOM     12  C   UNL     1       0.860   8.805  21.850  0.00  0.00    +0.000 A 
ATOM     13  C   UNL     1       1.273   8.587  20.523  0.00  0.00    +0.000 A 
ATOM     14  C   UNL     1       2.024   7.453  20.146  0.00  0.00    +0.000 A 
ENDBRANCH   3   5
BRANCH   1  15
ATOM     15  C   UNL     1       4.049   3.952  17.893  0.00  0.00    +0.000 C 
BRANCH  15  16
ATOM     16  O   UNL     1       5.331   4.574  17.985  0.00  0.00    +0.000 OA
BRANCH  16  27
ATOM     17  C   UNL     1       7.471   6.491  17.694  0.00  0.00    +0.000 C 
ATOM     18  C   UNL     1       6.968   5.627  16.579  0.00  0.00    +0.000 A 
ATOM     19  N   UNL     1       7.593   5.768  15.379  0.00  0.00    +0.000 NA
ATOM     20  C   UNL     1       7.132   5.026  14.354  0.00  0.00    +0.000 A 
ATOM     21  C   UNL     1       7.731   5.125  13.105  0.00  0.00    +0.000 A 
ATOM     22  C   UNL     1       7.272   4.380  12.017  0.00  0.00    +0.000 A 
ATOM     23  C   UNL     1       6.191   3.523  12.181  0.00  0.00    +0.000 A 
ATOM     24  C   UNL     1       5.589   3.411  13.435  0.00  0.00    +0.000 A 
ATOM     25  C   UNL     1       6.046   4.140  14.523  0.00  0.00    +0.000 A 
ATOM     26  N   UNL     1       5.448   3.981  15.716  0.00  0.00    +0.000 NA
ATOM     27  C   UNL     1       5.913   4.731  16.741  0.00  0.00    +0.000 A 
ENDBRANCH  16  27
ENDBRANCH  15  16
ENDBRANCH   1  15
TORSDOF 4
ENDMDL
MODEL 2
REMARK VINA RESULT:      -9.2      2.342      3.512
REMARK  Name = 
REMARK  5 active torsions:
REMARK  status: ('A' for Active; 'I' for Inactive)
REMARK    1  A    between atoms: C_1  and  C_2
REMARK    2  A    between atoms: C_11  and  O_12
REMARK    3  A    between atoms: O_12  and  C_13
REMARK    4  A    between atoms: C_13  and  C_14
REMARK    5  A    between atoms: N_16  and  C_17
REMARK                            x       y       z     vdW  Elec       q    Type
REMARK                         _______ _______ _______ _____ _____    ______ ____
ROOT
ATOM      1  C   UNL     1       2.026   4.360  20.465  0.00  0.00    +0.000 C 
ATOM      2  O   UNL     1       0.902   4.163  20.008  0.00  0.00    +0.000 OA
ATOM      3  N   UNL     1       2.715   5.567  20.442  0.00  0.00    +0.000 N 
ATOM      4  H   UNL     1       3.704   5.534  20.658  0.00  0.00    +0.000 HD
ENDROOT
BRANCH   3   5
ATOM      5  C   UNL     1       2.215   6.793  19.944  0.00  0.00    +0.000 A 
ATOM      6  C   UNL     1       2.449   7.232  18.640  0.00  0.00    +0.000 A 
ATOM      7  C   UNL     1       2.008   8.488  18.219  0.00  0.00    +0.000 A 
ATOM      8  C   UNL     1       1.323   9.337  19.095  0.00  0.00    +0.000 A 
ATOM      9  C   UNL     1       0.936  10.624  18.692  0.00  0.00    +0.000 A 
ATOM     10  C   UNL     1       0.275  11.475  19.577  0.00  0.00    +0.000 A 
ATOM     11  C   UNL     1      -0.022  11.041  20.865  0.00  0.00    +0.000 A 
ATOM     12  C   UNL     1       0.348   9.756  21.275  0.00  0.00    +0.000 A 
ATOM     13  C   UNL     1       1.036   8.891  20.403  0.00  0.00    +0.000 A 
ATOM     14  C   UNL     1       1.466   7.608  20.804  0.00  0.00    +0.000 A 
ENDBRANCH   3   5
BRANCH   1  15
ATOM     15  C   UNL     1       2.797   3.225  21.133  0.00  0.00    +0.000 C 
BRANCH  15  16
ATOM     16  O   UNL     1       3.489   2.426  20.174  0.00  0.00    +0.000 OA
BRANCH  16  27
ATOM     17  C   UNL     1       2.636   2.363  17.415  0.00  0.00    +0.000 C 
ATOM     18  C   UNL     1       3.757   3.216  17.922  0.00  0.00    +0.000 A 
ATOM     19  N   UNL     1       4.373   4.009  17.004  0.00  0.00    +0.000 NA
ATOM     20  C   UNL     1       5.408   4.757  17.432  0.00  0.00    +0.000 A 
ATOM     21  C   UNL     1       6.075   5.588  16.542  0.00  0.00    +0.000 A 
ATOM     22  C   UNL     1       7.159   6.368  16.948  0.00  0.00    +0.000 A 
ATOM     23  C   UNL     1       7.585   6.314  18.270  0.00  0.00    +0.000 A 
ATOM     24  C   UNL     1       6.915   5.488  19.173  0.00  0.00    +0.000 A 
ATOM     25  C   UNL     1       5.831   4.718  18.779  0.00  0.00    +0.000 A 
ATOM     26  N   UNL     1       5.203   3.955  19.691  0.00  0.00    +0.000 NA
ATOM     27  C   UNL     1       4.167   3.203  19.254  0.00  0.00    +0.000 A 
ENDBRANCH  16  27
ENDBRANCH  15  16
ENDBRANCH   1  15
TORSDOF 4
ENDMDL
MODEL 3
REMARK VINA RESULT:      -8.9      0.681      1.532
REMARK  Name = 
REMARK  5 active torsions:
REMARK  status: ('A' for Active; 'I' for Inactive)
REMARK    1  A    between atoms: C_1  and  C_2
REMARK    2  A    between atoms: C_11  and  O_12
REMARK    3  A    between atoms: O_12  and  C_13
REMARK    4  A    between atoms: C_13  and  C_14
REMARK    5  A    between atoms: N_16  and  C_17
REMARK                            x       y       z     vdW  Elec       q    Type
REMARK                         _______ _______ _______ _____ _____    ______ ____
ROOT
ATOM      1  C   UNL     1       2.739   4.572  18.009  0.00  0.00    +0.000 C 
ATOM      2  O   UNL     1       1.557   4.245  18.089  0.00  0.00    +0.000 OA
ATOM      3  N   UNL     1       3.280   5.782  18.430  0.00  0.00    +0.000 N 
ATOM      4  H   UNL     1       4.217   5.999  18.112  0.00  0.00    +0.000 HD
ENDROOT
BRANCH   3   5
ATOM      5  C   UNL     1       2.572   6.821  19.078  0.00  0.00    +0.000 A 
ATOM      6  C   UNL     1       2.076   6.703  20.377  0.00  0.00    +0.000 A 
ATOM      7  C   UNL     1       1.310   7.722  20.946  0.00  0.00    +0.000 A 
ATOM      8  C   UNL     1       1.018   8.885  20.224  0.00  0.00    +0.000 A 
ATOM      9  C   UNL     1       0.195   9.881  20.771  0.00  0.00    +0.000 A 
ATOM     10  C   UNL     1      -0.111  11.027  20.039  0.00  0.00    +0.000 A 
ATOM     11  C   UNL     1       0.417  11.197  18.763  0.00  0.00    +0.000 A 
ATOM     12  C   UNL     1       1.248  10.217  18.213  0.00  0.00    +0.000 A 
ATOM     13  C   UNL     1       1.551   9.043  18.927  0.00  0.00    +0.000 A 
ATOM     14  C   UNL     1       2.346   8.014  18.378  0.00  0.00    +0.000 A 
ENDBRANCH   3   5
BRANCH   1  15
ATOM     15  C   UNL     1       3.766   3.616  17.408  0.00  0.00    +0.000 C 
BRANCH  15  16
ATOM     16  O   UNL     1       5.100   4.045  17.677  0.00  0.00    +0.000 OA
BRANCH  16  27
ATOM     17  C   UNL     1       7.101   6.124  17.788  0.00  0.00    +0.000 C 
ATOM     18  C   UNL     1       6.766   5.356  16.547  0.00  0.00    +0.000 A 
ATOM     19  N   UNL     1       7.479   5.671  15.432  0.00  0.00    +0.000 NA
ATOM     20  C   UNL     1       7.167   5.017  14.298  0.00  0.00    +0.000 A 
ATOM     21  C   UNL     1       7.862   5.293  13.127  0.00  0.00    +0.000 A 
ATOM     22  C   UNL     1       7.557   4.643  11.930  0.00  0.00    +0.000 A 
ATOM     23  C   UNL     1       6.536   3.701  11.902  0.00  0.00    +0.000 A 
ATOM     24  C   UNL     1       5.839   3.411  13.075  0.00  0.00    +0.000 A 
ATOM     25  C   UNL     1       6.142   4.045  14.271  0.00  0.00    +0.000 A 
ATOM     26  N   UNL     1       5.458   3.716  15.380  0.00  0.00    +0.000 NA
ATOM     27  C   UNL     1       5.773   4.378  16.516  0.00  0.00    +0.000 A 
ENDBRANCH  16  27
ENDBRANCH  15  16
ENDBRANCH   1  15
TORSDOF 4
ENDMDL
MODEL 4
REMARK VINA RESULT:      -8.7      4.714      7.264
REMARK  Name = 
REMARK  5 active torsions:
REMARK  status: ('A' for Active; 'I' for Inactive)
REMARK    1  A    between atoms: C_1  and  C_2
REMARK    2  A    between atoms: C_11  and  O_12
REMARK    3  A    between atoms: O_12  and  C_13
REMARK    4  A    between atoms: C_13  and  C_14
REMARK    5  A    between atoms: N_16  and  C_17
REMARK                            x       y       z     vdW  Elec       q    Type
REMARK                         _______ _______ _______ _____ _____    ______ ____
ROOT
ATOM      1  C   UNL     1       8.128   8.052  18.214  0.00  0.00    +0.000 C 
ATOM      2  O   UNL     1       7.643   8.540  17.196  0.00  0.00    +0.000 OA
ATOM      3  N   UNL     1       8.930   8.718  19.135  0.00  0.00    +0.000 N 
ATOM      4  H   UNL     1       9.430   8.146  19.804  0.00  0.00    +0.000 HD
ENDROOT
BRANCH   3   5
ATOM      5  C   UNL     1       9.273  10.089  19.090  0.00  0.00    +0.000 A 
ATOM      6  C   UNL     1       9.660  10.735  17.915  0.00  0.00    +0.000 A 
ATOM      7  C   UNL     1      10.072  12.069  17.934  0.00  0.00    +0.000 A 
ATOM      8  C   UNL     1      10.109  12.789  19.133  0.00  0.00    +0.000 A 
ATOM      9  C   UNL     1      10.583  14.109  19.163  0.00  0.00    +0.000 A 
ATOM     10  C   UNL     1      10.641  14.814  20.364  0.00  0.00    +0.000 A 
ATOM     11  C   UNL     1      10.207  14.214  21.542  0.00  0.00    +0.000 A 
ATOM     12  C   UNL     1       9.721  12.903  21.523  0.00  0.00    +0.000 A 
ATOM     13  C   UNL     1       9.676  12.167  20.324  0.00  0.00    +0.000 A 
ATOM     14  C   UNL     1       9.238  10.826  20.282  0.00  0.00    +0.000 A 
ENDBRANCH   3   5
BRANCH   1  15
ATOM     15  C   UNL     1       7.872   6.589  18.567  0.00  0.00    +0.000 C 
BRANCH  15  16
ATOM     16  O   UNL     1       7.633   5.803  17.399  0.00  0.00    +0.000 OA
BRANCH  16  27
ATOM     17  C   UNL     1       6.714   4.463  15.012  0.00  0.00    +0.000 C 
ATOM     18  C   UNL     1       5.885   4.624  16.249  0.00  0.00    +0.000 A 
ATOM     19  N   UNL     1       4.640   4.078  16.215  0.00  0.00    +0.000 NA
ATOM     20  C   UNL     1       3.865   4.243  17.304  0.00  0.00    +0.000 A 
ATOM     21  C   UNL     1       2.585   3.706  17.330  0.00  0.00    +0.000 A 
ATOM     22  C   UNL     1       1.750   3.869  18.437  0.00  0.00    +0.000 A 
ATOM     23  C   UNL     1       2.204   4.584  19.538  0.00  0.00    +0.000 A 
ATOM     24  C   UNL     1       3.493   5.120  19.524  0.00  0.00    +0.000 A 
ATOM     25  C   UNL     1       4.332   4.954  18.432  0.00  0.00    +0.000 A 
ATOM     26  N   UNL     1       5.572   5.469  18.474  0.00  0.00    +0.000 NA
ATOM     27  C   UNL     1       6.344   5.303  17.376  0.00  0.00    +0.000 A 
ENDBRANCH  16  27
ENDBRANCH  15  16
ENDBRANCH   1  15
TORSDOF 4
ENDMDL
MODEL 5
REMARK VINA RESULT:      -8.6      4.621      7.952
REMARK  Name = 
REMARK  5 active torsions:
REMARK  status: ('A' for Active; 'I' for Inactive)
REMARK    1  A    between atoms: C_1  and  C_2
REMARK    2  A    between atoms: C_11  and  O_12
REMARK    3  A    between atoms: O_12  and  C_13
REMARK    4  A    between atoms: C_13  and  C_14
REMARK    5  A    between atoms: N_16  and  C_17
REMARK                            x       y       z     vdW  Elec       q    Type
REMARK                         _______ _______ _______ _____ _____    ______ ____
ROOT
ATOM      1  C   UNL     1       7.998   8.058  18.052  0.00  0.00    +0.000 C 
ATOM      2  O   UNL     1       8.575   7.450  18.951  0.00  0.00    +0.000 OA
ATOM      3  N   UNL     1       8.170   9.401  17.735  0.00  0.00    +0.000 N 
ATOM      4  H   UNL     1       7.482   9.818  17.119  0.00  0.00    +0.000 HD
ENDROOT
BRANCH   3   5
ATOM      5  C   UNL     1       9.085  10.284  18.355  0.00  0.00    +0.000 A 
ATOM      6  C   UNL     1       9.226  10.378  19.740  0.00  0.00    +0.000 A 
ATOM      7  C   UNL     1      10.080  11.325  20.309  0.00  0.00    +0.000 A 
ATOM      8  C   UNL     1      10.813  12.203  19.503  0.00  0.00    +0.000 A 
ATOM      9  C   UNL     1      11.623  13.195  20.075  0.00  0.00    +0.000 A 
ATOM     10  C   UNL     1      12.333  14.083  19.268  0.00  0.00    +0.000 A 
ATOM     11  C   UNL     1      12.256  13.974  17.883  0.00  0.00    +0.000 A 
ATOM     12  C   UNL     1      11.462  12.981  17.301  0.00  0.00    +0.000 A 
ATOM     13  C   UNL     1      10.720  12.091  18.099  0.00  0.00    +0.000 A 
ATOM     14  C   UNL     1       9.871  11.111  17.541  0.00  0.00    +0.000 A 
ENDBRANCH   3   5
BRANCH   1  15
ATOM     15  C   UNL     1       6.989   7.341  17.159  0.00  0.00    +0.000 C 
BRANCH  15  16
ATOM     16  O   UNL     1       7.089   5.923  17.290  0.00  0.00    +0.000 OA
BRANCH  16  27
ATOM     17  C   UNL     1       6.199   4.007  15.321  0.00  0.00    +0.000 C 
ATOM     18  C   UNL     1       5.406   4.385  16.534  0.00  0.00    +0.000 A 
ATOM     19  N   UNL     1       4.212   3.754  16.693  0.00  0.00    +0.000 NA
ATOM     20  C   UNL     1       3.467   4.106  17.758  0.00  0.00    +0.000 A 
ATOM     21  C   UNL     1       2.239   3.495  17.976  0.00  0.00    +0.000 A 
ATOM     22  C   UNL     1       1.435   3.844  19.063  0.00  0.00    +0.000 A 
ATOM     23  C   UNL     1       1.867   4.825  19.947  0.00  0.00    +0.000 A 
ATOM     24  C   UNL     1       3.104   5.438  19.741  0.00  0.00    +0.000 A 
ATOM     25  C   UNL     1       3.913   5.089  18.670  0.00  0.00    +0.000 A 
ATOM     26  N   UNL     1       5.106   5.691  18.526  0.00  0.00    +0.000 NA
ATOM     27  C   UNL     1       5.848   5.336  17.452  0.00  0.00    +0.000 A 
ENDBRANCH  16  27
ENDBRANCH  15  16
ENDBRANCH   1  15
TORSDOF 4
ENDMDL
MODEL 6
REMARK VINA RESULT:      -8.6      4.855      7.565
REMARK  Name = 
REMARK  5 active torsions:
REMARK  status: ('A' for Active; 'I' for Inactive)
REMARK    1  A    between atoms: C_1  and  C_2
REMARK    2  A    between atoms: C_11  and  O_12
REMARK    3  A    between atoms: O_12  and  C_13
REMARK    4  A    between atoms: C_13  and  C_14
REMARK    5  A    between atoms: N_16  and  C_17
REMARK                            x       y       z     vdW  Elec       q    Type
REMARK                         _______ _______ _______ _____ _____    ______ ____
ROOT
ATOM      1  C   UNL     1       8.076   8.660  18.003  0.00  0.00    +0.000 C 
ATOM      2  O   UNL     1       7.563   9.416  17.181  0.00  0.00    +0.000 OA
ATOM      3  N   UNL     1       8.972   9.028  19.001  0.00  0.00    +0.000 N 
ATOM      4  H   UNL     1       9.474   8.280  19.464  0.00  0.00    +0.000 HD
ENDROOT
BRANCH   3   5
ATOM      5  C   UNL     1       9.398  10.347  19.281  0.00  0.00    +0.000 A 
ATOM      6  C   UNL     1       9.330  10.910  20.556  0.00  0.00    +0.000 A 
ATOM      7  C   UNL     1       9.682  12.245  20.768  0.00  0.00    +0.000 A 
ATOM      8  C   UNL     1      10.109  13.049  19.706  0.00  0.00    +0.000 A 
ATOM      9  C   UNL     1      10.402  14.406  19.907  0.00  0.00    +0.000 A 
ATOM     10  C   UNL     1      10.805  15.210  18.842  0.00  0.00    +0.000 A 
ATOM     11  C   UNL     1      10.937  14.660  17.570  0.00  0.00    +0.000 A 
ATOM     12  C   UNL     1      10.659  13.306  17.360  0.00  0.00    +0.000 A 
ATOM     13  C   UNL     1      10.230  12.485  18.418  0.00  0.00    +0.000 A 
ATOM     14  C   UNL     1       9.895  11.127  18.227  0.00  0.00    +0.000 A 
ENDBRANCH   3   5
BRANCH   1  15
ATOM     15  C   UNL     1       7.749   7.169  17.991  0.00  0.00    +0.000 C 
BRANCH  15  16
ATOM     16  O   UNL     1       7.307   6.741  16.703  0.00  0.00    +0.000 OA
BRANCH  16  27
ATOM     17  C   UNL     1       7.045   4.539  14.853  0.00  0.00    +0.000 C 
ATOM     18  C   UNL     1       6.050   4.846  15.929  0.00  0.00    +0.000 A 
ATOM     19  N   UNL     1       4.984   4.006  16.021  0.00  0.00    +0.000 NA
ATOM     20  C   UNL     1       4.060   4.286  16.959  0.00  0.00    +0.000 A 
ATOM     21  C   UNL     1       2.950   3.464  17.103  0.00  0.00    +0.000 A 
ATOM     22  C   UNL     1       1.965   3.731  18.057  0.00  0.00    +0.000 A 
ATOM     23  C   UNL     1       2.092   4.844  18.879  0.00  0.00    +0.000 A 
ATOM     24  C   UNL     1       3.208   5.671  18.746  0.00  0.00    +0.000 A 
ATOM     25  C   UNL     1       4.196   5.407  17.809  0.00  0.00    +0.000 A 
ATOM     26  N   UNL     1       5.264   6.219  17.734  0.00  0.00    +0.000 NA
ATOM     27  C   UNL     1       6.188   5.934  16.788  0.00  0.00    +0.000 A 
ENDBRANCH  16  27
ENDBRANCH  15  16
ENDBRANCH   1  15
TORSDOF 4
ENDMDL
MODEL 7
REMARK VINA RESULT:      -8.5      2.589      3.853
REMARK  Name = 
REMARK  5 active torsions:
REMARK  status: ('A' for Active; 'I' for Inactive)
REMARK    1  A    between atoms: C_1  and  C_2
REMARK    2  A    between atoms: C_11  and  O_12
REMARK    3  A    between atoms: O_12  and  C_13
REMARK    4  A    between atoms: C_13  and  C_14
REMARK    5  A    between atoms: N_16  and  C_17
REMARK                            x       y       z     vdW  Elec       q    Type
REMARK                         _______ _______ _______ _____ _____    ______ ____
ROOT
ATOM      1  C   UNL     1       1.960   4.370  20.617  0.00  0.00    +0.000 C 
ATOM      2  O   UNL     1       0.774   4.182  20.353  0.00  0.00    +0.000 OA
ATOM      3  N   UNL     1       2.586   5.608  20.716  0.00  0.00    +0.000 N 
ATOM      4  H   UNL     1       3.598   5.609  20.727  0.00  0.00    +0.000 HD
ENDROOT
BRANCH   3   5
ATOM      5  C   UNL     1       1.951   6.866  20.592  0.00  0.00    +0.000 A 
ATOM      6  C   UNL     1       1.034   7.347  21.529  0.00  0.00    +0.000 A 
ATOM      7  C   UNL     1       0.368   8.556  21.321  0.00  0.00    +0.000 A 
ATOM      8  C   UNL     1       0.601   9.313  20.168  0.00  0.00    +0.000 A 
ATOM      9  C   UNL     1      -0.115  10.495  19.928  0.00  0.00    +0.000 A 
ATOM     10  C   UNL     1       0.105  11.234  18.766  0.00  0.00    +0.000 A 
ATOM     11  C   UNL     1       1.054  10.807  17.843  0.00  0.00    +0.000 A 
ATOM     12  C   UNL     1       1.782   9.637  18.076  0.00  0.00    +0.000 A 
ATOM     13  C   UNL     1       1.559   8.867  19.232  0.00  0.00    +0.000 A 
ATOM     14  C   UNL     1       2.243   7.655  19.471  0.00  0.00    +0.000 A 
ENDBRANCH   3   5
BRANCH   1  15
ATOM     15  C   UNL     1       2.891   3.189  20.872  0.00  0.00    +0.000 C 
BRANCH  15  16
ATOM     16  O   UNL     1       3.391   2.643  19.651  0.00  0.00    +0.000 OA
BRANCH  16  27
ATOM     17  C   UNL     1       2.455   3.417  17.031  0.00  0.00    +0.000 C 
ATOM     18  C   UNL     1       3.676   3.989  17.682  0.00  0.00    +0.000 A 
ATOM     19  N   UNL     1       4.346   4.940  16.976  0.00  0.00    +0.000 NA
ATOM     20  C   UNL     1       5.467   5.440  17.529  0.00  0.00    +0.000 A 
ATOM     21  C   UNL     1       6.193   6.415  16.857  0.00  0.00    +0.000 A 
ATOM     22  C   UNL     1       7.366   6.948  17.395  0.00  0.00    +0.000 A 
ATOM     23  C   UNL     1       7.823   6.494  18.626  0.00  0.00    +0.000 A 
ATOM     24  C   UNL     1       7.095   5.521  19.312  0.00  0.00    +0.000 A 
ATOM     25  C   UNL     1       5.923   4.995  18.790  0.00  0.00    +0.000 A 
ATOM     26  N   UNL     1       5.244   4.076  19.497  0.00  0.00    +0.000 NA
ATOM     27  C   UNL     1       4.121   3.574  18.936  0.00  0.00    +0.000 A 
ENDBRANCH  16  27
ENDBRANCH  15  16
ENDBRANCH   1  15
TORSDOF 4
ENDMDL
MODEL 8
REMARK VINA RESULT:      -8.4      1.301      1.611
REMARK  Name = 
REMARK  5 active torsions:
REMARK  status: ('A' for Active; 'I' for Inactive)
REMARK    1  A    between atoms: C_1  and  C_2
REMARK    2  A    between atoms: C_11  and  O_12
REMARK    3  A    between atoms: O_12  and  C_13
REMARK    4  A    between atoms: C_13  and  C_14
REMARK    5  A    between atoms: N_16  and  C_17
REMARK                            x       y       z     vdW  Elec       q    Type
REMARK                         _______ _______ _______ _____ _____    ______ ____
ROOT
ATOM      1  C   UNL     1       2.537   5.422  19.669  0.00  0.00    +0.000 C 
ATOM      2  O   UNL     1       1.404   4.957  19.561  0.00  0.00    +0.000 OA
ATOM      3  N   UNL     1       2.853   6.763  19.859  0.00  0.00    +0.000 N 
ATOM      4  H   UNL     1       3.819   7.030  19.717  0.00  0.00    +0.000 HD
ENDROOT
BRANCH   3   5
ATOM      5  C   UNL     1       1.921   7.814  20.025  0.00  0.00    +0.000 A 
ATOM      6  C   UNL     1       1.582   8.694  18.996  0.00  0.00    +0.000 A 
ATOM      7  C   UNL     1       0.722   9.769  19.230  0.00  0.00    +0.000 A 
ATOM      8  C   UNL     1       0.183   9.992  20.502  0.00  0.00    +0.000 A 
ATOM      9  C   UNL     1      -0.629  11.107  20.752  0.00  0.00    +0.000 A 
ATOM     10  C   UNL     1      -1.145  11.338  22.026  0.00  0.00    +0.000 A 
ATOM     11  C   UNL     1      -0.869  10.445  23.057  0.00  0.00    +0.000 A 
ATOM     12  C   UNL     1      -0.070   9.322  22.818  0.00  0.00    +0.000 A 
ATOM     13  C   UNL     1       0.477   9.085  21.543  0.00  0.00    +0.000 A 
ATOM     14  C   UNL     1       1.328   7.989  21.283  0.00  0.00    +0.000 A 
ENDBRANCH   3   5
BRANCH   1  15
ATOM     15  C   UNL     1       3.757   4.508  19.597  0.00  0.00    +0.000 C 
BRANCH  15  16
ATOM     16  O   UNL     1       4.971   5.258  19.547  0.00  0.00    +0.000 OA
BRANCH  16  27
ATOM     17  C   UNL     1       7.794   5.836  19.363  0.00  0.00    +0.000 C 
ATOM     18  C   UNL     1       6.958   5.387  18.205  0.00  0.00    +0.000 A 
ATOM     19  N   UNL     1       7.606   5.236  17.018  0.00  0.00    +0.000 NA
ATOM     20  C   UNL     1       6.865   4.868  15.956  0.00  0.00    +0.000 A 
ATOM     21  C   UNL     1       7.470   4.695  14.718  0.00  0.00    +0.000 A 
ATOM     22  C   UNL     1       6.730   4.326  13.592  0.00  0.00    +0.000 A 
ATOM     23  C   UNL     1       5.360   4.129  13.707  0.00  0.00    +0.000 A 
ATOM     24  C   UNL     1       4.745   4.291  14.949  0.00  0.00    +0.000 A 
ATOM     25  C   UNL     1       5.474   4.648  16.074  0.00  0.00    +0.000 A 
ATOM     26  N   UNL     1       4.842   4.771  17.254  0.00  0.00    +0.000 NA
ATOM     27  C   UNL     1       5.591   5.144  18.317  0.00  0.00    +0.000 A 
ENDBRANCH  16  27
ENDBRANCH  15  16
ENDBRANCH   1  15
TORSDOF 4
ENDMDL
MODEL 9
REMARK VINA RESULT:      -8.4      0.901      1.012
REMARK  Name = 
REMARK  5 active torsions:
REMARK  status: ('A' for Active; 'I' for Inactive)
REMARK    1  A    between atoms: C_1  and  C_2
REMARK    2  A    between atoms: C_11  and  O_12
REMARK    3  A    between atoms: O_12  and  C_13
REMARK    4  A    between atoms: C_13  and  C_14
REMARK    5  A    between atoms: N_16  and  C_17
REMARK                            x       y       z     vdW  Elec       q    Type
REMARK                         _______ _______ _______ _____ _____    ______ ____
ROOT
ATOM      1  C   UNL     1       3.305   6.259  18.192  0.00  0.00    +0.000 C 
ATOM      2  O   UNL     1       3.518   7.094  17.315  0.00  0.00    +0.000 OA
ATOM      3  N   UNL     1       2.552   6.461  19.343  0.00  0.00    +0.000 N 
ATOM      4  H   UNL     1       2.636   5.763  20.073  0.00  0.00    +0.000 HD
ENDROOT
BRANCH   3   5
ATOM      5  C   UNL     1       1.851   7.644  19.674  0.00  0.00    +0.000 A 
ATOM      6  C   UNL     1       1.778   8.744  18.818  0.00  0.00    +0.000 A 
ATOM      7  C   UNL     1       1.147   9.923  19.221  0.00  0.00    +0.000 A 
ATOM      8  C   UNL     1       0.576  10.029  20.494  0.00  0.00    +0.000 A 
ATOM      9  C   UNL     1      -0.001  11.233  20.923  0.00  0.00    +0.000 A 
ATOM     10  C   UNL     1      -0.548  11.342  22.201  0.00  0.00    +0.000 A 
ATOM     11  C   UNL     1      -0.540  10.243  23.054  0.00  0.00    +0.000 A 
ATOM     12  C   UNL     1       0.022   9.033  22.634  0.00  0.00    +0.000 A 
ATOM     13  C   UNL     1       0.598   8.911  21.356  0.00  0.00    +0.000 A 
ATOM     14  C   UNL     1       1.217   7.719  20.922  0.00  0.00    +0.000 A 
ENDBRANCH   3   5
BRANCH   1  15
ATOM     15  C   UNL     1       3.883   4.852  18.075  0.00  0.00    +0.000 C 
BRANCH  15  16
ATOM     16  O   UNL     1       5.309   4.864  18.147  0.00  0.00    +0.000 OA
BRANCH  16  27
ATOM     17  C   UNL     1       7.526   6.668  17.735  0.00  0.00    +0.000 C 
ATOM     18  C   UNL     1       6.975   5.769  16.673  0.00  0.00    +0.000 A 
ATOM     19  N   UNL     1       7.593   5.818  15.462  0.00  0.00    +0.000 NA
ATOM     20  C   UNL     1       7.090   5.043  14.482  0.00  0.00    +0.000 A 
ATOM     21  C   UNL     1       7.679   5.049  13.225  0.00  0.00    +0.000 A 
ATOM     22  C   UNL     1       7.176   4.268  12.182  0.00  0.00    +0.000 A 
ATOM     23  C   UNL     1       6.061   3.468  12.402  0.00  0.00    +0.000 A 
ATOM     24  C   UNL     1       5.468   3.450  13.665  0.00  0.00    +0.000 A 
ATOM     25  C   UNL     1       5.968   4.215  14.708  0.00  0.00    +0.000 A 
ATOM     26  N   UNL     1       5.376   4.147  15.913  0.00  0.00    +0.000 NA
ATOM     27  C   UNL     1       5.884   4.930  16.892  0.00  0.00    +0.000 A 
ENDBRANCH  16  27
ENDBRANCH  15  16
ENDBRANCH   1  15
TORSDOF 4
ENDMDL
