MODEL 1
REMARK VINA RESULT:      -6.8      0.000      0.000
REMARK  Name = 
REMARK  9 active torsions:
REMARK  status: ('A' for Active; 'I' for Inactive)
REMARK    1  A    between atoms: C_1  and  O_2
REMARK    2  A    between atoms: O_2  and  C_3
REMARK    3  A    between atoms: C_6  and  C_7
REMARK    4  A    between atoms: C_8  and  C_9
REMARK    5  A    between atoms: C_11  and  O_12
REMARK    6  A    between atoms: O_12  and  C_13
REMARK    7  A    between atoms: C_15  and  C_16
REMARK    8  A    between atoms: C_23  and  S_24
REMARK    9  A    between atoms: S_24  and  C_25
REMARK                            x       y       z     vdW  Elec       q    Type
REMARK                         _______ _______ _______ _____ _____    ______ ____
ROOT
ATOM      1  C   UNL     1      -3.809  13.132  21.196  0.00  0.00    +0.000 A 
ATOM      2  C   UNL     1      -5.140  12.752  21.549  0.00  0.00    +0.000 A 
ATOM      3  C   UNL     1      -5.903  12.044  20.627  0.00  0.00    +0.000 A 
ATOM      4  N   UNL     1      -5.433  11.615  19.443  0.00  0.00    +0.000 NA
ATOM      5  C   UNL     1      -4.152  11.888  19.097  0.00  0.00    +0.000 A 
ATOM      6  C   UNL     1      -3.318  12.703  19.914  0.00  0.00    +0.000 A 
ENDROOT
BRANCH   5   7
ATOM      7  C   UNL     1      -3.787  11.252  17.794  0.00  0.00    +0.000 A 
ATOM      8  C   UNL     1      -4.372  11.710  16.593  0.00  0.00    +0.000 A 
ATOM      9  C   UNL     1      -4.034  11.164  15.347  0.00  0.00    +0.000 A 
ATOM     10  C   UNL     1      -3.083  10.154  15.273  0.00  0.00    +0.000 A 
ATOM     11 CL   UNL     1      -2.609   9.523  13.748  0.00  0.00    +0.000 Cl
ATOM     12  C   UNL     1      -2.523   9.645  16.436  0.00  0.00    +0.000 A 
ATOM     13  C   UNL     1      -2.910  10.159  17.679  0.00  0.00    +0.000 A 
ENDBRANCH   5   7
BRANCH   1  17
ATOM     14  C   UNL     1      -1.483  15.490  24.031  0.00  0.00    +0.000 A 
ATOM     15  C   UNL     1      -1.412  14.102  24.044  0.00  0.00    +0.000 A 
ATOM     16  C   UNL     1      -2.184  13.341  23.155  0.00  0.00    +0.000 A 
ATOM     17  C   UNL     1      -2.984  13.936  22.164  0.00  0.00    +0.000 A 
ATOM     18  C   UNL     1      -3.002  15.344  22.151  0.00  0.00    +0.000 A 
ATOM     19  C   UNL     1      -2.303  16.108  23.096  0.00  0.00    +0.000 A 
BRANCH  14  21
ATOM     20  C   UNL     1      -1.102  15.815  26.345  0.00  0.00    +0.000 C 
ATOM     21  O   UNL     1      -0.754  16.120  25.000  0.00  0.00    +0.000 OA
ENDBRANCH  14  21
ENDBRANCH   1  17
BRANCH   2  22
ATOM     22  C   UNL     1      -5.731  13.028  22.827  0.00  0.00    +0.000 C 
ATOM     23  N   UNL     1      -6.203  13.238  23.873  0.00  0.00    +0.000 NA
ENDBRANCH   2  22
BRANCH   3  24
ATOM     24  O   UNL     1      -7.215  11.754  20.951  0.00  0.00    +0.000 OA
ATOM     25  C   UNL     1      -7.596  10.410  20.667  0.00  0.00    +0.000 C 
ENDBRANCH   3  24
BRANCH   6  26
ATOM     26  S   UNL     1      -1.634  13.075  19.394  0.00  0.00    +0.000 S 
BRANCH  26  27
ATOM     27  C   UNL     1      -0.629  11.641  19.640  0.00  0.00    +0.000 A 
ATOM     28  C   UNL     1      -0.883  10.921  20.820  0.00  0.00    +0.000 A 
ATOM     29  C   UNL     1      -0.172   9.760  21.127  0.00  0.00    +0.000 A 
ATOM     30  C   UNL     1       0.798   9.303  20.244  0.00  0.00    +0.000 A 
ATOM     31 CL   UNL     1       1.693   7.886  20.625  0.00  0.00    +0.000 Cl
ATOM     32  C   UNL     1       1.045   9.988  19.055  0.00  0.00    +0.000 A 
ATOM     33  C   UNL     1       0.330  11.155  18.750  0.00  0.00    +0.000 A 
ENDBRANCH  26  27
ENDBRANCH   6  26
TORSDOF 7
ENDMDL
MODEL 2
REMARK VINA RESULT:      -6.3      2.487      6.633
REMARK  Name = 
REMARK  9 active torsions:
REMARK  status: ('A' for Active; 'I' for Inactive)
REMARK    1  A    between atoms: C_1  and  O_2
REMARK    2  A    between atoms: O_2  and  C_3
REMARK    3  A    between atoms: C_6  and  C_7
REMARK    4  A    between atoms: C_8  and  C_9
REMARK    5  A    between atoms: C_11  and  O_12
REMARK    6  A    between atoms: O_12  and  C_13
REMARK    7  A    between atoms: C_15  and  C_16
REMARK    8  A    between atoms: C_23  and  S_24
REMARK    9  A    between atoms: S_24  and  C_25
REMARK                            x       y       z     vdW  Elec       q    Type
REMARK                         _______ _______ _______ _____ _____    ______ ____
ROOT
ATOM      1  C   UNL     1      -3.976  11.917  19.358  0.00  0.00    +0.000 A 
ATOM      2  C   UNL     1      -5.291  11.728  19.884  0.00  0.00    +0.000 A 
ATOM      3  C   UNL     1      -5.592  12.242  21.140  0.00  0.00    +0.000 A 
ATOM      4  N   UNL     1      -4.739  12.988  21.864  0.00  0.00    +0.000 NA
ATOM      5  C   UNL     1      -3.506  13.255  21.372  0.00  0.00    +0.000 A 
ATOM      6  C   UNL     1      -3.053  12.685  20.149  0.00  0.00    +0.000 A 
ENDROOT
BRANCH   5   7
ATOM      7  C   UNL     1      -2.741  14.170  22.274  0.00  0.00    +0.000 A 
ATOM      8  C   UNL     1      -2.852  15.570  22.123  0.00  0.00    +0.000 A 
ATOM      9  C   UNL     1      -2.180  16.463  22.967  0.00  0.00    +0.000 A 
ATOM     10  C   UNL     1      -1.390  15.974  23.999  0.00  0.00    +0.000 A 
ATOM     11 CL   UNL     1      -0.614  17.057  25.084  0.00  0.00    +0.000 Cl
ATOM     12  C   UNL     1      -1.217  14.605  24.149  0.00  0.00    +0.000 A 
ATOM     13  C   UNL     1      -1.849  13.722  23.264  0.00  0.00    +0.000 A 
ENDBRANCH   5   7
BRANCH   1  17
ATOM     14  C   UNL     1      -2.980  10.155  15.496  0.00  0.00    +0.000 A 
ATOM     15  C   UNL     1      -3.790  11.282  15.569  0.00  0.00    +0.000 A 
ATOM     16  C   UNL     1      -4.138  11.830  16.810  0.00  0.00    +0.000 A 
ATOM     17  C   UNL     1      -3.621  11.331  18.018  0.00  0.00    +0.000 A 
ATOM     18  C   UNL     1      -2.770  10.214  17.908  0.00  0.00    +0.000 A 
ATOM     19  C   UNL     1      -2.492   9.606  16.676  0.00  0.00    +0.000 A 
BRANCH  14  21
ATOM     20  C   UNL     1      -3.812   9.914  13.294  0.00  0.00    +0.000 C 
ATOM     21  O   UNL     1      -2.781   9.659  14.239  0.00  0.00    +0.000 OA
ENDBRANCH  14  21
ENDBRANCH   1  17
BRANCH   2  22
ATOM     22  C   UNL     1      -6.344  11.065  19.168  0.00  0.00    +0.000 C 
ATOM     23  N   UNL     1      -7.211  10.536  18.595  0.00  0.00    +0.000 NA
ENDBRANCH   2  22
BRANCH   3  24
ATOM     24  O   UNL     1      -6.841  11.981  21.670  0.00  0.00    +0.000 OA
ATOM     25  C   UNL     1      -7.083  12.622  22.921  0.00  0.00    +0.000 C 
ENDBRANCH   3  24
BRANCH   6  26
ATOM     26  S   UNL     1      -1.389  13.035  19.553  0.00  0.00    +0.000 S 
BRANCH  26  27
ATOM     27  C   UNL     1      -0.406  11.574  19.707  0.00  0.00    +0.000 A 
ATOM     28  C   UNL     1      -0.641  10.808  20.862  0.00  0.00    +0.000 A 
ATOM     29  C   UNL     1       0.056   9.622  21.098  0.00  0.00    +0.000 A 
ATOM     30  C   UNL     1       0.990   9.185  20.167  0.00  0.00    +0.000 A 
ATOM     31 CL   UNL     1       1.868   7.736  20.460  0.00  0.00    +0.000 Cl
ATOM     32  C   UNL     1       1.216   9.916  19.001  0.00  0.00    +0.000 A 
ATOM     33  C   UNL     1       0.516  11.108  18.768  0.00  0.00    +0.000 A 
ENDBRANCH  26  27
ENDBRANCH   6  26
TORSDOF 7
ENDMDL
MODEL 3
REMARK VINA RESULT:      -6.2      0.338      1.228
REMARK  Name = 
REMARK  9 active torsions:
REMARK  status: ('A' for Active; 'I' for Inactive)
REMARK    1  A    between atoms: C_1  and  O_2
REMARK    2  A    between atoms: O_2  and  C_3
REMARK    3  A    between atoms: C_6  and  C_7
REMARK    4  A    between atoms: C_8  and  C_9
REMARK    5  A    between atoms: C_11  and  O_12
REMARK    6  A    between atoms: O_12  and  C_13
REMARK    7  A    between atoms: C_15  and  C_16
REMARK    8  A    between atoms: C_23  and  S_24
REMARK    9  A    between atoms: S_24  and  C_25
REMARK                            x       y       z     vdW  Elec       q    Type
REMARK                         _______ _______ _______ _____ _____    ______ ____
ROOT
ATOM      1  C   UNL     1      -3.881  13.018  21.243  0.00  0.00    +0.000 A 
ATOM      2  C   UNL     1      -5.238  12.682  21.541  0.00  0.00    +0.000 A 
ATOM      3  C   UNL     1      -6.005  12.059  20.564  0.00  0.00    +0.000 A 
ATOM      4  N   UNL     1      -5.522  11.669  19.372  0.00  0.00    +0.000 NA
ATOM      5  C   UNL     1      -4.221  11.901  19.073  0.00  0.00    +0.000 A 
ATOM      6  C   UNL     1      -3.374  12.633  19.953  0.00  0.00    +0.000 A 
ENDROOT
BRANCH   5   7
ATOM      7  C   UNL     1      -3.850  11.316  17.748  0.00  0.00    +0.000 A 
ATOM      8  C   UNL     1      -2.934  10.244  17.678  0.00  0.00    +0.000 A 
ATOM      9  C   UNL     1      -2.583   9.645  16.461  0.00  0.00    +0.000 A 
ATOM     10  C   UNL     1      -3.159  10.096  15.280  0.00  0.00    +0.000 A 
ATOM     11 CL   UNL     1      -2.791   9.328  13.789  0.00  0.00    +0.000 Cl
ATOM     12  C   UNL     1      -4.026  11.180  15.303  0.00  0.00    +0.000 A 
ATOM     13  C   UNL     1      -4.325  11.807  16.519  0.00  0.00    +0.000 A 
ENDBRANCH   5   7
BRANCH   1  17
ATOM     14  C   UNL     1      -1.531  15.111  24.260  0.00  0.00    +0.000 A 
ATOM     15  C   UNL     1      -1.454  13.728  24.141  0.00  0.00    +0.000 A 
ATOM     16  C   UNL     1      -2.233  13.051  23.194  0.00  0.00    +0.000 A 
ATOM     17  C   UNL     1      -3.048  13.731  22.273  0.00  0.00    +0.000 A 
ATOM     18  C   UNL     1      -3.073  15.134  22.393  0.00  0.00    +0.000 A 
ATOM     19  C   UNL     1      -2.365  15.810  23.397  0.00  0.00    +0.000 A 
BRANCH  14  21
ATOM     20  C   UNL     1      -1.163  16.961  25.691  0.00  0.00    +0.000 C 
ATOM     21  O   UNL     1      -0.793  15.652  25.275  0.00  0.00    +0.000 OA
ENDBRANCH  14  21
ENDBRANCH   1  17
BRANCH   2  22
ATOM     22  C   UNL     1      -5.850  12.920  22.817  0.00  0.00    +0.000 C 
ATOM     23  N   UNL     1      -6.344  13.130  23.852  0.00  0.00    +0.000 NA
ENDBRANCH   2  22
BRANCH   3  24
ATOM     24  O   UNL     1      -7.338  11.814  20.839  0.00  0.00    +0.000 OA
ATOM     25  C   UNL     1      -7.726  10.455  20.650  0.00  0.00    +0.000 C 
ENDBRANCH   3  24
BRANCH   6  26
ATOM     26  S   UNL     1      -1.661  12.952  19.496  0.00  0.00    +0.000 S 
BRANCH  26  27
ATOM     27  C   UNL     1      -0.708  11.492  19.791  0.00  0.00    +0.000 A 
ATOM     28  C   UNL     1       0.231  11.173  18.795  0.00  0.00    +0.000 A 
ATOM     29  C   UNL     1       1.059  10.056  18.913  0.00  0.00    +0.000 A 
ATOM     30  C   UNL     1       0.959   9.251  20.041  0.00  0.00    +0.000 A 
ATOM     31 CL   UNL     1       1.961   7.861  20.184  0.00  0.00    +0.000 Cl
ATOM     32  C   UNL     1       0.053   9.567  21.053  0.00  0.00    +0.000 A 
ATOM     33  C   UNL     1      -0.778  10.690  20.931  0.00  0.00    +0.000 A 
ENDBRANCH  26  27
ENDBRANCH   6  26
TORSDOF 7
ENDMDL
MODEL 4
REMARK VINA RESULT:      -6.2      2.439      6.611
REMARK  Name = 
REMARK  9 active torsions:
REMARK  status: ('A' for Active; 'I' for Inactive)
REMARK    1  A    between atoms: C_1  and  O_2
REMARK    2  A    between atoms: O_2  and  C_3
REMARK    3  A    between atoms: C_6  and  C_7
REMARK    4  A    between atoms: C_8  and  C_9
REMARK    5  A    between atoms: C_11  and  O_12
REMARK    6  A    between atoms: O_12  and  C_13
REMARK    7  A    between atoms: C_15  and  C_16
REMARK    8  A    between atoms: C_23  and  S_24
REMARK    9  A    between atoms: S_24  and  C_25
REMARK                            x       y       z     vdW  Elec       q    Type
REMARK                         _______ _______ _______ _____ _____    ______ ____
ROOT
ATOM      1  C   UNL     1      -4.025  11.925  19.344  0.00  0.00    +0.000 A 
ATOM      2  C   UNL     1      -5.320  11.758  19.925  0.00  0.00    +0.000 A 
ATOM      3  C   UNL     1      -5.564  12.292  21.185  0.00  0.00    +0.000 A 
ATOM      4  N   UNL     1      -4.675  13.040  21.863  0.00  0.00    +0.000 NA
ATOM      5  C   UNL     1      -3.460  13.286  21.318  0.00  0.00    +0.000 A 
ATOM      6  C   UNL     1      -3.063  12.695  20.085  0.00  0.00    +0.000 A 
ENDROOT
BRANCH   5   7
ATOM      7  C   UNL     1      -2.650  14.207  22.174  0.00  0.00    +0.000 A 
ATOM      8  C   UNL     1      -2.001  13.715  23.327  0.00  0.00    +0.000 A 
ATOM      9  C   UNL     1      -1.206  14.535  24.139  0.00  0.00    +0.000 A 
ATOM     10  C   UNL     1      -1.027  15.871  23.802  0.00  0.00    +0.000 A 
ATOM     11 CL   UNL     1      -0.000  16.872  24.748  0.00  0.00    +0.000 Cl
ATOM     12  C   UNL     1      -1.688  16.402  22.703  0.00  0.00    +0.000 A 
ATOM     13  C   UNL     1      -2.525  15.587  21.932  0.00  0.00    +0.000 A 
ENDBRANCH   5   7
BRANCH   1  17
ATOM     14  C   UNL     1      -3.137  10.226  15.428  0.00  0.00    +0.000 A 
ATOM     15  C   UNL     1      -2.622   9.645  16.581  0.00  0.00    +0.000 A 
ATOM     16  C   UNL     1      -2.879  10.208  17.838  0.00  0.00    +0.000 A 
ATOM     17  C   UNL     1      -3.730  11.316  17.999  0.00  0.00    +0.000 A 
ATOM     18  C   UNL     1      -4.268  11.857  16.815  0.00  0.00    +0.000 A 
ATOM     19  C   UNL     1      -3.941  11.352  15.549  0.00  0.00    +0.000 A 
BRANCH  14  21
ATOM     20  C   UNL     1      -3.628   9.803  13.151  0.00  0.00    +0.000 C 
ATOM     21  O   UNL     1      -2.747   9.642  14.256  0.00  0.00    +0.000 OA
ENDBRANCH  14  21
ENDBRANCH   1  17
BRANCH   2  22
ATOM     22  C   UNL     1      -6.407  11.095  19.263  0.00  0.00    +0.000 C 
ATOM     23  N   UNL     1      -7.283  10.562  18.709  0.00  0.00    +0.000 NA
ENDBRANCH   2  22
BRANCH   3  24
ATOM     24  O   UNL     1      -6.793  12.053  21.769  0.00  0.00    +0.000 OA
ATOM     25  C   UNL     1      -6.955  12.667  23.046  0.00  0.00    +0.000 C 
ENDBRANCH   3  24
BRANCH   6  26
ATOM     26  S   UNL     1      -1.421  13.018  19.417  0.00  0.00    +0.000 S 
BRANCH  26  27
ATOM     27  C   UNL     1      -0.431  11.565  19.602  0.00  0.00    +0.000 A 
ATOM     28  C   UNL     1      -0.653  10.829  20.779  0.00  0.00    +0.000 A 
ATOM     29  C   UNL     1       0.049   9.652  21.040  0.00  0.00    +0.000 A 
ATOM     30  C   UNL     1       0.979   9.195  20.114  0.00  0.00    +0.000 A 
ATOM     31 CL   UNL     1       1.865   7.758  20.438  0.00  0.00    +0.000 Cl
ATOM     32  C   UNL     1       1.193   9.897  18.928  0.00  0.00    +0.000 A 
ATOM     33  C   UNL     1       0.486  11.079  18.669  0.00  0.00    +0.000 A 
ENDBRANCH  26  27
ENDBRANCH   6  26
TORSDOF 7
ENDMDL
MODEL 5
REMARK VINA RESULT:      -6.1      0.610      1.326
REMARK  Name = 
REMARK  9 active torsions:
REMARK  status: ('A' for Active; 'I' for Inactive)
REMARK    1  A    between atoms: C_1  and  O_2
REMARK    2  A    between atoms: O_2  and  C_3
REMARK    3  A    between atoms: C_6  and  C_7
REMARK    4  A    between atoms: C_8  and  C_9
REMARK    5  A    between atoms: C_11  and  O_12
REMARK    6  A    between atoms: O_12  and  C_13
REMARK    7  A    between atoms: C_15  and  C_16
REMARK    8  A    between atoms: C_23  and  S_24
REMARK    9  A    between atoms: S_24  and  C_25
REMARK                            x       y       z     vdW  Elec       q    Type
REMARK                         _______ _______ _______ _____ _____    ______ ____
ROOT
ATOM      1  C   UNL     1      -4.320  13.065  21.328  0.00  0.00    +0.000 A 
ATOM      2  C   UNL     1      -5.647  12.602  21.589  0.00  0.00    +0.000 A 
ATOM      3  C   UNL     1      -6.317  11.893  20.599  0.00  0.00    +0.000 A 
ATOM      4  N   UNL     1      -5.758  11.536  19.430  0.00  0.00    +0.000 NA
ATOM      5  C   UNL     1      -4.477  11.889  19.168  0.00  0.00    +0.000 A 
ATOM      6  C   UNL     1      -3.735  12.713  20.062  0.00  0.00    +0.000 A 
ENDROOT
BRANCH   5   7
ATOM      7  C   UNL     1      -4.006  11.325  17.866  0.00  0.00    +0.000 A 
ATOM      8  C   UNL     1      -3.087  10.253  17.849  0.00  0.00    +0.000 A 
ATOM      9  C   UNL     1      -2.645   9.673  16.653  0.00  0.00    +0.000 A 
ATOM     10  C   UNL     1      -3.130  10.144  15.439  0.00  0.00    +0.000 A 
ATOM     11 CL   UNL     1      -2.650   9.399  13.967  0.00  0.00    +0.000 Cl
ATOM     12  C   UNL     1      -3.996  11.229  15.413  0.00  0.00    +0.000 A 
ATOM     13  C   UNL     1      -4.386  11.836  16.612  0.00  0.00    +0.000 A 
ENDBRANCH   5   7
BRANCH   1  17
ATOM     14  C   UNL     1      -2.154  15.374  24.325  0.00  0.00    +0.000 A 
ATOM     15  C   UNL     1      -2.939  16.015  23.374  0.00  0.00    +0.000 A 
ATOM     16  C   UNL     1      -3.610  15.277  22.390  0.00  0.00    +0.000 A 
ATOM     17  C   UNL     1      -3.595  13.872  22.371  0.00  0.00    +0.000 A 
ATOM     18  C   UNL     1      -2.823  13.251  23.373  0.00  0.00    +0.000 A 
ATOM     19  C   UNL     1      -2.078  13.987  24.304  0.00  0.00    +0.000 A 
BRANCH  14  21
ATOM     20  C   UNL     1      -2.173  17.369  25.599  0.00  0.00    +0.000 C 
ATOM     21  O   UNL     1      -1.479  16.201  25.178  0.00  0.00    +0.000 OA
ENDBRANCH  14  21
ENDBRANCH   1  17
BRANCH   2  22
ATOM     22  C   UNL     1      -6.322  12.797  22.840  0.00  0.00    +0.000 C 
ATOM     23  N   UNL     1      -6.875  12.937  23.857  0.00  0.00    +0.000 NA
ENDBRANCH   2  22
BRANCH   3  24
ATOM     24  O   UNL     1      -7.627  11.522  20.835  0.00  0.00    +0.000 OA
ATOM     25  C   UNL     1      -7.837  10.112  20.836  0.00  0.00    +0.000 C 
ENDBRANCH   3  24
BRANCH   6  26
ATOM     26  S   UNL     1      -2.047  13.193  19.654  0.00  0.00    +0.000 S 
BRANCH  26  27
ATOM     27  C   UNL     1      -0.980  11.807  19.914  0.00  0.00    +0.000 A 
ATOM     28  C   UNL     1      -1.097  11.181  21.167  0.00  0.00    +0.000 A 
ATOM     29  C   UNL     1      -0.325  10.065  21.493  0.00  0.00    +0.000 A 
ATOM     30  C   UNL     1       0.568   9.559  20.557  0.00  0.00    +0.000 A 
ATOM     31 CL   UNL     1       1.539   8.197  20.960  0.00  0.00    +0.000 Cl
ATOM     32  C   UNL     1       0.678  10.149  19.299  0.00  0.00    +0.000 A 
ATOM     33  C   UNL     1      -0.098  11.270  18.974  0.00  0.00    +0.000 A 
ENDBRANCH  26  27
ENDBRANCH   6  26
TORSDOF 7
ENDMDL
MODEL 6
REMARK VINA RESULT:      -6.1      3.109      5.066
REMARK  Name = 
REMARK  9 active torsions:
REMARK  status: ('A' for Active; 'I' for Inactive)
REMARK    1  A    between atoms: C_1  and  O_2
REMARK    2  A    between atoms: O_2  and  C_3
REMARK    3  A    between atoms: C_6  and  C_7
REMARK    4  A    between atoms: C_8  and  C_9
REMARK    5  A    between atoms: C_11  and  O_12
REMARK    6  A    between atoms: O_12  and  C_13
REMARK    7  A    between atoms: C_15  and  C_16
REMARK    8  A    between atoms: C_23  and  S_24
REMARK    9  A    between atoms: S_24  and  C_25
REMARK                            x       y       z     vdW  Elec       q    Type
REMARK                         _______ _______ _______ _____ _____    ______ ____
ROOT
ATOM      1  C   UNL     1      -1.652  11.943  19.825  0.00  0.00    +0.000 A 
ATOM      2  C   UNL     1      -2.677  11.530  18.918  0.00  0.00    +0.000 A 
ATOM      3  C   UNL     1      -2.401  10.512  18.012  0.00  0.00    +0.000 A 
ATOM      4  N   UNL     1      -1.247   9.823  17.994  0.00  0.00    +0.000 NA
ATOM      5  C   UNL     1      -0.274  10.129  18.885  0.00  0.00    +0.000 A 
ATOM      6  C   UNL     1      -0.404  11.229  19.781  0.00  0.00    +0.000 A 
ENDROOT
BRANCH   5   7
ATOM      7  C   UNL     1       0.890   9.198  18.770  0.00  0.00    +0.000 A 
ATOM      8  C   UNL     1       1.163   8.274  19.801  0.00  0.00    +0.000 A 
ATOM      9  C   UNL     1       2.224   7.362  19.719  0.00  0.00    +0.000 A 
ATOM     10  C   UNL     1       3.028   7.340  18.587  0.00  0.00    +0.000 A 
ATOM     11 CL   UNL     1       4.288   6.182  18.442  0.00  0.00    +0.000 Cl
ATOM     12  C   UNL     1       2.820   8.266  17.574  0.00  0.00    +0.000 A 
ATOM     13  C   UNL     1       1.794   9.210  17.692  0.00  0.00    +0.000 A 
ENDBRANCH   5   7
BRANCH   1  17
ATOM     14  C   UNL     1      -2.473  15.246  22.549  0.00  0.00    +0.000 A 
ATOM     15  C   UNL     1      -2.735  13.936  22.932  0.00  0.00    +0.000 A 
ATOM     16  C   UNL     1      -2.503  12.875  22.046  0.00  0.00    +0.000 A 
ATOM     17  C   UNL     1      -1.918  13.073  20.783  0.00  0.00    +0.000 A 
ATOM     18  C   UNL     1      -1.627  14.407  20.441  0.00  0.00    +0.000 A 
ATOM     19  C   UNL     1      -1.941  15.480  21.288  0.00  0.00    +0.000 A 
BRANCH  14  21
ATOM     20  C   UNL     1      -3.681  15.780  24.514  0.00  0.00    +0.000 C 
ATOM     21  O   UNL     1      -2.820  16.201  23.462  0.00  0.00    +0.000 OA
ENDBRANCH  14  21
ENDBRANCH   1  17
BRANCH   2  22
ATOM     22  C   UNL     1      -4.000  12.087  18.910  0.00  0.00    +0.000 C 
ATOM     23  N   UNL     1      -5.079  12.526  18.891  0.00  0.00    +0.000 NA
ENDBRANCH   2  22
BRANCH   3  24
ATOM     24  O   UNL     1      -3.374  10.180  17.088  0.00  0.00    +0.000 OA
ATOM     25  C   UNL     1      -2.884  10.059  15.754  0.00  0.00    +0.000 C 
ENDBRANCH   3  24
BRANCH   6  26
ATOM     26  S   UNL     1       0.932  11.625  20.921  0.00  0.00    +0.000 S 
BRANCH  26  27
ATOM     27  C   UNL     1       1.835  13.006  20.286  0.00  0.00    +0.000 A 
ATOM     28  C   UNL     1       2.216  12.910  18.937  0.00  0.00    +0.000 A 
ATOM     29  C   UNL     1       2.918  13.939  18.307  0.00  0.00    +0.000 A 
ATOM     30  C   UNL     1       3.237  15.084  19.027  0.00  0.00    +0.000 A 
ATOM     31 CL   UNL     1       4.121  16.347  18.266  0.00  0.00    +0.000 Cl
ATOM     32  C   UNL     1       2.844  15.210  20.359  0.00  0.00    +0.000 A 
ATOM     33  C   UNL     1       2.140  14.174  20.988  0.00  0.00    +0.000 A 
ENDBRANCH  26  27
ENDBRANCH   6  26
TORSDOF 7
ENDMDL
MODEL 7
REMARK VINA RESULT:      -6.1      2.472      6.733
REMARK  Name = 
REMARK  9 active torsions:
REMARK  status: ('A' for Active; 'I' for Inactive)
REMARK    1  A    between atoms: C_1  and  O_2
REMARK    2  A    between atoms: O_2  and  C_3
REMARK    3  A    between atoms: C_6  and  C_7
REMARK    4  A    between atoms: C_8  and  C_9
REMARK    5  A    between atoms: C_11  and  O_12
REMARK    6  A    between atoms: O_12  and  C_13
REMARK    7  A    between atoms: C_15  and  C_16
REMARK    8  A    between atoms: C_23  and  S_24
REMARK    9  A    between atoms: S_24  and  C_25
REMARK                            x       y       z     vdW  Elec       q    Type
REMARK                         _______ _______ _______ _____ _____    ______ ____
ROOT
ATOM      1  C   UNL     1      -3.879  11.914  19.317  0.00  0.00    +0.000 A 
ATOM      2  C   UNL     1      -5.199  11.776  19.847  0.00  0.00    +0.000 A 
ATOM      3  C   UNL     1      -5.482  12.323  21.094  0.00  0.00    +0.000 A 
ATOM      4  N   UNL     1      -4.607  13.056  21.802  0.00  0.00    +0.000 NA
ATOM      5  C   UNL     1      -3.366  13.276  21.305  0.00  0.00    +0.000 A 
ATOM      6  C   UNL     1      -2.932  12.669  20.093  0.00  0.00    +0.000 A 
ENDROOT
BRANCH   5   7
ATOM      7  C   UNL     1      -2.573  14.185  22.188  0.00  0.00    +0.000 A 
ATOM      8  C   UNL     1      -2.036  13.704  23.402  0.00  0.00    +0.000 A 
ATOM      9  C   UNL     1      -1.260  14.512  24.243  0.00  0.00    +0.000 A 
ATOM     10  C   UNL     1      -0.986  15.824  23.877  0.00  0.00    +0.000 A 
ATOM     11 CL   UNL     1       0.021  16.806  24.863  0.00  0.00    +0.000 Cl
ATOM     12  C   UNL     1      -1.537  16.347  22.715  0.00  0.00    +0.000 A 
ATOM     13  C   UNL     1      -2.358  15.547  21.912  0.00  0.00    +0.000 A 
ENDBRANCH   5   7
BRANCH   1  17
ATOM     14  C   UNL     1      -2.943  10.048  15.490  0.00  0.00    +0.000 A 
ATOM     15  C   UNL     1      -3.695  11.215  15.539  0.00  0.00    +0.000 A 
ATOM     16  C   UNL     1      -4.025  11.798  16.769  0.00  0.00    +0.000 A 
ATOM     17  C   UNL     1      -3.543  11.292  17.989  0.00  0.00    +0.000 A 
ATOM     18  C   UNL     1      -2.749  10.131  17.902  0.00  0.00    +0.000 A 
ATOM     19  C   UNL     1      -2.492   9.493  16.681  0.00  0.00    +0.000 A 
BRANCH  14  21
ATOM     20  C   UNL     1      -3.740   9.861  13.269  0.00  0.00    +0.000 C 
ATOM     21  O   UNL     1      -2.759   9.524  14.242  0.00  0.00    +0.000 OA
ENDBRANCH  14  21
ENDBRANCH   1  17
BRANCH   2  22
ATOM     22  C   UNL     1      -6.272  11.131  19.145  0.00  0.00    +0.000 C 
ATOM     23  N   UNL     1      -7.147  10.623  18.566  0.00  0.00    +0.000 NA
ENDBRANCH   2  22
BRANCH   3  24
ATOM     24  O   UNL     1      -6.739  12.111  21.629  0.00  0.00    +0.000 OA
ATOM     25  C   UNL     1      -7.229  13.205  22.402  0.00  0.00    +0.000 C 
ENDBRANCH   3  24
BRANCH   6  26
ATOM     26  S   UNL     1      -1.259  12.956  19.489  0.00  0.00    +0.000 S 
BRANCH  26  27
ATOM     27  C   UNL     1      -0.343  11.448  19.602  0.00  0.00    +0.000 A 
ATOM     28  C   UNL     1       0.561  11.211  18.552  0.00  0.00    +0.000 A 
ATOM     29  C   UNL     1       1.358  10.066  18.528  0.00  0.00    +0.000 A 
ATOM     30  C   UNL     1       1.264   9.150  19.568  0.00  0.00    +0.000 A 
ATOM     31 CL   UNL     1       2.227   7.726  19.536  0.00  0.00    +0.000 Cl
ATOM     32  C   UNL     1       0.394   9.382  20.633  0.00  0.00    +0.000 A 
ATOM     33  C   UNL     1      -0.407  10.532  20.653  0.00  0.00    +0.000 A 
ENDBRANCH  26  27
ENDBRANCH   6  26
TORSDOF 7
ENDMDL
MODEL 8
REMARK VINA RESULT:      -6.0      3.147      5.163
REMARK  Name = 
REMARK  9 active torsions:
REMARK  status: ('A' for Active; 'I' for Inactive)
REMARK    1  A    between atoms: C_1  and  O_2
REMARK    2  A    between atoms: O_2  and  C_3
REMARK    3  A    between atoms: C_6  and  C_7
REMARK    4  A    between atoms: C_8  and  C_9
REMARK    5  A    between atoms: C_11  and  O_12
REMARK    6  A    between atoms: O_12  and  C_13
REMARK    7  A    between atoms: C_15  and  C_16
REMARK    8  A    between atoms: C_23  and  S_24
REMARK    9  A    between atoms: S_24  and  C_25
REMARK                            x       y       z     vdW  Elec       q    Type
REMARK                         _______ _______ _______ _____ _____    ______ ____
ROOT
ATOM      1  C   UNL     1      -1.641  11.886  19.630  0.00  0.00    +0.000 A 
ATOM      2  C   UNL     1      -2.645  11.436  18.717  0.00  0.00    +0.000 A 
ATOM      3  C   UNL     1      -2.344  10.392  17.850  0.00  0.00    +0.000 A 
ATOM      4  N   UNL     1      -1.184   9.713  17.874  0.00  0.00    +0.000 NA
ATOM      5  C   UNL     1      -0.230  10.057  18.772  0.00  0.00    +0.000 A 
ATOM      6  C   UNL     1      -0.386  11.182  19.630  0.00  0.00    +0.000 A 
ENDROOT
BRANCH   5   7
ATOM      7  C   UNL     1       0.944   9.133  18.707  0.00  0.00    +0.000 A 
ATOM      8  C   UNL     1       1.196   8.232  19.764  0.00  0.00    +0.000 A 
ATOM      9  C   UNL     1       2.265   7.327  19.729  0.00  0.00    +0.000 A 
ATOM     10  C   UNL     1       3.101   7.290  18.620  0.00  0.00    +0.000 A 
ATOM     11 CL   UNL     1       4.373   6.140  18.533  0.00  0.00    +0.000 Cl
ATOM     12  C   UNL     1       2.914   8.194  17.583  0.00  0.00    +0.000 A 
ATOM     13  C   UNL     1       1.877   9.132  17.655  0.00  0.00    +0.000 A 
ENDBRANCH   5   7
BRANCH   1  17
ATOM     14  C   UNL     1      -2.445  15.206  22.339  0.00  0.00    +0.000 A 
ATOM     15  C   UNL     1      -1.837  15.431  21.109  0.00  0.00    +0.000 A 
ATOM     16  C   UNL     1      -1.548  14.362  20.251  0.00  0.00    +0.000 A 
ATOM     17  C   UNL     1      -1.934  13.043  20.546  0.00  0.00    +0.000 A 
ATOM     18  C   UNL     1      -2.584  12.853  21.781  0.00  0.00    +0.000 A 
ATOM     19  C   UNL     1      -2.794  13.906  22.683  0.00  0.00    +0.000 A 
BRANCH  14  21
ATOM     20  C   UNL     1      -3.889  16.511  23.686  0.00  0.00    +0.000 C 
ATOM     21  O   UNL     1      -2.597  16.312  23.126  0.00  0.00    +0.000 OA
ENDBRANCH  14  21
ENDBRANCH   1  17
BRANCH   2  22
ATOM     22  C   UNL     1      -3.972  11.980  18.668  0.00  0.00    +0.000 C 
ATOM     23  N   UNL     1      -5.056  12.408  18.640  0.00  0.00    +0.000 NA
ENDBRANCH   2  22
BRANCH   3  24
ATOM     24  O   UNL     1      -3.296  10.022  16.919  0.00  0.00    +0.000 OA
ATOM     25  C   UNL     1      -2.888  10.218  15.566  0.00  0.00    +0.000 C 
ENDBRANCH   3  24
BRANCH   6  26
ATOM     26  S   UNL     1       0.926  11.627  20.782  0.00  0.00    +0.000 S 
BRANCH  26  27
ATOM     27  C   UNL     1       1.919  12.896  20.055  0.00  0.00    +0.000 A 
ATOM     28  C   UNL     1       2.346  13.906  20.935  0.00  0.00    +0.000 A 
ATOM     29  C   UNL     1       3.150  14.958  20.494  0.00  0.00    +0.000 A 
ATOM     30  C   UNL     1       3.543  15.001  19.162  0.00  0.00    +0.000 A 
ATOM     31 CL   UNL     1       4.516  16.305  18.605  0.00  0.00    +0.000 Cl
ATOM     32  C   UNL     1       3.153  13.994  18.280  0.00  0.00    +0.000 A 
ATOM     33  C   UNL     1       2.345  12.939  18.727  0.00  0.00    +0.000 A 
ENDBRANCH  26  27
ENDBRANCH   6  26
TORSDOF 7
ENDMDL
MODEL 9
REMARK VINA RESULT:      -5.8      2.485      6.584
REMARK  Name = 
REMARK  9 active torsions:
REMARK  status: ('A' for Active; 'I' for Inactive)
REMARK    1  A    between atoms: C_1  and  O_2
REMARK    2  A    between atoms: O_2  and  C_3
REMARK    3  A    between atoms: C_6  and  C_7
REMARK    4  A    between atoms: C_8  and  C_9
REMARK    5  A    between atoms: C_11  and  O_12
REMARK    6  A    between atoms: O_12  and  C_13
REMARK    7  A    between atoms: C_15  and  C_16
REMARK    8  A    between atoms: C_23  and  S_24
REMARK    9  A    between atoms: S_24  and  C_25
REMARK                            x       y       z     vdW  Elec       q    Type
REMARK                         _______ _______ _______ _____ _____    ______ ____
ROOT
ATOM      1  C   UNL     1      -4.189  12.208  19.872  0.00  0.00    +0.000 A 
ATOM      2  C   UNL     1      -5.493  12.166  20.454  0.00  0.00    +0.000 A 
ATOM      3  C   UNL     1      -5.706  12.804  21.670  0.00  0.00    +0.000 A 
ATOM      4  N   UNL     1      -4.774  13.541  22.299  0.00  0.00    +0.000 NA
ATOM      5  C   UNL     1      -3.544  13.669  21.748  0.00  0.00    +0.000 A 
ATOM      6  C   UNL     1      -3.181  12.966  20.564  0.00  0.00    +0.000 A 
ENDROOT
BRANCH   5   7
ATOM      7  C   UNL     1      -2.680  14.596  22.542  0.00  0.00    +0.000 A 
ATOM      8  C   UNL     1      -2.581  15.957  22.181  0.00  0.00    +0.000 A 
ATOM      9  C   UNL     1      -1.809  16.866  22.917  0.00  0.00    +0.000 A 
ATOM     10  C   UNL     1      -1.129  16.434  24.049  0.00  0.00    +0.000 A 
ATOM     11 CL   UNL     1      -0.234  17.550  25.000  0.00  0.00    +0.000 Cl
ATOM     12  C   UNL     1      -1.162  15.093  24.406  0.00  0.00    +0.000 A 
ATOM     13  C   UNL     1      -1.890  14.184  23.631  0.00  0.00    +0.000 A 
ENDBRANCH   5   7
BRANCH   1  17
ATOM     14  C   UNL     1      -3.398  10.178  16.095  0.00  0.00    +0.000 A 
ATOM     15  C   UNL     1      -2.918   9.655  17.290  0.00  0.00    +0.000 A 
ATOM     16  C   UNL     1      -3.143  10.322  18.501  0.00  0.00    +0.000 A 
ATOM     17  C   UNL     1      -3.929  11.486  18.577  0.00  0.00    +0.000 A 
ATOM     18  C   UNL     1      -4.434  11.968  17.354  0.00  0.00    +0.000 A 
ATOM     19  C   UNL     1      -4.136  11.354  16.130  0.00  0.00    +0.000 A 
BRANCH  14  21
ATOM     20  C   UNL     1      -3.524  10.006  13.738  0.00  0.00    +0.000 C 
ATOM     21  O   UNL     1      -3.042   9.487  14.971  0.00  0.00    +0.000 OA
ENDBRANCH  14  21
ENDBRANCH   1  17
BRANCH   2  22
ATOM     22  C   UNL     1      -6.618  11.528  19.832  0.00  0.00    +0.000 C 
ATOM     23  N   UNL     1      -7.542  11.025  19.327  0.00  0.00    +0.000 NA
ENDBRANCH   2  22
BRANCH   3  24
ATOM     24  O   UNL     1      -6.951  12.687  22.260  0.00  0.00    +0.000 OA
ATOM     25  C   UNL     1      -6.912  12.630  23.684  0.00  0.00    +0.000 C 
ENDBRANCH   3  24
BRANCH   6  26
ATOM     26  S   UNL     1      -1.520  13.135  19.888  0.00  0.00    +0.000 S 
BRANCH  26  27
ATOM     27  C   UNL     1      -0.638  11.626  20.152  0.00  0.00    +0.000 A 
ATOM     28  C   UNL     1       0.214  11.234  19.105  0.00  0.00    +0.000 A 
ATOM     29  C   UNL     1       0.981  10.071  19.193  0.00  0.00    +0.000 A 
ATOM     30  C   UNL     1       0.908   9.294  20.342  0.00  0.00    +0.000 A 
ATOM     31 CL   UNL     1       1.833   7.848  20.450  0.00  0.00    +0.000 Cl
ATOM     32  C   UNL     1       0.090   9.682  21.403  0.00  0.00    +0.000 A 
ATOM     33  C   UNL     1      -0.679  10.849  21.311  0.00  0.00    +0.000 A 
ENDBRANCH  26  27
ENDBRANCH   6  26
TORSDOF 7
ENDMDL
