MODEL 1
REMARK VINA RESULT:      -7.3      0.000      0.000
REMARK  Name = 
REMARK  10 active torsions:
REMARK  status: ('A' for Active; 'I' for Inactive)
REMARK    1  A    between atoms: C_1  and  C_2
REMARK    2  A    between atoms: C_2  and  O_3
REMARK    3  A    between atoms: O_3  and  C_4
REMARK    4  A    between atoms: C_4  and  C_6
REMARK    5  A    between atoms: C_7  and  C_8
REMARK    6  A    between atoms: N_9  and  C_10
REMARK    7  A    between atoms: C_10  and  C_11
REMARK    8  A    between atoms: C_11  and  N_12
REMARK    9  A    between atoms: C_13  and  C_14
REMARK   10  A    between atoms: C_19  and  O_20
REMARK                            x       y       z     vdW  Elec       q    Type
REMARK                         _______ _______ _______ _____ _____    ______ ____
ROOT
ATOM      1  C   UNL     1       3.413   6.070  18.045  0.00  0.00    +0.000 A 
ATOM      2  C   UNL     1       4.664   6.044  17.439  0.00  0.00    +0.000 A 
ATOM      3  C   UNL     1       5.638   7.165  17.230  0.00  0.00    +0.000 C 
ATOM      4  N   UNL     1       4.921   4.733  17.034  0.00  0.00    +0.000 N 
ATOM      5  C   UNL     1       3.868   3.913  17.428  0.00  0.00    +0.000 A 
ATOM      6  C   UNL     1       3.620   2.529  17.306  0.00  0.00    +0.000 A 
ATOM      7  C   UNL     1       2.414   1.992  17.770  0.00  0.00    +0.000 A 
ATOM      8  C   UNL     1       1.477   2.804  18.375  0.00  0.00    +0.000 A 
ATOM      9  C   UNL     1       1.716   4.162  18.532  0.00  0.00    +0.000 A 
ATOM     10  C   UNL     1       2.920   4.731  18.055  0.00  0.00    +0.000 A 
ENDROOT
BRANCH   1  11
ATOM     11  C   UNL     1       2.670   7.221  18.555  0.00  0.00    +0.000 C 
ATOM     12  O   UNL     1       2.395   7.374  19.741  0.00  0.00    +0.000 OA
BRANCH  11  13
ATOM     13  O   UNL     1       2.172   8.004  17.555  0.00  0.00    +0.000 OA
BRANCH  13  15
ATOM     14  C   UNL     1       0.596   9.725  18.068  0.00  0.00    +0.000 C 
ATOM     15  C   UNL     1       2.069   9.395  17.885  0.00  0.00    +0.000 C 
ENDBRANCH  13  15
ENDBRANCH  11  13
ENDBRANCH   1  11
BRANCH   8  16
ATOM     16  O   UNL     1       0.295   2.307  18.838  0.00  0.00    +0.000 OA
ATOM     17  H   UNL     1      -0.075   1.712  18.167  0.00  0.00    +0.000 HD
ENDBRANCH   8  16
BRANCH   4  18
ATOM     18  C   UNL     1       6.173   4.339  16.380  0.00  0.00    +0.000 C 
BRANCH  18  19
ATOM     19  C   UNL     1       6.348   4.682  14.897  0.00  0.00    +0.000 C 
BRANCH  19  20
ATOM     20  N   UNL     1       5.948   3.630  13.976  0.00  0.00    +0.000 N 
ATOM     21  C   UNL     1       6.356   3.608  12.664  0.00  0.00    +0.000 C 
ATOM     22  C   UNL     1       5.679   2.551  11.828  0.00  0.00    +0.000 C 
ATOM     23  O   UNL     1       7.197   4.368  12.206  0.00  0.00    +0.000 OA
ATOM     24  H   UNL     1       5.136   3.079  14.228  0.00  0.00    +0.000 HD
ENDBRANCH  19  20
ENDBRANCH  18  19
ENDBRANCH   4  18
TORSDOF 7
ENDMDL
MODEL 2
REMARK VINA RESULT:      -7.2      0.879      1.142
REMARK  Name = 
REMARK  10 active torsions:
REMARK  status: ('A' for Active; 'I' for Inactive)
REMARK    1  A    between atoms: C_1  and  C_2
REMARK    2  A    between atoms: C_2  and  O_3
REMARK    3  A    between atoms: O_3  and  C_4
REMARK    4  A    between atoms: C_4  and  C_6
REMARK    5  A    between atoms: C_7  and  C_8
REMARK    6  A    between atoms: N_9  and  C_10
REMARK    7  A    between atoms: C_10  and  C_11
REMARK    8  A    between atoms: C_11  and  N_12
REMARK    9  A    between atoms: C_13  and  C_14
REMARK   10  A    between atoms: C_19  and  O_20
REMARK                            x       y       z     vdW  Elec       q    Type
REMARK                         _______ _______ _______ _____ _____    ______ ____
ROOT
ATOM      1  C   UNL     1       3.499   6.146  17.777  0.00  0.00    +0.000 A 
ATOM      2  C   UNL     1       4.808   6.072  17.315  0.00  0.00    +0.000 A 
ATOM      3  C   UNL     1       5.805   7.173  17.113  0.00  0.00    +0.000 C 
ATOM      4  N   UNL     1       5.101   4.730  17.059  0.00  0.00    +0.000 N 
ATOM      5  C   UNL     1       4.007   3.945  17.408  0.00  0.00    +0.000 A 
ATOM      6  C   UNL     1       3.766   2.554  17.383  0.00  0.00    +0.000 A 
ATOM      7  C   UNL     1       2.514   2.055  17.760  0.00  0.00    +0.000 A 
ATOM      8  C   UNL     1       1.522   2.914  18.185  0.00  0.00    +0.000 A 
ATOM      9  C   UNL     1       1.749   4.282  18.245  0.00  0.00    +0.000 A 
ATOM     10  C   UNL     1       3.000   4.811  17.853  0.00  0.00    +0.000 A 
ENDROOT
BRANCH   1  11
ATOM     11  C   UNL     1       2.712   7.334  18.099  0.00  0.00    +0.000 C 
ATOM     12  O   UNL     1       2.580   8.284  17.333  0.00  0.00    +0.000 OA
BRANCH  11  13
ATOM     13  O   UNL     1       2.292   7.345  19.397  0.00  0.00    +0.000 OA
BRANCH  13  15
ATOM     14  C   UNL     1       1.185   8.383  21.243  0.00  0.00    +0.000 C 
ATOM     15  C   UNL     1       1.590   8.533  19.785  0.00  0.00    +0.000 C 
ENDBRANCH  13  15
ENDBRANCH  11  13
ENDBRANCH   1  11
BRANCH   8  16
ATOM     16  O   UNL     1       0.294   2.455  18.559  0.00  0.00    +0.000 OA
ATOM     17  H   UNL     1       0.174   2.624  19.507  0.00  0.00    +0.000 HD
ENDBRANCH   8  16
BRANCH   4  18
ATOM     18  C   UNL     1       6.414   4.285  16.583  0.00  0.00    +0.000 C 
BRANCH  18  19
ATOM     19  C   UNL     1       6.770   4.540  15.114  0.00  0.00    +0.000 C 
BRANCH  19  20
ATOM     20  N   UNL     1       6.139   3.634  14.167  0.00  0.00    +0.000 N 
ATOM     21  C   UNL     1       6.362   3.714  12.813  0.00  0.00    +0.000 C 
ATOM     22  C   UNL     1       5.470   2.820  11.990  0.00  0.00    +0.000 C 
ATOM     23  O   UNL     1       7.212   4.435  12.311  0.00  0.00    +0.000 OA
ATOM     24  H   UNL     1       5.313   3.138  14.482  0.00  0.00    +0.000 HD
ENDBRANCH  19  20
ENDBRANCH  18  19
ENDBRANCH   4  18
TORSDOF 7
ENDMDL
MODEL 3
REMARK VINA RESULT:      -7.2      2.173      2.892
REMARK  Name = 
REMARK  10 active torsions:
REMARK  status: ('A' for Active; 'I' for Inactive)
REMARK    1  A    between atoms: C_1  and  C_2
REMARK    2  A    between atoms: C_2  and  O_3
REMARK    3  A    between atoms: O_3  and  C_4
REMARK    4  A    between atoms: C_4  and  C_6
REMARK    5  A    between atoms: C_7  and  C_8
REMARK    6  A    between atoms: N_9  and  C_10
REMARK    7  A    between atoms: C_10  and  C_11
REMARK    8  A    between atoms: C_11  and  N_12
REMARK    9  A    between atoms: C_13  and  C_14
REMARK   10  A    between atoms: C_19  and  O_20
REMARK                            x       y       z     vdW  Elec       q    Type
REMARK                         _______ _______ _______ _____ _____    ______ ____
ROOT
ATOM      1  C   UNL     1       2.977   6.297  18.045  0.00  0.00    +0.000 A 
ATOM      2  C   UNL     1       4.062   6.251  17.178  0.00  0.00    +0.000 A 
ATOM      3  C   UNL     1       4.944   7.368  16.704  0.00  0.00    +0.000 C 
ATOM      4  N   UNL     1       4.249   4.923  16.789  0.00  0.00    +0.000 N 
ATOM      5  C   UNL     1       3.326   4.116  17.446  0.00  0.00    +0.000 A 
ATOM      6  C   UNL     1       3.084   2.725  17.448  0.00  0.00    +0.000 A 
ATOM      7  C   UNL     1       2.021   2.202  18.194  0.00  0.00    +0.000 A 
ATOM      8  C   UNL     1       1.227   3.037  18.953  0.00  0.00    +0.000 A 
ATOM      9  C   UNL     1       1.468   4.403  18.988  0.00  0.00    +0.000 A 
ATOM     10  C   UNL     1       2.525   4.956  18.229  0.00  0.00    +0.000 A 
ENDROOT
BRANCH   1  11
ATOM     11  C   UNL     1       2.344   7.466  18.652  0.00  0.00    +0.000 C 
ATOM     12  O   UNL     1       2.239   7.623  19.864  0.00  0.00    +0.000 OA
BRANCH  11  13
ATOM     13  O   UNL     1       1.734   8.266  17.730  0.00  0.00    +0.000 OA
BRANCH  13  15
ATOM     14  C   UNL     1       0.303  10.053  18.411  0.00  0.00    +0.000 C 
ATOM     15  C   UNL     1       1.729   9.660  18.062  0.00  0.00    +0.000 C 
ENDBRANCH  13  15
ENDBRANCH  11  13
ENDBRANCH   1  11
BRANCH   8  16
ATOM     16  O   UNL     1       0.187   2.553  19.690  0.00  0.00    +0.000 OA
ATOM     17  H   UNL     1       0.528   1.891  20.311  0.00  0.00    +0.000 HD
ENDBRANCH   8  16
BRANCH   4  18
ATOM     18  C   UNL     1       5.333   4.506  15.893  0.00  0.00    +0.000 C 
BRANCH  18  19
ATOM     19  C   UNL     1       6.639   4.013  16.525  0.00  0.00    +0.000 C 
BRANCH  19  20
ATOM     20  N   UNL     1       7.459   5.055  17.124  0.00  0.00    +0.000 N 
ATOM     21  C   UNL     1       7.357   5.398  18.450  0.00  0.00    +0.000 C 
ATOM     22  C   UNL     1       8.147   6.625  18.829  0.00  0.00    +0.000 C 
ATOM     23  O   UNL     1       6.695   4.768  19.262  0.00  0.00    +0.000 OA
ATOM     24  H   UNL     1       7.892   5.720  16.494  0.00  0.00    +0.000 HD
ENDBRANCH  19  20
ENDBRANCH  18  19
ENDBRANCH   4  18
TORSDOF 7
ENDMDL
MODEL 4
REMARK VINA RESULT:      -7.1      2.499      4.988
REMARK  Name = 
REMARK  10 active torsions:
REMARK  status: ('A' for Active; 'I' for Inactive)
REMARK    1  A    between atoms: C_1  and  C_2
REMARK    2  A    between atoms: C_2  and  O_3
REMARK    3  A    between atoms: O_3  and  C_4
REMARK    4  A    between atoms: C_4  and  C_6
REMARK    5  A    between atoms: C_7  and  C_8
REMARK    6  A    between atoms: N_9  and  C_10
REMARK    7  A    between atoms: C_10  and  C_11
REMARK    8  A    between atoms: C_11  and  N_12
REMARK    9  A    between atoms: C_13  and  C_14
REMARK   10  A    between atoms: C_19  and  O_20
REMARK                            x       y       z     vdW  Elec       q    Type
REMARK                         _______ _______ _______ _____ _____    ______ ____
ROOT
ATOM      1  C   UNL     1       2.425   4.149  18.376  0.00  0.00    +0.000 A 
ATOM      2  C   UNL     1       3.496   3.490  17.784  0.00  0.00    +0.000 A 
ATOM      3  C   UNL     1       3.757   2.017  17.673  0.00  0.00    +0.000 C 
ATOM      4  N   UNL     1       4.355   4.453  17.250  0.00  0.00    +0.000 N 
ATOM      5  C   UNL     1       3.810   5.717  17.449  0.00  0.00    +0.000 A 
ATOM      6  C   UNL     1       4.231   7.018  17.097  0.00  0.00    +0.000 A 
ATOM      7  C   UNL     1       3.472   8.127  17.491  0.00  0.00    +0.000 A 
ATOM      8  C   UNL     1       2.298   7.953  18.194  0.00  0.00    +0.000 A 
ATOM      9  C   UNL     1       1.853   6.680  18.522  0.00  0.00    +0.000 A 
ATOM     10  C   UNL     1       2.611   5.546  18.151  0.00  0.00    +0.000 A 
ENDROOT
BRANCH   1  11
ATOM     11  C   UNL     1       1.312   3.583  19.136  0.00  0.00    +0.000 C 
ATOM     12  O   UNL     1       0.554   2.730  18.687  0.00  0.00    +0.000 OA
BRANCH  11  13
ATOM     13  O   UNL     1       1.109   4.228  20.321  0.00  0.00    +0.000 OA
BRANCH  13  15
ATOM     14  C   UNL     1       1.770   2.548  21.885  0.00  0.00    +0.000 C 
ATOM     15  C   UNL     1       2.078   3.930  21.334  0.00  0.00    +0.000 C 
ENDBRANCH  13  15
ENDBRANCH  11  13
ENDBRANCH   1  11
BRANCH   8  16
ATOM     16  O   UNL     1       1.540   9.016  18.588  0.00  0.00    +0.000 OA
ATOM     17  H   UNL     1       1.714   9.192  19.525  0.00  0.00    +0.000 HD
ENDBRANCH   8  16
BRANCH   4  18
ATOM     18  C   UNL     1       5.580   4.103  16.524  0.00  0.00    +0.000 C 
BRANCH  18  19
ATOM     19  C   UNL     1       6.924   4.400  17.198  0.00  0.00    +0.000 C 
BRANCH  19  20
ATOM     20  N   UNL     1       7.391   5.770  17.050  0.00  0.00    +0.000 N 
ATOM     21  C   UNL     1       7.660   6.575  18.131  0.00  0.00    +0.000 C 
ATOM     22  C   UNL     1       7.943   8.012  17.771  0.00  0.00    +0.000 C 
ATOM     23  O   UNL     1       7.679   6.172  19.285  0.00  0.00    +0.000 OA
ATOM     24  H   UNL     1       7.237   6.216  16.154  0.00  0.00    +0.000 HD
ENDBRANCH  19  20
ENDBRANCH  18  19
ENDBRANCH   4  18
TORSDOF 7
ENDMDL
MODEL 5
REMARK VINA RESULT:      -7.0      2.351      3.227
REMARK  Name = 
REMARK  10 active torsions:
REMARK  status: ('A' for Active; 'I' for Inactive)
REMARK    1  A    between atoms: C_1  and  C_2
REMARK    2  A    between atoms: C_2  and  O_3
REMARK    3  A    between atoms: O_3  and  C_4
REMARK    4  A    between atoms: C_4  and  C_6
REMARK    5  A    between atoms: C_7  and  C_8
REMARK    6  A    between atoms: N_9  and  C_10
REMARK    7  A    between atoms: C_10  and  C_11
REMARK    8  A    between atoms: C_11  and  N_12
REMARK    9  A    between atoms: C_13  and  C_14
REMARK   10  A    between atoms: C_19  and  O_20
REMARK                            x       y       z     vdW  Elec       q    Type
REMARK                         _______ _______ _______ _____ _____    ______ ____
ROOT
ATOM      1  C   UNL     1       2.943   6.315  17.946  0.00  0.00    +0.000 A 
ATOM      2  C   UNL     1       4.101   6.243  17.179  0.00  0.00    +0.000 A 
ATOM      3  C   UNL     1       4.981   7.353  16.686  0.00  0.00    +0.000 C 
ATOM      4  N   UNL     1       4.367   4.896  16.924  0.00  0.00    +0.000 N 
ATOM      5  C   UNL     1       3.419   4.108  17.568  0.00  0.00    +0.000 A 
ATOM      6  C   UNL     1       3.227   2.713  17.670  0.00  0.00    +0.000 A 
ATOM      7  C   UNL     1       2.122   2.210  18.367  0.00  0.00    +0.000 A 
ATOM      8  C   UNL     1       1.236   3.070  18.982  0.00  0.00    +0.000 A 
ATOM      9  C   UNL     1       1.425   4.443  18.919  0.00  0.00    +0.000 A 
ATOM     10  C   UNL     1       2.524   4.976  18.206  0.00  0.00    +0.000 A 
ENDROOT
BRANCH   1  11
ATOM     11  C   UNL     1       2.219   7.502  18.395  0.00  0.00    +0.000 C 
ATOM     12  O   UNL     1       1.814   8.374  17.632  0.00  0.00    +0.000 OA
BRANCH  11  13
ATOM     13  O   UNL     1       2.200   7.617  19.755  0.00  0.00    +0.000 OA
BRANCH  13  15
ATOM     14  C   UNL     1       0.675   8.262  21.476  0.00  0.00    +0.000 C 
ATOM     15  C   UNL     1       1.437   8.726  20.246  0.00  0.00    +0.000 C 
ENDBRANCH  13  15
ENDBRANCH  11  13
ENDBRANCH   1  11
BRANCH   8  16
ATOM     16  O   UNL     1       0.154   2.605  19.669  0.00  0.00    +0.000 OA
ATOM     17  H   UNL     1       0.415   1.811  20.160  0.00  0.00    +0.000 HD
ENDBRANCH   8  16
BRANCH   4  18
ATOM     18  C   UNL     1       5.538   4.453  16.160  0.00  0.00    +0.000 C 
BRANCH  18  19
ATOM     19  C   UNL     1       6.841   4.199  16.925  0.00  0.00    +0.000 C 
BRANCH  19  20
ATOM     20  N   UNL     1       7.589   5.398  17.272  0.00  0.00    +0.000 N 
ATOM     21  C   UNL     1       7.603   5.911  18.547  0.00  0.00    +0.000 C 
ATOM     22  C   UNL     1       8.271   7.258  18.658  0.00  0.00    +0.000 C 
ATOM     23  O   UNL     1       7.126   5.333  19.513  0.00  0.00    +0.000 OA
ATOM     24  H   UNL     1       7.857   6.010  16.512  0.00  0.00    +0.000 HD
ENDBRANCH  19  20
ENDBRANCH  18  19
ENDBRANCH   4  18
TORSDOF 7
ENDMDL
MODEL 6
REMARK VINA RESULT:      -6.9      3.529      7.130
REMARK  Name = 
REMARK  10 active torsions:
REMARK  status: ('A' for Active; 'I' for Inactive)
REMARK    1  A    between atoms: C_1  and  C_2
REMARK    2  A    between atoms: C_2  and  O_3
REMARK    3  A    between atoms: O_3  and  C_4
REMARK    4  A    between atoms: C_4  and  C_6
REMARK    5  A    between atoms: C_7  and  C_8
REMARK    6  A    between atoms: N_9  and  C_10
REMARK    7  A    between atoms: C_10  and  C_11
REMARK    8  A    between atoms: C_11  and  N_12
REMARK    9  A    between atoms: C_13  and  C_14
REMARK   10  A    between atoms: C_19  and  O_20
REMARK                            x       y       z     vdW  Elec       q    Type
REMARK                         _______ _______ _______ _____ _____    ______ ____
ROOT
ATOM      1  C   UNL     1       3.923   6.292  18.037  0.00  0.00    +0.000 A 
ATOM      2  C   UNL     1       2.943   7.181  18.461  0.00  0.00    +0.000 A 
ATOM      3  C   UNL     1       2.582   8.528  17.908  0.00  0.00    +0.000 C 
ATOM      4  N   UNL     1       2.274   6.605  19.543  0.00  0.00    +0.000 N 
ATOM      5  C   UNL     1       2.785   5.332  19.776  0.00  0.00    +0.000 A 
ATOM      6  C   UNL     1       2.471   4.317  20.705  0.00  0.00    +0.000 A 
ATOM      7  C   UNL     1       3.216   3.132  20.724  0.00  0.00    +0.000 A 
ATOM      8  C   UNL     1       4.238   2.938  19.818  0.00  0.00    +0.000 A 
ATOM      9  C   UNL     1       4.542   3.911  18.877  0.00  0.00    +0.000 A 
ATOM     10  C   UNL     1       3.814   5.123  18.849  0.00  0.00    +0.000 A 
ENDROOT
BRANCH   1  11
ATOM     11  C   UNL     1       4.932   6.475  16.996  0.00  0.00    +0.000 C 
ATOM     12  O   UNL     1       4.863   5.948  15.890  0.00  0.00    +0.000 OA
BRANCH  11  13
ATOM     13  O   UNL     1       6.031   7.146  17.448  0.00  0.00    +0.000 OA
BRANCH  13  15
ATOM     14  C   UNL     1       7.752   6.139  18.763  0.00  0.00    +0.000 C 
ATOM     15  C   UNL     1       7.257   6.410  17.352  0.00  0.00    +0.000 C 
ENDBRANCH  13  15
ENDBRANCH  11  13
ENDBRANCH   1  11
BRANCH   8  16
ATOM     16  O   UNL     1       4.977   1.793  19.814  0.00  0.00    +0.000 OA
ATOM     17  H   UNL     1       4.383   1.039  19.672  0.00  0.00    +0.000 HD
ENDBRANCH   8  16
BRANCH   4  18
ATOM     18  C   UNL     1       1.154   7.263  20.223  0.00  0.00    +0.000 C 
BRANCH  18  19
ATOM     19  C   UNL     1       1.478   8.262  21.339  0.00  0.00    +0.000 C 
BRANCH  19  20
ATOM     20  N   UNL     1       0.470   9.290  21.549  0.00  0.00    +0.000 N 
ATOM     21  C   UNL     1       0.168   9.778  22.798  0.00  0.00    +0.000 C 
ATOM     22  C   UNL     1      -1.032  10.689  22.827  0.00  0.00    +0.000 C 
ATOM     23  O   UNL     1       0.813   9.509  23.802  0.00  0.00    +0.000 OA
ATOM     24  H   UNL     1      -0.207   9.431  20.809  0.00  0.00    +0.000 HD
ENDBRANCH  19  20
ENDBRANCH  18  19
ENDBRANCH   4  18
TORSDOF 7
ENDMDL
MODEL 7
REMARK VINA RESULT:      -6.9      1.218      1.524
REMARK  Name = 
REMARK  10 active torsions:
REMARK  status: ('A' for Active; 'I' for Inactive)
REMARK    1  A    between atoms: C_1  and  C_2
REMARK    2  A    between atoms: C_2  and  O_3
REMARK    3  A    between atoms: O_3  and  C_4
REMARK    4  A    between atoms: C_4  and  C_6
REMARK    5  A    between atoms: C_7  and  C_8
REMARK    6  A    between atoms: N_9  and  C_10
REMARK    7  A    between atoms: C_10  and  C_11
REMARK    8  A    between atoms: C_11  and  N_12
REMARK    9  A    between atoms: C_13  and  C_14
REMARK   10  A    between atoms: C_19  and  O_20
REMARK                            x       y       z     vdW  Elec       q    Type
REMARK                         _______ _______ _______ _____ _____    ______ ____
ROOT
ATOM      1  C   UNL     1       3.194   6.132  18.084  0.00  0.00    +0.000 A 
ATOM      2  C   UNL     1       4.466   6.027  17.534  0.00  0.00    +0.000 A 
ATOM      3  C   UNL     1       5.451   7.111  17.210  0.00  0.00    +0.000 C 
ATOM      4  N   UNL     1       4.735   4.673  17.323  0.00  0.00    +0.000 N 
ATOM      5  C   UNL     1       3.666   3.913  17.786  0.00  0.00    +0.000 A 
ATOM      6  C   UNL     1       3.420   2.524  17.845  0.00  0.00    +0.000 A 
ATOM      7  C   UNL     1       2.195   2.053  18.334  0.00  0.00    +0.000 A 
ATOM      8  C   UNL     1       1.239   2.938  18.786  0.00  0.00    +0.000 A 
ATOM      9  C   UNL     1       1.475   4.305  18.765  0.00  0.00    +0.000 A 
ATOM     10  C   UNL     1       2.697   4.806  18.260  0.00  0.00    +0.000 A 
ENDROOT
BRANCH   1  11
ATOM     11  C   UNL     1       2.436   7.340  18.404  0.00  0.00    +0.000 C 
ATOM     12  O   UNL     1       2.108   8.173  17.565  0.00  0.00    +0.000 OA
BRANCH  11  13
ATOM     13  O   UNL     1       2.289   7.523  19.749  0.00  0.00    +0.000 OA
BRANCH  13  15
ATOM     14  C   UNL     1       0.688   8.303  21.341  0.00  0.00    +0.000 C 
ATOM     15  C   UNL     1       1.506   8.666  20.112  0.00  0.00    +0.000 C 
ENDBRANCH  13  15
ENDBRANCH  11  13
ENDBRANCH   1  11
BRANCH   8  16
ATOM     16  O   UNL     1       0.040   2.505  19.269  0.00  0.00    +0.000 OA
ATOM     17  H   UNL     1       0.203   1.888  19.999  0.00  0.00    +0.000 HD
ENDBRANCH   8  16
BRANCH   4  18
ATOM     18  C   UNL     1       6.010   4.197  16.776  0.00  0.00    +0.000 C 
BRANCH  18  19
ATOM     19  C   UNL     1       6.056   3.812  15.293  0.00  0.00    +0.000 C 
BRANCH  19  20
ATOM     20  N   UNL     1       6.803   4.730  14.447  0.00  0.00    +0.000 N 
ATOM     21  C   UNL     1       7.007   4.494  13.109  0.00  0.00    +0.000 C 
ATOM     22  C   UNL     1       7.965   5.458  12.456  0.00  0.00    +0.000 C 
ATOM     23  O   UNL     1       6.459   3.593  12.491  0.00  0.00    +0.000 OA
ATOM     24  H   UNL     1       7.416   5.390  14.911  0.00  0.00    +0.000 HD
ENDBRANCH  19  20
ENDBRANCH  18  19
ENDBRANCH   4  18
TORSDOF 7
ENDMDL
MODEL 8
REMARK VINA RESULT:      -6.8      2.471      5.451
REMARK  Name = 
REMARK  10 active torsions:
REMARK  status: ('A' for Active; 'I' for Inactive)
REMARK    1  A    between atoms: C_1  and  C_2
REMARK    2  A    between atoms: C_2  and  O_3
REMARK    3  A    between atoms: O_3  and  C_4
REMARK    4  A    between atoms: C_4  and  C_6
REMARK    5  A    between atoms: C_7  and  C_8
REMARK    6  A    between atoms: N_9  and  C_10
REMARK    7  A    between atoms: C_10  and  C_11
REMARK    8  A    between atoms: C_11  and  N_12
REMARK    9  A    between atoms: C_13  and  C_14
REMARK   10  A    between atoms: C_19  and  O_20
REMARK                            x       y       z     vdW  Elec       q    Type
REMARK                         _______ _______ _______ _____ _____    ______ ____
ROOT
ATOM      1  C   UNL     1       3.236   6.341  17.823  0.00  0.00    +0.000 A 
ATOM      2  C   UNL     1       2.712   5.055  17.788  0.00  0.00    +0.000 A 
ATOM      3  C   UNL     1       1.289   4.606  17.944  0.00  0.00    +0.000 C 
ATOM      4  N   UNL     1       3.763   4.166  17.553  0.00  0.00    +0.000 N 
ATOM      5  C   UNL     1       4.943   4.882  17.383  0.00  0.00    +0.000 A 
ATOM      6  C   UNL     1       6.274   4.504  17.101  0.00  0.00    +0.000 A 
ATOM      7  C   UNL     1       7.278   5.477  17.037  0.00  0.00    +0.000 A 
ATOM      8  C   UNL     1       6.968   6.809  17.217  0.00  0.00    +0.000 A 
ATOM      9  C   UNL     1       5.661   7.204  17.465  0.00  0.00    +0.000 A 
ATOM     10  C   UNL     1       4.633   6.237  17.551  0.00  0.00    +0.000 A 
ENDROOT
BRANCH   1  11
ATOM     11  C   UNL     1       2.550   7.598  18.119  0.00  0.00    +0.000 C 
ATOM     12  O   UNL     1       2.401   8.495  17.297  0.00  0.00    +0.000 OA
BRANCH  11  13
ATOM     13  O   UNL     1       2.254   7.729  19.445  0.00  0.00    +0.000 OA
BRANCH  13  15
ATOM     14  C   UNL     1       0.788   8.595  21.122  0.00  0.00    +0.000 C 
ATOM     15  C   UNL     1       1.411   8.846  19.758  0.00  0.00    +0.000 C 
ENDBRANCH  13  15
ENDBRANCH  11  13
ENDBRANCH   1  11
BRANCH   8  16
ATOM     16  O   UNL     1       7.927   7.777  17.158  0.00  0.00    +0.000 OA
ATOM     17  H   UNL     1       8.786   7.355  17.001  0.00  0.00    +0.000 HD
ENDBRANCH   8  16
BRANCH   4  18
ATOM     18  C   UNL     1       3.562   2.719  17.427  0.00  0.00    +0.000 C 
BRANCH  18  19
ATOM     19  C   UNL     1       3.762   1.854  18.677  0.00  0.00    +0.000 C 
BRANCH  19  20
ATOM     20  N   UNL     1       3.553   2.547  19.939  0.00  0.00    +0.000 N 
ATOM     21  C   UNL     1       2.321   2.616  20.544  0.00  0.00    +0.000 C 
ATOM     22  C   UNL     1       2.273   3.539  21.735  0.00  0.00    +0.000 C 
ATOM     23  O   UNL     1       1.346   1.984  20.164  0.00  0.00    +0.000 OA
ATOM     24  H   UNL     1       4.255   3.223  20.216  0.00  0.00    +0.000 HD
ENDBRANCH  19  20
ENDBRANCH  18  19
ENDBRANCH   4  18
TORSDOF 7
ENDMDL
MODEL 9
REMARK VINA RESULT:      -6.8      2.441      6.190
REMARK  Name = 
REMARK  10 active torsions:
REMARK  status: ('A' for Active; 'I' for Inactive)
REMARK    1  A    between atoms: C_1  and  C_2
REMARK    2  A    between atoms: C_2  and  O_3
REMARK    3  A    between atoms: O_3  and  C_4
REMARK    4  A    between atoms: C_4  and  C_6
REMARK    5  A    between atoms: C_7  and  C_8
REMARK    6  A    between atoms: N_9  and  C_10
REMARK    7  A    between atoms: C_10  and  C_11
REMARK    8  A    between atoms: C_11  and  N_12
REMARK    9  A    between atoms: C_13  and  C_14
REMARK   10  A    between atoms: C_19  and  O_20
REMARK                            x       y       z     vdW  Elec       q    Type
REMARK                         _______ _______ _______ _____ _____    ______ ____
ROOT
ATOM      1  C   UNL     1       5.568   5.234  17.553  0.00  0.00    +0.000 A 
ATOM      2  C   UNL     1       5.201   6.568  17.421  0.00  0.00    +0.000 A 
ATOM      3  C   UNL     1       6.061   7.765  17.141  0.00  0.00    +0.000 C 
ATOM      4  N   UNL     1       3.816   6.653  17.579  0.00  0.00    +0.000 N 
ATOM      5  C   UNL     1       3.293   5.376  17.754  0.00  0.00    +0.000 A 
ATOM      6  C   UNL     1       1.982   4.883  17.930  0.00  0.00    +0.000 A 
ATOM      7  C   UNL     1       1.773   3.514  18.136  0.00  0.00    +0.000 A 
ATOM      8  C   UNL     1       2.840   2.640  18.139  0.00  0.00    +0.000 A 
ATOM      9  C   UNL     1       4.133   3.102  17.938  0.00  0.00    +0.000 A 
ATOM     10  C   UNL     1       4.370   4.482  17.744  0.00  0.00    +0.000 A 
ENDROOT
BRANCH   1  11
ATOM     11  C   UNL     1       6.909   4.653  17.550  0.00  0.00    +0.000 C 
ATOM     12  O   UNL     1       7.520   4.363  18.573  0.00  0.00    +0.000 OA
BRANCH  11  13
ATOM     13  O   UNL     1       7.466   4.635  16.305  0.00  0.00    +0.000 OA
BRANCH  13  15
ATOM     14  C   UNL     1       6.722   4.777  14.039  0.00  0.00    +0.000 C 
ATOM     15  C   UNL     1       6.687   3.952  15.315  0.00  0.00    +0.000 C 
ENDBRANCH  13  15
ENDBRANCH  11  13
ENDBRANCH   1  11
BRANCH   8  16
ATOM     16  O   UNL     1       2.664   1.302  18.336  0.00  0.00    +0.000 OA
ATOM     17  H   UNL     1       2.568   0.871  17.472  0.00  0.00    +0.000 HD
ENDBRANCH   8  16
BRANCH   4  18
ATOM     18  C   UNL     1       3.084   7.920  17.472  0.00  0.00    +0.000 C 
BRANCH  18  19
ATOM     19  C   UNL     1       2.186   8.331  18.643  0.00  0.00    +0.000 C 
BRANCH  19  20
ATOM     20  N   UNL     1       1.207   9.360  18.330  0.00  0.00    +0.000 N 
ATOM     21  C   UNL     1       0.387   9.910  19.286  0.00  0.00    +0.000 C 
ATOM     22  C   UNL     1      -0.686  10.811  18.730  0.00  0.00    +0.000 C 
ATOM     23  O   UNL     1       0.513   9.701  20.484  0.00  0.00    +0.000 OA
ATOM     24  H   UNL     1       0.932   9.455  17.359  0.00  0.00    +0.000 HD
ENDBRANCH  19  20
ENDBRANCH  18  19
ENDBRANCH   4  18
TORSDOF 7
ENDMDL
