MODEL 1
REMARK VINA RESULT:      -6.7      0.000      0.000
REMARK  Name = 
REMARK  5 active torsions:
REMARK  status: ('A' for Active; 'I' for Inactive)
REMARK    1  A    between atoms: C_1  and  C_2
REMARK    2  A    between atoms: C_5  and  N_6
REMARK    3  A    between atoms: C_7  and  C_9
REMARK    4  A    between atoms: C_9  and  N_10
REMARK    5  A    between atoms: N_13  and  C_14
REMARK                            x       y       z     vdW  Elec       q    Type
REMARK                         _______ _______ _______ _____ _____    ______ ____
ROOT
ATOM      1  N   UNL     1       3.155   6.205  18.934  0.00  0.00    +0.000 N 
ATOM      2  C   UNL     1       2.761   5.036  18.295  0.00  0.00    +0.000 C 
ATOM      3  O   UNL     1       1.709   4.864  17.680  0.00  0.00    +0.000 OA
ATOM      4  H   UNL     1       4.031   6.178  19.441  0.00  0.00    +0.000 HD
ENDROOT
BRANCH   1   9
ATOM      5  C   UNL     1      -0.098  10.925  19.340  0.00  0.00    +0.000 C 
ATOM      6  C   UNL     1       0.804   9.729  19.250  0.00  0.00    +0.000 A 
ATOM      7  C   UNL     1       1.423   9.405  18.041  0.00  0.00    +0.000 A 
ATOM      8  C   UNL     1       2.216   8.267  17.932  0.00  0.00    +0.000 A 
ATOM      9  C   UNL     1       2.411   7.409  19.018  0.00  0.00    +0.000 A 
ATOM     10  C   UNL     1       1.822   7.753  20.242  0.00  0.00    +0.000 A 
ATOM     11  C   UNL     1       1.023   8.907  20.354  0.00  0.00    +0.000 A 
ENDBRANCH   1   9
BRANCH   2  12
ATOM     12  C   UNL     1       3.774   3.884  18.387  0.00  0.00    +0.000 C 
BRANCH  12  13
ATOM     13  N   UNL     1       5.002   4.135  17.608  0.00  0.00    +0.000 NA
ATOM     14  C   UNL     1       6.122   4.443  18.530  0.00  0.00    +0.000 C 
ATOM     15  C   UNL     1       7.453   4.744  17.794  0.00  0.00    +0.000 C 
ATOM     16  N   UNL     1       7.376   5.741  16.707  0.00  0.00    +0.000 NA
ATOM     17  C   UNL     1       7.364   7.109  17.215  0.00  0.00    +0.000 C 
ATOM     18  C   UNL     1       6.191   5.463  15.872  0.00  0.00    +0.000 C 
ATOM     19  C   UNL     1       4.874   5.272  16.665  0.00  0.00    +0.000 C 
ENDBRANCH  12  13
ENDBRANCH   2  12
TORSDOF 3
ENDMDL
MODEL 2
REMARK VINA RESULT:      -6.6      3.156      5.702
REMARK  Name = 
REMARK  5 active torsions:
REMARK  status: ('A' for Active; 'I' for Inactive)
REMARK    1  A    between atoms: C_1  and  C_2
REMARK    2  A    between atoms: C_5  and  N_6
REMARK    3  A    between atoms: C_7  and  C_9
REMARK    4  A    between atoms: C_9  and  N_10
REMARK    5  A    between atoms: N_13  and  C_14
REMARK                            x       y       z     vdW  Elec       q    Type
REMARK                         _______ _______ _______ _____ _____    ______ ____
ROOT
ATOM      1  N   UNL     1       5.315   3.810  18.341  0.00  0.00    +0.000 N 
ATOM      2  C   UNL     1       4.427   3.209  17.457  0.00  0.00    +0.000 C 
ATOM      3  O   UNL     1       4.127   3.622  16.338  0.00  0.00    +0.000 OA
ATOM      4  H   UNL     1       5.423   3.376  19.249  0.00  0.00    +0.000 HD
ENDROOT
BRANCH   1   9
ATOM      5  C   UNL     1       8.159   8.770  17.764  0.00  0.00    +0.000 C 
ATOM      6  C   UNL     1       7.450   7.452  17.863  0.00  0.00    +0.000 A 
ATOM      7  C   UNL     1       6.253   7.244  17.173  0.00  0.00    +0.000 A 
ATOM      8  C   UNL     1       5.557   6.046  17.303  0.00  0.00    +0.000 A 
ATOM      9  C   UNL     1       6.024   5.019  18.129  0.00  0.00    +0.000 A 
ATOM     10  C   UNL     1       7.244   5.211  18.790  0.00  0.00    +0.000 A 
ATOM     11  C   UNL     1       7.950   6.421  18.656  0.00  0.00    +0.000 A 
ENDBRANCH   1   9
BRANCH   2  12
ATOM     12  C   UNL     1       3.794   1.908  17.972  0.00  0.00    +0.000 C 
BRANCH  12  13
ATOM     13  N   UNL     1       2.795   2.135  19.034  0.00  0.00    +0.000 NA
ATOM     14  C   UNL     1       1.744   3.057  18.539  0.00  0.00    +0.000 C 
ATOM     15  C   UNL     1       0.659   3.373  19.601  0.00  0.00    +0.000 C 
ATOM     16  N   UNL     1       1.158   3.804  20.922  0.00  0.00    +0.000 NA
ATOM     17  C   UNL     1       1.554   5.210  20.929  0.00  0.00    +0.000 C 
ATOM     18  C   UNL     1       2.271   2.927  21.334  0.00  0.00    +0.000 C 
ATOM     19  C   UNL     1       3.372   2.735  20.261  0.00  0.00    +0.000 C 
ENDBRANCH  12  13
ENDBRANCH   2  12
TORSDOF 3
ENDMDL
MODEL 3
REMARK VINA RESULT:      -6.6      0.698      1.321
REMARK  Name = 
REMARK  5 active torsions:
REMARK  status: ('A' for Active; 'I' for Inactive)
REMARK    1  A    between atoms: C_1  and  C_2
REMARK    2  A    between atoms: C_5  and  N_6
REMARK    3  A    between atoms: C_7  and  C_9
REMARK    4  A    between atoms: C_9  and  N_10
REMARK    5  A    between atoms: N_13  and  C_14
REMARK                            x       y       z     vdW  Elec       q    Type
REMARK                         _______ _______ _______ _____ _____    ______ ____
ROOT
ATOM      1  N   UNL     1       3.191   6.338  19.516  0.00  0.00    +0.000 N 
ATOM      2  C   UNL     1       3.114   5.154  18.792  0.00  0.00    +0.000 C 
ATOM      3  O   UNL     1       2.286   4.887  17.923  0.00  0.00    +0.000 OA
ATOM      4  H   UNL     1       3.901   6.392  20.235  0.00  0.00    +0.000 HD
ENDROOT
BRANCH   1   9
ATOM      5  C   UNL     1      -0.122  11.005  18.990  0.00  0.00    +0.000 C 
ATOM      6  C   UNL     1       0.691   9.749  19.113  0.00  0.00    +0.000 A 
ATOM      7  C   UNL     1       0.790   9.094  20.343  0.00  0.00    +0.000 A 
ATOM      8  C   UNL     1       1.587   7.961  20.481  0.00  0.00    +0.000 A 
ATOM      9  C   UNL     1       2.317   7.449  19.405  0.00  0.00    +0.000 A 
ATOM     10  C   UNL     1       2.186   8.082  18.161  0.00  0.00    +0.000 A 
ATOM     11  C   UNL     1       1.378   9.226  18.020  0.00  0.00    +0.000 A 
ENDBRANCH   1   9
BRANCH   2  12
ATOM     12  C   UNL     1       4.193   4.119  19.144  0.00  0.00    +0.000 C 
BRANCH  12  13
ATOM     13  N   UNL     1       5.484   4.385  18.479  0.00  0.00    +0.000 NA
ATOM     14  C   UNL     1       6.332   5.227  19.357  0.00  0.00    +0.000 C 
ATOM     15  C   UNL     1       7.704   5.577  18.726  0.00  0.00    +0.000 C 
ATOM     16  N   UNL     1       7.661   6.123  17.354  0.00  0.00    +0.000 NA
ATOM     17  C   UNL     1       7.308   7.540  17.336  0.00  0.00    +0.000 C 
ATOM     18  C   UNL     1       6.728   5.322  16.538  0.00  0.00    +0.000 C 
ATOM     19  C   UNL     1       5.339   5.095  17.185  0.00  0.00    +0.000 C 
ENDBRANCH  12  13
ENDBRANCH   2  12
TORSDOF 3
ENDMDL
MODEL 4
REMARK VINA RESULT:      -6.5      1.023      1.611
REMARK  Name = 
REMARK  5 active torsions:
REMARK  status: ('A' for Active; 'I' for Inactive)
REMARK    1  A    between atoms: C_1  and  C_2
REMARK    2  A    between atoms: C_5  and  N_6
REMARK    3  A    between atoms: C_7  and  C_9
REMARK    4  A    between atoms: C_9  and  N_10
REMARK    5  A    between atoms: N_13  and  C_14
REMARK                            x       y       z     vdW  Elec       q    Type
REMARK                         _______ _______ _______ _____ _____    ______ ____
ROOT
ATOM      1  N   UNL     1       3.028   6.209  19.771  0.00  0.00    +0.000 N 
ATOM      2  C   UNL     1       2.602   4.899  19.580  0.00  0.00    +0.000 C 
ATOM      3  O   UNL     1       1.484   4.547  19.208  0.00  0.00    +0.000 OA
ATOM      4  H   UNL     1       3.966   6.339  20.128  0.00  0.00    +0.000 HD
ENDROOT
BRANCH   1   9
ATOM      5  C   UNL     1       0.113  11.098  18.982  0.00  0.00    +0.000 C 
ATOM      6  C   UNL     1       0.819   9.788  19.173  0.00  0.00    +0.000 A 
ATOM      7  C   UNL     1       0.834   9.174  20.428  0.00  0.00    +0.000 A 
ATOM      8  C   UNL     1       1.534   7.988  20.630  0.00  0.00    +0.000 A 
ATOM      9  C   UNL     1       2.248   7.380  19.595  0.00  0.00    +0.000 A 
ATOM     10  C   UNL     1       2.202   7.973  18.326  0.00  0.00    +0.000 A 
ATOM     11  C   UNL     1       1.491   9.170  18.120  0.00  0.00    +0.000 A 
ENDBRANCH   1   9
BRANCH   2  12
ATOM     12  C   UNL     1       3.668   3.832  19.868  0.00  0.00    +0.000 C 
BRANCH  12  13
ATOM     13  N   UNL     1       4.669   3.714  18.789  0.00  0.00    +0.000 NA
ATOM     14  C   UNL     1       5.743   4.716  18.996  0.00  0.00    +0.000 C 
ATOM     15  C   UNL     1       6.831   4.680  17.891  0.00  0.00    +0.000 C 
ATOM     16  N   UNL     1       6.337   4.716  16.500  0.00  0.00    +0.000 NA
ATOM     17  C   UNL     1       5.975   6.066  16.079  0.00  0.00    +0.000 C 
ATOM     18  C   UNL     1       5.202   3.783  16.360  0.00  0.00    +0.000 C 
ATOM     19  C   UNL     1       4.102   3.940  17.438  0.00  0.00    +0.000 C 
ENDBRANCH  12  13
ENDBRANCH   2  12
TORSDOF 3
ENDMDL
MODEL 5
REMARK VINA RESULT:      -6.5      3.353      6.906
REMARK  Name = 
REMARK  5 active torsions:
REMARK  status: ('A' for Active; 'I' for Inactive)
REMARK    1  A    between atoms: C_1  and  C_2
REMARK    2  A    between atoms: C_5  and  N_6
REMARK    3  A    between atoms: C_7  and  C_9
REMARK    4  A    between atoms: C_9  and  N_10
REMARK    5  A    between atoms: N_13  and  C_14
REMARK                            x       y       z     vdW  Elec       q    Type
REMARK                         _______ _______ _______ _____ _____    ______ ____
ROOT
ATOM      1  N   UNL     1       5.133   4.999  16.941  0.00  0.00    +0.000 N 
ATOM      2  C   UNL     1       5.783   4.758  18.146  0.00  0.00    +0.000 C 
ATOM      3  O   UNL     1       6.934   4.344  18.279  0.00  0.00    +0.000 OA
ATOM      4  H   UNL     1       4.166   5.294  16.992  0.00  0.00    +0.000 HD
ENDROOT
BRANCH   1   9
ATOM      5  C   UNL     1       7.294   3.878  11.735  0.00  0.00    +0.000 C 
ATOM      6  C   UNL     1       6.702   4.225  13.070  0.00  0.00    +0.000 A 
ATOM      7  C   UNL     1       7.415   5.022  13.969  0.00  0.00    +0.000 A 
ATOM      8  C   UNL     1       6.900   5.302  15.231  0.00  0.00    +0.000 A 
ATOM      9  C   UNL     1       5.665   4.793  15.643  0.00  0.00    +0.000 A 
ATOM     10  C   UNL     1       4.931   4.028  14.728  0.00  0.00    +0.000 A 
ATOM     11  C   UNL     1       5.450   3.746  13.450  0.00  0.00    +0.000 A 
ENDBRANCH   1   9
BRANCH   2  12
ATOM     12  C   UNL     1       4.944   5.059  19.397  0.00  0.00    +0.000 C 
BRANCH  12  13
ATOM     13  N   UNL     1       3.598   4.454  19.345  0.00  0.00    +0.000 NA
ATOM     14  C   UNL     1       2.728   5.090  20.364  0.00  0.00    +0.000 C 
ATOM     15  C   UNL     1       1.296   4.497  20.398  0.00  0.00    +0.000 C 
ATOM     16  N   UNL     1       1.210   3.025  20.476  0.00  0.00    +0.000 NA
ATOM     17  C   UNL     1       1.430   2.532  21.832  0.00  0.00    +0.000 C 
ATOM     18  C   UNL     1       2.164   2.428  19.522  0.00  0.00    +0.000 C 
ATOM     19  C   UNL     1       3.603   2.995  19.610  0.00  0.00    +0.000 C 
ENDBRANCH  12  13
ENDBRANCH   2  12
TORSDOF 3
ENDMDL
MODEL 6
REMARK VINA RESULT:      -6.4      3.437      6.962
REMARK  Name = 
REMARK  5 active torsions:
REMARK  status: ('A' for Active; 'I' for Inactive)
REMARK    1  A    between atoms: C_1  and  C_2
REMARK    2  A    between atoms: C_5  and  N_6
REMARK    3  A    between atoms: C_7  and  C_9
REMARK    4  A    between atoms: C_9  and  N_10
REMARK    5  A    between atoms: N_13  and  C_14
REMARK                            x       y       z     vdW  Elec       q    Type
REMARK                         _______ _______ _______ _____ _____    ______ ____
ROOT
ATOM      1  N   UNL     1       5.339   4.697  16.875  0.00  0.00    +0.000 N 
ATOM      2  C   UNL     1       6.056   4.582  18.060  0.00  0.00    +0.000 C 
ATOM      3  O   UNL     1       7.258   4.339  18.160  0.00  0.00    +0.000 OA
ATOM      4  H   UNL     1       4.342   4.853  16.954  0.00  0.00    +0.000 HD
ENDROOT
BRANCH   1   9
ATOM      5  C   UNL     1       7.371   4.322  11.512  0.00  0.00    +0.000 C 
ATOM      6  C   UNL     1       6.879   4.369  12.929  0.00  0.00    +0.000 A 
ATOM      7  C   UNL     1       5.760   3.625  13.309  0.00  0.00    +0.000 A 
ATOM      8  C   UNL     1       5.261   3.705  14.606  0.00  0.00    +0.000 A 
ATOM      9  C   UNL     1       5.852   4.534  15.563  0.00  0.00    +0.000 A 
ATOM     10  C   UNL     1       6.998   5.251  15.194  0.00  0.00    +0.000 A 
ATOM     11  C   UNL     1       7.506   5.167  13.884  0.00  0.00    +0.000 A 
ENDBRANCH   1   9
BRANCH   2  12
ATOM     12  C   UNL     1       5.224   4.794  19.333  0.00  0.00    +0.000 C 
BRANCH  12  13
ATOM     13  N   UNL     1       3.867   4.221  19.236  0.00  0.00    +0.000 NA
ATOM     14  C   UNL     1       2.942   4.981  20.110  0.00  0.00    +0.000 C 
ATOM     15  C   UNL     1       1.492   4.431  20.089  0.00  0.00    +0.000 C 
ATOM     16  N   UNL     1       1.352   2.978  20.310  0.00  0.00    +0.000 NA
ATOM     17  C   UNL     1       1.449   2.625  21.724  0.00  0.00    +0.000 C 
ATOM     18  C   UNL     1       2.358   2.261  19.503  0.00  0.00    +0.000 C 
ATOM     19  C   UNL     1       3.803   2.798  19.649  0.00  0.00    +0.000 C 
ENDBRANCH  12  13
ENDBRANCH   2  12
TORSDOF 3
ENDMDL
MODEL 7
REMARK VINA RESULT:      -6.4      1.012      1.157
REMARK  Name = 
REMARK  5 active torsions:
REMARK  status: ('A' for Active; 'I' for Inactive)
REMARK    1  A    between atoms: C_1  and  C_2
REMARK    2  A    between atoms: C_5  and  N_6
REMARK    3  A    between atoms: C_7  and  C_9
REMARK    4  A    between atoms: C_9  and  N_10
REMARK    5  A    between atoms: N_13  and  C_14
REMARK                            x       y       z     vdW  Elec       q    Type
REMARK                         _______ _______ _______ _____ _____    ______ ____
ROOT
ATOM      1  N   UNL     1       3.003   6.361  19.745  0.00  0.00    +0.000 N 
ATOM      2  C   UNL     1       2.575   5.054  19.541  0.00  0.00    +0.000 C 
ATOM      3  O   UNL     1       1.473   4.710  19.114  0.00  0.00    +0.000 OA
ATOM      4  H   UNL     1       3.923   6.484  20.149  0.00  0.00    +0.000 HD
ENDROOT
BRANCH   1   9
ATOM      5  C   UNL     1      -0.309  10.983  18.913  0.00  0.00    +0.000 C 
ATOM      6  C   UNL     1       0.606   9.816  19.144  0.00  0.00    +0.000 A 
ATOM      7  C   UNL     1       1.355   9.290  18.090  0.00  0.00    +0.000 A 
ATOM      8  C   UNL     1       2.163   8.174  18.280  0.00  0.00    +0.000 A 
ATOM      9  C   UNL     1       2.245   7.538  19.522  0.00  0.00    +0.000 A 
ATOM     10  C   UNL     1       1.525   8.088  20.591  0.00  0.00    +0.000 A 
ATOM     11  C   UNL     1       0.710   9.220  20.400  0.00  0.00    +0.000 A 
ENDBRANCH   1   9
BRANCH   2  12
ATOM     12  C   UNL     1       3.615   3.979  19.888  0.00  0.00    +0.000 C 
BRANCH  12  13
ATOM     13  N   UNL     1       4.633   3.802  18.834  0.00  0.00    +0.000 NA
ATOM     14  C   UNL     1       5.723   4.790  19.024  0.00  0.00    +0.000 C 
ATOM     15  C   UNL     1       6.829   4.693  17.943  0.00  0.00    +0.000 C 
ATOM     16  N   UNL     1       6.363   4.686  16.542  0.00  0.00    +0.000 NA
ATOM     17  C   UNL     1       6.036   6.027  16.065  0.00  0.00    +0.000 C 
ATOM     18  C   UNL     1       5.212   3.771  16.415  0.00  0.00    +0.000 C 
ATOM     19  C   UNL     1       4.095   3.989  17.465  0.00  0.00    +0.000 C 
ENDBRANCH  12  13
ENDBRANCH   2  12
TORSDOF 3
ENDMDL
MODEL 8
REMARK VINA RESULT:      -6.4      4.375      6.617
REMARK  Name = 
REMARK  5 active torsions:
REMARK  status: ('A' for Active; 'I' for Inactive)
REMARK    1  A    between atoms: C_1  and  C_2
REMARK    2  A    between atoms: C_5  and  N_6
REMARK    3  A    between atoms: C_7  and  C_9
REMARK    4  A    between atoms: C_9  and  N_10
REMARK    5  A    between atoms: N_13  and  C_14
REMARK                            x       y       z     vdW  Elec       q    Type
REMARK                         _______ _______ _______ _____ _____    ______ ____
ROOT
ATOM      1  N   UNL     1       8.965   8.857  19.179  0.00  0.00    +0.000 N 
ATOM      2  C   UNL     1       8.175   8.270  18.198  0.00  0.00    +0.000 C 
ATOM      3  O   UNL     1       7.696   8.838  17.216  0.00  0.00    +0.000 OA
ATOM      4  H   UNL     1       9.245   8.270  19.955  0.00  0.00    +0.000 HD
ENDROOT
BRANCH   1   9
ATOM      5  C   UNL     1      10.253  14.446  19.549  0.00  0.00    +0.000 C 
ATOM      6  C   UNL     1       9.981  12.972  19.461  0.00  0.00    +0.000 A 
ATOM      7  C   UNL     1      10.016  12.324  18.224  0.00  0.00    +0.000 A 
ATOM      8  C   UNL     1       9.709  10.971  18.123  0.00  0.00    +0.000 A 
ATOM      9  C   UNL     1       9.348  10.220  19.246  0.00  0.00    +0.000 A 
ATOM     10  C   UNL     1       9.351  10.860  20.492  0.00  0.00    +0.000 A 
ATOM     11  C   UNL     1       9.664  12.228  20.596  0.00  0.00    +0.000 A 
ENDBRANCH   1   9
BRANCH   2  12
ATOM     12  C   UNL     1       7.911   6.771  18.401  0.00  0.00    +0.000 C 
BRANCH  12  13
ATOM     13  N   UNL     1       7.061   6.189  17.344  0.00  0.00    +0.000 NA
ATOM     14  C   UNL     1       5.633   6.396  17.682  0.00  0.00    +0.000 C 
ATOM     15  C   UNL     1       4.663   5.793  16.633  0.00  0.00    +0.000 C 
ATOM     16  N   UNL     1       4.917   4.388  16.256  0.00  0.00    +0.000 NA
ATOM     17  C   UNL     1       4.402   3.450  17.249  0.00  0.00    +0.000 C 
ATOM     18  C   UNL     1       6.362   4.196  16.028  0.00  0.00    +0.000 C 
ATOM     19  C   UNL     1       7.270   4.732  17.162  0.00  0.00    +0.000 C 
ENDBRANCH  12  13
ENDBRANCH   2  12
TORSDOF 3
ENDMDL
MODEL 9
REMARK VINA RESULT:      -6.4      1.162      2.136
REMARK  Name = 
REMARK  5 active torsions:
REMARK  status: ('A' for Active; 'I' for Inactive)
REMARK    1  A    between atoms: C_1  and  C_2
REMARK    2  A    between atoms: C_5  and  N_6
REMARK    3  A    between atoms: C_7  and  C_9
REMARK    4  A    between atoms: C_9  and  N_10
REMARK    5  A    between atoms: N_13  and  C_14
REMARK                            x       y       z     vdW  Elec       q    Type
REMARK                         _______ _______ _______ _____ _____    ______ ____
ROOT
ATOM      1  N   UNL     1       2.939   7.002  19.734  0.00  0.00    +0.000 N 
ATOM      2  C   UNL     1       2.767   5.649  19.464  0.00  0.00    +0.000 C 
ATOM      3  O   UNL     1       1.691   5.065  19.343  0.00  0.00    +0.000 OA
ATOM      4  H   UNL     1       3.890   7.328  19.853  0.00  0.00    +0.000 HD
ENDROOT
BRANCH   1   9
ATOM      5  C   UNL     1      -1.034  11.075  20.538  0.00  0.00    +0.000 C 
ATOM      6  C   UNL     1      -0.044   9.971  20.308  0.00  0.00    +0.000 A 
ATOM      7  C   UNL     1       0.258   9.073  21.333  0.00  0.00    +0.000 A 
ATOM      8  C   UNL     1       1.216   8.080  21.149  0.00  0.00    +0.000 A 
ATOM      9  C   UNL     1       1.911   7.955  19.943  0.00  0.00    +0.000 A 
ATOM     10  C   UNL     1       1.581   8.830  18.900  0.00  0.00    +0.000 A 
ATOM     11  C   UNL     1       0.609   9.832  19.084  0.00  0.00    +0.000 A 
ENDBRANCH   1   9
BRANCH   2  12
ATOM     12  C   UNL     1       4.074   4.858  19.302  0.00  0.00    +0.000 C 
BRANCH  12  13
ATOM     13  N   UNL     1       5.028   5.506  18.380  0.00  0.00    +0.000 NA
ATOM     14  C   UNL     1       4.432   5.587  17.025  0.00  0.00    +0.000 C 
ATOM     15  C   UNL     1       5.378   6.235  15.981  0.00  0.00    +0.000 C 
ATOM     16  N   UNL     1       6.747   5.685  15.923  0.00  0.00    +0.000 NA
ATOM     17  C   UNL     1       6.805   4.432  15.175  0.00  0.00    +0.000 C 
ATOM     18  C   UNL     1       7.266   5.521  17.295  0.00  0.00    +0.000 C 
ATOM     19  C   UNL     1       6.312   4.775  18.261  0.00  0.00    +0.000 C 
ENDBRANCH  12  13
ENDBRANCH   2  12
TORSDOF 3
ENDMDL
