MODEL 1
REMARK VINA RESULT:      -8.5      0.000      0.000
REMARK  Name = 
REMARK  3 active torsions:
REMARK  status: ('A' for Active; 'I' for Inactive)
REMARK    1  A    between atoms: C_1  and  C_2
REMARK    2  A    between atoms: C_7  and  C_8
REMARK    3  A    between atoms: C_11  and  C_12
REMARK                            x       y       z     vdW  Elec       q    Type
REMARK                         _______ _______ _______ _____ _____    ______ ____
ROOT
ATOM      1  C   UNL     1       1.484   8.637  19.717  0.00  0.00    +0.000 A 
ATOM      2  N   UNL     1       1.739   9.173  18.511  0.00  0.00    +0.000 NA
ATOM      3  O   UNL     1       2.528   8.208  17.880  0.00  0.00    +0.000 OA
ATOM      4  C   UNL     1       2.655   7.175  18.762  0.00  0.00    +0.000 A 
ATOM      5  N   UNL     1       2.021   7.384  19.889  0.00  0.00    +0.000 NA
ENDROOT
BRANCH   4   6
ATOM      6  C   UNL     1       3.473   5.998  18.349  0.00  0.00    +0.000 C 
ATOM      7  C   UNL     1       4.212   5.402  19.572  0.00  0.00    +0.000 C 
ATOM      8  C   UNL     1       5.067   4.195  19.148  0.00  0.00    +0.000 C 
ATOM      9  C   UNL     1       4.156   3.113  18.546  0.00  0.00    +0.000 C 
ATOM     10  C   UNL     1       3.415   3.673  17.321  0.00  0.00    +0.000 C 
ATOM     11  C   UNL     1       4.442   4.118  16.269  0.00  0.00    +0.000 C 
ATOM     12  C   UNL     1       5.359   5.205  16.855  0.00  0.00    +0.000 C 
ATOM     13  C   UNL     1       6.087   4.650  18.091  0.00  0.00    +0.000 C 
ATOM     14  C   UNL     1       4.506   6.413  17.275  0.00  0.00    +0.000 C 
ATOM     15  C   UNL     1       2.570   4.885  17.749  0.00  0.00    +0.000 C 
ENDBRANCH   4   6
BRANCH   1  22
ATOM     16  C   UNL     1      -0.533  10.761  19.060  0.00  0.00    +0.000 C 
ATOM     17  C   UNL     1      -0.239  10.309  20.467  0.00  0.00    +0.000 A 
ATOM     18  C   UNL     1      -0.933  10.927  21.521  0.00  0.00    +0.000 A 
ATOM     19  C   UNL     1      -0.719  10.543  22.844  0.00  0.00    +0.000 A 
ATOM     20  C   UNL     1       0.191   9.531  23.136  0.00  0.00    +0.000 A 
ATOM     21  C   UNL     1       0.895   8.910  22.103  0.00  0.00    +0.000 A 
ATOM     22  C   UNL     1       0.701   9.293  20.763  0.00  0.00    +0.000 A 
ENDBRANCH   1  22
TORSDOF 2
ENDMDL
MODEL 2
REMARK VINA RESULT:      -8.5      0.028      1.606
REMARK  Name = 
REMARK  3 active torsions:
REMARK  status: ('A' for Active; 'I' for Inactive)
REMARK    1  A    between atoms: C_1  and  C_2
REMARK    2  A    between atoms: C_7  and  C_8
REMARK    3  A    between atoms: C_11  and  C_12
REMARK                            x       y       z     vdW  Elec       q    Type
REMARK                         _______ _______ _______ _____ _____    ______ ____
ROOT
ATOM      1  C   UNL     1       1.493   8.632  19.712  0.00  0.00    +0.000 A 
ATOM      2  N   UNL     1       1.746   9.171  18.506  0.00  0.00    +0.000 NA
ATOM      3  O   UNL     1       2.534   8.209  17.872  0.00  0.00    +0.000 OA
ATOM      4  C   UNL     1       2.662   7.173  18.751  0.00  0.00    +0.000 A 
ATOM      5  N   UNL     1       2.030   7.379  19.880  0.00  0.00    +0.000 NA
ENDROOT
BRANCH   4   6
ATOM      6  C   UNL     1       3.480   5.997  18.334  0.00  0.00    +0.000 C 
ATOM      7  C   UNL     1       4.533   6.420  17.282  0.00  0.00    +0.000 C 
ATOM      8  C   UNL     1       5.370   5.207  16.841  0.00  0.00    +0.000 C 
ATOM      9  C   UNL     1       6.099   4.621  18.062  0.00  0.00    +0.000 C 
ATOM     10  C   UNL     1       5.076   4.180  19.121  0.00  0.00    +0.000 C 
ATOM     11  C   UNL     1       4.151   3.113  18.518  0.00  0.00    +0.000 C 
ATOM     12  C   UNL     1       3.411   3.686  17.298  0.00  0.00    +0.000 C 
ATOM     13  C   UNL     1       4.435   4.142  16.245  0.00  0.00    +0.000 C 
ATOM     14  C   UNL     1       2.571   4.896  17.738  0.00  0.00    +0.000 C 
ATOM     15  C   UNL     1       4.236   5.395  19.551  0.00  0.00    +0.000 C 
ENDBRANCH   4   6
BRANCH   1  22
ATOM     16  C   UNL     1      -0.568  10.716  19.058  0.00  0.00    +0.000 C 
ATOM     17  C   UNL     1      -0.248  10.283  20.466  0.00  0.00    +0.000 A 
ATOM     18  C   UNL     1      -0.940  10.900  21.523  0.00  0.00    +0.000 A 
ATOM     19  C   UNL     1      -0.703  10.533  22.846  0.00  0.00    +0.000 A 
ATOM     20  C   UNL     1       0.227   9.540  23.137  0.00  0.00    +0.000 A 
ATOM     21  C   UNL     1       0.929   8.920  22.102  0.00  0.00    +0.000 A 
ATOM     22  C   UNL     1       0.712   9.285  20.760  0.00  0.00    +0.000 A 
ENDBRANCH   1  22
TORSDOF 2
ENDMDL
MODEL 3
REMARK VINA RESULT:      -8.5      0.053      1.615
REMARK  Name = 
REMARK  3 active torsions:
REMARK  status: ('A' for Active; 'I' for Inactive)
REMARK    1  A    between atoms: C_1  and  C_2
REMARK    2  A    between atoms: C_7  and  C_8
REMARK    3  A    between atoms: C_11  and  C_12
REMARK                            x       y       z     vdW  Elec       q    Type
REMARK                         _______ _______ _______ _____ _____    ______ ____
ROOT
ATOM      1  C   UNL     1       1.474   8.625  19.680  0.00  0.00    +0.000 A 
ATOM      2  N   UNL     1       1.696   9.136  18.456  0.00  0.00    +0.000 NA
ATOM      3  O   UNL     1       2.489   8.170  17.833  0.00  0.00    +0.000 OA
ATOM      4  C   UNL     1       2.651   7.160  18.736  0.00  0.00    +0.000 A 
ATOM      5  N   UNL     1       2.036   7.385  19.870  0.00  0.00    +0.000 NA
ENDROOT
BRANCH   4   6
ATOM      6  C   UNL     1       3.481   5.988  18.335  0.00  0.00    +0.000 C 
ATOM      7  C   UNL     1       2.591   4.888  17.706  0.00  0.00    +0.000 C 
ATOM      8  C   UNL     1       3.443   3.673  17.303  0.00  0.00    +0.000 C 
ATOM      9  C   UNL     1       4.494   4.109  16.269  0.00  0.00    +0.000 C 
ATOM     10  C   UNL     1       5.402   5.194  16.869  0.00  0.00    +0.000 C 
ATOM     11  C   UNL     1       6.110   4.632  18.110  0.00  0.00    +0.000 C 
ATOM     12  C   UNL     1       5.072   4.195  19.156  0.00  0.00    +0.000 C 
ATOM     13  C   UNL     1       4.153   3.121  18.550  0.00  0.00    +0.000 C 
ATOM     14  C   UNL     1       4.223   5.410  19.564  0.00  0.00    +0.000 C 
ATOM     15  C   UNL     1       4.544   6.403  17.280  0.00  0.00    +0.000 C 
ENDBRANCH   4   6
BRANCH   1  22
ATOM     16  C   UNL     1      -0.450  10.837  19.030  0.00  0.00    +0.000 C 
ATOM     17  C   UNL     1      -0.195  10.349  20.433  0.00  0.00    +0.000 A 
ATOM     18  C   UNL     1      -0.882  10.975  21.487  0.00  0.00    +0.000 A 
ATOM     19  C   UNL     1      -0.703  10.560  22.806  0.00  0.00    +0.000 A 
ATOM     20  C   UNL     1       0.163   9.509  23.094  0.00  0.00    +0.000 A 
ATOM     21  C   UNL     1       0.858   8.880  22.061  0.00  0.00    +0.000 A 
ATOM     22  C   UNL     1       0.700   9.292  20.725  0.00  0.00    +0.000 A 
ENDBRANCH   1  22
TORSDOF 2
ENDMDL
MODEL 4
REMARK VINA RESULT:      -8.4      1.191      1.824
REMARK  Name = 
REMARK  3 active torsions:
REMARK  status: ('A' for Active; 'I' for Inactive)
REMARK    1  A    between atoms: C_1  and  C_2
REMARK    2  A    between atoms: C_7  and  C_8
REMARK    3  A    between atoms: C_11  and  C_12
REMARK                            x       y       z     vdW  Elec       q    Type
REMARK                         _______ _______ _______ _____ _____    ______ ____
ROOT
ATOM      1  C   UNL     1       1.328   8.232  20.244  0.00  0.00    +0.000 A 
ATOM      2  N   UNL     1       2.067   8.626  19.191  0.00  0.00    +0.000 NA
ATOM      3  O   UNL     1       2.627   7.439  18.717  0.00  0.00    +0.000 OA
ATOM      4  C   UNL     1       2.155   6.441  19.519  0.00  0.00    +0.000 A 
ATOM      5  N   UNL     1       1.346   6.874  20.454  0.00  0.00    +0.000 NA
ENDROOT
BRANCH   4   6
ATOM      6  C   UNL     1       2.612   5.047  19.246  0.00  0.00    +0.000 C 
ATOM      7  C   UNL     1       4.158   4.979  19.243  0.00  0.00    +0.000 C 
ATOM      8  C   UNL     1       4.633   3.545  18.950  0.00  0.00    +0.000 C 
ATOM      9  C   UNL     1       4.099   2.600  20.038  0.00  0.00    +0.000 C 
ATOM     10  C   UNL     1       2.562   2.637  20.059  0.00  0.00    +0.000 C 
ATOM     11  C   UNL     1       2.027   2.192  18.689  0.00  0.00    +0.000 C 
ATOM     12  C   UNL     1       2.550   3.131  17.589  0.00  0.00    +0.000 C 
ATOM     13  C   UNL     1       4.087   3.106  17.581  0.00  0.00    +0.000 C 
ATOM     14  C   UNL     1       2.073   4.563  17.879  0.00  0.00    +0.000 C 
ATOM     15  C   UNL     1       2.094   4.075  20.342  0.00  0.00    +0.000 C 
ENDBRANCH   4   6
BRANCH   1  22
ATOM     16  C   UNL     1      -0.374  10.411  19.073  0.00  0.00    +0.000 C 
ATOM     17  C   UNL     1      -0.234  10.179  20.555  0.00  0.00    +0.000 A 
ATOM     18  C   UNL     1      -0.923  11.037  21.429  0.00  0.00    +0.000 A 
ATOM     19  C   UNL     1      -0.848  10.866  22.811  0.00  0.00    +0.000 A 
ATOM     20  C   UNL     1      -0.086   9.830  23.343  0.00  0.00    +0.000 A 
ATOM     21  C   UNL     1       0.610   8.972  22.491  0.00  0.00    +0.000 A 
ATOM     22  C   UNL     1       0.557   9.136  21.095  0.00  0.00    +0.000 A 
ENDBRANCH   1  22
TORSDOF 2
ENDMDL
MODEL 5
REMARK VINA RESULT:      -8.4      1.170      1.616
REMARK  Name = 
REMARK  3 active torsions:
REMARK  status: ('A' for Active; 'I' for Inactive)
REMARK    1  A    between atoms: C_1  and  C_2
REMARK    2  A    between atoms: C_7  and  C_8
REMARK    3  A    between atoms: C_11  and  C_12
REMARK                            x       y       z     vdW  Elec       q    Type
REMARK                         _______ _______ _______ _____ _____    ______ ____
ROOT
ATOM      1  C   UNL     1       1.350   8.232  20.239  0.00  0.00    +0.000 A 
ATOM      2  N   UNL     1       2.095   8.635  19.193  0.00  0.00    +0.000 NA
ATOM      3  O   UNL     1       2.657   7.451  18.713  0.00  0.00    +0.000 OA
ATOM      4  C   UNL     1       2.181   6.446  19.504  0.00  0.00    +0.000 A 
ATOM      5  N   UNL     1       1.368   6.873  20.438  0.00  0.00    +0.000 NA
ENDROOT
BRANCH   4   6
ATOM      6  C   UNL     1       2.639   5.055  19.223  0.00  0.00    +0.000 C 
ATOM      7  C   UNL     1       2.148   4.092  20.331  0.00  0.00    +0.000 C 
ATOM      8  C   UNL     1       2.628   2.658  20.049  0.00  0.00    +0.000 C 
ATOM      9  C   UNL     1       2.063   2.188  18.699  0.00  0.00    +0.000 C 
ATOM     10  C   UNL     1       2.544   3.119  17.575  0.00  0.00    +0.000 C 
ATOM     11  C   UNL     1       4.079   3.096  17.521  0.00  0.00    +0.000 C 
ATOM     12  C   UNL     1       4.660   3.569  18.864  0.00  0.00    +0.000 C 
ATOM     13  C   UNL     1       4.165   2.647  19.991  0.00  0.00    +0.000 C 
ATOM     14  C   UNL     1       4.183   5.004  19.144  0.00  0.00    +0.000 C 
ATOM     15  C   UNL     1       2.069   4.553  17.867  0.00  0.00    +0.000 C 
ENDBRANCH   4   6
BRANCH   1  22
ATOM     16  C   UNL     1      -0.350  10.417  19.076  0.00  0.00    +0.000 C 
ATOM     17  C   UNL     1      -0.215  10.175  20.557  0.00  0.00    +0.000 A 
ATOM     18  C   UNL     1      -0.909  11.027  21.434  0.00  0.00    +0.000 A 
ATOM     19  C   UNL     1      -0.839  10.846  22.814  0.00  0.00    +0.000 A 
ATOM     20  C   UNL     1      -0.077   9.808  23.343  0.00  0.00    +0.000 A 
ATOM     21  C   UNL     1       0.623   8.956  22.488  0.00  0.00    +0.000 A 
ATOM     22  C   UNL     1       0.574   9.129  21.093  0.00  0.00    +0.000 A 
ENDBRANCH   1  22
TORSDOF 2
ENDMDL
MODEL 6
REMARK VINA RESULT:      -8.4      1.170      2.326
REMARK  Name = 
REMARK  3 active torsions:
REMARK  status: ('A' for Active; 'I' for Inactive)
REMARK    1  A    between atoms: C_1  and  C_2
REMARK    2  A    between atoms: C_7  and  C_8
REMARK    3  A    between atoms: C_11  and  C_12
REMARK                            x       y       z     vdW  Elec       q    Type
REMARK                         _______ _______ _______ _____ _____    ______ ____
ROOT
ATOM      1  C   UNL     1       1.327   8.252  20.241  0.00  0.00    +0.000 A 
ATOM      2  N   UNL     1       2.059   8.652  19.186  0.00  0.00    +0.000 NA
ATOM      3  O   UNL     1       2.622   7.468  18.706  0.00  0.00    +0.000 OA
ATOM      4  C   UNL     1       2.159   6.466  19.507  0.00  0.00    +0.000 A 
ATOM      5  N   UNL     1       1.352   6.893  20.447  0.00  0.00    +0.000 NA
ENDROOT
BRANCH   4   6
ATOM      6  C   UNL     1       2.621   5.075  19.228  0.00  0.00    +0.000 C 
ATOM      7  C   UNL     1       2.074   4.591  17.863  0.00  0.00    +0.000 C 
ATOM      8  C   UNL     1       2.538   3.152  17.578  0.00  0.00    +0.000 C 
ATOM      9  C   UNL     1       4.075   3.113  17.537  0.00  0.00    +0.000 C 
ATOM     10  C   UNL     1       4.648   3.579  18.885  0.00  0.00    +0.000 C 
ATOM     11  C   UNL     1       4.143   2.648  19.998  0.00  0.00    +0.000 C 
ATOM     12  C   UNL     1       2.607   2.680  20.054  0.00  0.00    +0.000 C 
ATOM     13  C   UNL     1       2.034   2.230  18.700  0.00  0.00    +0.000 C 
ATOM     14  C   UNL     1       2.142   4.117  20.344  0.00  0.00    +0.000 C 
ATOM     15  C   UNL     1       4.172   5.014  19.169  0.00  0.00    +0.000 C 
ENDBRANCH   4   6
BRANCH   1  22
ATOM     16  C   UNL     1      -0.334  10.471  19.087  0.00  0.00    +0.000 C 
ATOM     17  C   UNL     1      -0.216  10.212  20.567  0.00  0.00    +0.000 A 
ATOM     18  C   UNL     1      -0.905  11.063  21.447  0.00  0.00    +0.000 A 
ATOM     19  C   UNL     1      -0.851  10.866  22.826  0.00  0.00    +0.000 A 
ATOM     20  C   UNL     1      -0.108   9.812  23.349  0.00  0.00    +0.000 A 
ATOM     21  C   UNL     1       0.589   8.960  22.492  0.00  0.00    +0.000 A 
ATOM     22  C   UNL     1       0.555   9.150  21.098  0.00  0.00    +0.000 A 
ENDBRANCH   1  22
TORSDOF 2
ENDMDL
MODEL 7
REMARK VINA RESULT:      -8.4      1.265      1.444
REMARK  Name = 
REMARK  3 active torsions:
REMARK  status: ('A' for Active; 'I' for Inactive)
REMARK    1  A    between atoms: C_1  and  C_2
REMARK    2  A    between atoms: C_7  and  C_8
REMARK    3  A    between atoms: C_11  and  C_12
REMARK                            x       y       z     vdW  Elec       q    Type
REMARK                         _______ _______ _______ _____ _____    ______ ____
ROOT
ATOM      1  C   UNL     1       1.358   9.338  18.693  0.00  0.00    +0.000 A 
ATOM      2  N   UNL     1       2.022   9.628  17.560  0.00  0.00    +0.000 NA
ATOM      3  O   UNL     1       2.745   8.465  17.293  0.00  0.00    +0.000 OA
ATOM      4  C   UNL     1       2.431   7.578  18.281  0.00  0.00    +0.000 A 
ATOM      5  N   UNL     1       1.576   8.060  19.148  0.00  0.00    +0.000 NA
ENDROOT
BRANCH   4   6
ATOM      6  C   UNL     1       3.085   6.237  18.253  0.00  0.00    +0.000 C 
ATOM      7  C   UNL     1       3.545   5.834  19.675  0.00  0.00    +0.000 C 
ATOM      8  C   UNL     1       4.230   4.456  19.647  0.00  0.00    +0.000 C 
ATOM      9  C   UNL     1       3.234   3.403  19.133  0.00  0.00    +0.000 C 
ATOM     10  C   UNL     1       2.766   3.771  17.716  0.00  0.00    +0.000 C 
ATOM     11  C   UNL     1       3.982   3.824  16.780  0.00  0.00    +0.000 C 
ATOM     12  C   UNL     1       4.986   4.876  17.278  0.00  0.00    +0.000 C 
ATOM     13  C   UNL     1       5.441   4.517  18.702  0.00  0.00    +0.000 C 
ATOM     14  C   UNL     1       4.304   6.254  17.302  0.00  0.00    +0.000 C 
ATOM     15  C   UNL     1       2.091   5.153  17.748  0.00  0.00    +0.000 C 
ENDBRANCH   4   6
BRANCH   1  22
ATOM     16  C   UNL     1      -1.359  10.016  17.610  0.00  0.00    +0.000 C 
ATOM     17  C   UNL     1      -0.805  10.609  18.879  0.00  0.00    +0.000 A 
ATOM     18  C   UNL     1      -1.595  11.537  19.579  0.00  0.00    +0.000 A 
ATOM     19  C   UNL     1      -1.148  12.108  20.768  0.00  0.00    +0.000 A 
ATOM     20  C   UNL     1       0.098  11.760  21.282  0.00  0.00    +0.000 A 
ATOM     21  C   UNL     1       0.900  10.845  20.599  0.00  0.00    +0.000 A 
ATOM     22  C   UNL     1       0.470  10.266  19.390  0.00  0.00    +0.000 A 
ENDBRANCH   1  22
TORSDOF 2
ENDMDL
MODEL 8
REMARK VINA RESULT:      -8.4      1.255      2.127
REMARK  Name = 
REMARK  3 active torsions:
REMARK  status: ('A' for Active; 'I' for Inactive)
REMARK    1  A    between atoms: C_1  and  C_2
REMARK    2  A    between atoms: C_7  and  C_8
REMARK    3  A    between atoms: C_11  and  C_12
REMARK                            x       y       z     vdW  Elec       q    Type
REMARK                         _______ _______ _______ _____ _____    ______ ____
ROOT
ATOM      1  C   UNL     1       1.349   9.367  18.723  0.00  0.00    +0.000 A 
ATOM      2  N   UNL     1       2.001   9.667  17.585  0.00  0.00    +0.000 NA
ATOM      3  O   UNL     1       2.731   8.510  17.308  0.00  0.00    +0.000 OA
ATOM      4  C   UNL     1       2.433   7.617  18.296  0.00  0.00    +0.000 A 
ATOM      5  N   UNL     1       1.582   8.089  19.172  0.00  0.00    +0.000 NA
ENDROOT
BRANCH   4   6
ATOM      6  C   UNL     1       3.096   6.281  18.258  0.00  0.00    +0.000 C 
ATOM      7  C   UNL     1       4.309   6.311  17.296  0.00  0.00    +0.000 C 
ATOM      8  C   UNL     1       4.988   4.931  17.245  0.00  0.00    +0.000 C 
ATOM      9  C   UNL     1       5.482   4.555  18.652  0.00  0.00    +0.000 C 
ATOM     10  C   UNL     1       4.296   4.507  19.628  0.00  0.00    +0.000 C 
ATOM     11  C   UNL     1       3.285   3.457  19.145  0.00  0.00    +0.000 C 
ATOM     12  C   UNL     1       2.778   3.822  17.740  0.00  0.00    +0.000 C 
ATOM     13  C   UNL     1       3.967   3.887  16.767  0.00  0.00    +0.000 C 
ATOM     14  C   UNL     1       2.095   5.198  17.790  0.00  0.00    +0.000 C 
ATOM     15  C   UNL     1       3.615   5.885  19.668  0.00  0.00    +0.000 C 
ENDBRANCH   4   6
BRANCH   1  22
ATOM     16  C   UNL     1      -1.381  10.032  17.664  0.00  0.00    +0.000 C 
ATOM     17  C   UNL     1      -0.820  10.622  18.932  0.00  0.00    +0.000 A 
ATOM     18  C   UNL     1      -1.612  11.541  19.642  0.00  0.00    +0.000 A 
ATOM     19  C   UNL     1      -1.159  12.111  20.831  0.00  0.00    +0.000 A 
ATOM     20  C   UNL     1       0.093  11.768  21.333  0.00  0.00    +0.000 A 
ATOM     21  C   UNL     1       0.896  10.862  20.639  0.00  0.00    +0.000 A 
ATOM     22  C   UNL     1       0.461  10.286  19.432  0.00  0.00    +0.000 A 
ENDBRANCH   1  22
TORSDOF 2
ENDMDL
MODEL 9
REMARK VINA RESULT:      -8.3      1.270      2.151
REMARK  Name = 
REMARK  3 active torsions:
REMARK  status: ('A' for Active; 'I' for Inactive)
REMARK    1  A    between atoms: C_1  and  C_2
REMARK    2  A    between atoms: C_7  and  C_8
REMARK    3  A    between atoms: C_11  and  C_12
REMARK                            x       y       z     vdW  Elec       q    Type
REMARK                         _______ _______ _______ _____ _____    ______ ____
ROOT
ATOM      1  C   UNL     1       1.347   9.367  18.717  0.00  0.00    +0.000 A 
ATOM      2  N   UNL     1       2.010   9.661  17.585  0.00  0.00    +0.000 NA
ATOM      3  O   UNL     1       2.730   8.497  17.311  0.00  0.00    +0.000 OA
ATOM      4  C   UNL     1       2.415   7.606  18.296  0.00  0.00    +0.000 A 
ATOM      5  N   UNL     1       1.563   8.087  19.167  0.00  0.00    +0.000 NA
ENDROOT
BRANCH   4   6
ATOM      6  C   UNL     1       3.065   6.264  18.261  0.00  0.00    +0.000 C 
ATOM      7  C   UNL     1       2.058   5.193  17.775  0.00  0.00    +0.000 C 
ATOM      8  C   UNL     1       2.722   3.805  17.749  0.00  0.00    +0.000 C 
ATOM      9  C   UNL     1       3.919   3.831  16.784  0.00  0.00    +0.000 C 
ATOM     10  C   UNL     1       4.943   4.880  17.248  0.00  0.00    +0.000 C 
ATOM     11  C   UNL     1       5.432   4.520  18.658  0.00  0.00    +0.000 C 
ATOM     12  C   UNL     1       4.246   4.494  19.636  0.00  0.00    +0.000 C 
ATOM     13  C   UNL     1       3.214   3.457  19.163  0.00  0.00    +0.000 C 
ATOM     14  C   UNL     1       3.585   5.882  19.666  0.00  0.00    +0.000 C 
ATOM     15  C   UNL     1       4.271   6.264  17.281  0.00  0.00    +0.000 C 
ENDBRANCH   4   6
BRANCH   1  22
ATOM     16  C   UNL     1      -1.373  10.051  17.646  0.00  0.00    +0.000 C 
ATOM     17  C   UNL     1      -0.813  10.640  18.915  0.00  0.00    +0.000 A 
ATOM     18  C   UNL     1      -1.601  11.566  19.620  0.00  0.00    +0.000 A 
ATOM     19  C   UNL     1      -1.148  12.135  20.809  0.00  0.00    +0.000 A 
ATOM     20  C   UNL     1       0.099  11.784  21.317  0.00  0.00    +0.000 A 
ATOM     21  C   UNL     1       0.898  10.870  20.629  0.00  0.00    +0.000 A 
ATOM     22  C   UNL     1       0.463  10.295  19.420  0.00  0.00    +0.000 A 
ENDBRANCH   1  22
TORSDOF 2
ENDMDL
