MODEL 1
REMARK VINA RESULT:      -8.4      0.000      0.000
REMARK  Name = 
REMARK  4 active torsions:
REMARK  status: ('A' for Active; 'I' for Inactive)
REMARK    1  A    between atoms: C_1  and  O_2
REMARK    2  A    between atoms: O_2  and  C_3
REMARK    3  A    between atoms: C_3  and  C_5
REMARK    4  A    between atoms: C_10  and  C_11
REMARK                            x       y       z     vdW  Elec       q    Type
REMARK                         _______ _______ _______ _____ _____    ______ ____
ROOT
ATOM      1  C   UNL     1       6.259   5.504  17.166  0.00  0.00    +0.000 A 
ATOM      2  C   UNL     1       5.046   5.000  17.718  0.00  0.00    +0.000 A 
ATOM      3  C   UNL     1       4.431   4.194  16.770  0.00  0.00    +0.000 A 
ATOM      4  N   UNL     1       5.202   4.219  15.619  0.00  0.00    +0.000 N 
ATOM      5  C   UNL     1       5.007   3.584  14.382  0.00  0.00    +0.000 A 
ATOM      6  C   UNL     1       5.899   3.753  13.382  0.00  0.00    +0.000 A 
ATOM      7  C   UNL     1       5.795   3.132  12.024  0.00  0.00    +0.000 C 
ATOM      8  C   UNL     1       7.053   4.608  13.623  0.00  0.00    +0.000 A 
ATOM      9  C   UNL     1       7.247   5.218  14.805  0.00  0.00    +0.000 A 
ATOM     10  C   UNL     1       6.309   5.037  15.863  0.00  0.00    +0.000 A 
ATOM     11  C   UNL     1       3.181   3.497  17.006  0.00  0.00    +0.000 C 
ATOM     12  O   UNL     1       2.611   2.791  16.185  0.00  0.00    +0.000 OA
ATOM     13  C   UNL     1       2.586   3.679  18.372  0.00  0.00    +0.000 A 
ATOM     14  C   UNL     1       1.388   3.032  18.709  0.00  0.00    +0.000 A 
ATOM     15  C   UNL     1       0.828   3.197  19.982  0.00  0.00    +0.000 A 
ATOM     16  C   UNL     1       1.458   4.000  20.931  0.00  0.00    +0.000 A 
ATOM     17  C   UNL     1       2.644   4.652  20.604  0.00  0.00    +0.000 A 
ATOM     18  C   UNL     1       3.205   4.500  19.326  0.00  0.00    +0.000 A 
ATOM     19  C   UNL     1       4.443   5.255  19.012  0.00  0.00    +0.000 C 
ATOM     20  O   UNL     1       4.869   6.080  19.811  0.00  0.00    +0.000 OA
ENDROOT
BRANCH   1  21
ATOM     21  C   UNL     1       7.267   6.355  17.790  0.00  0.00    +0.000 C 
ATOM     22  O   UNL     1       7.933   6.015  18.761  0.00  0.00    +0.000 OA
BRANCH  21  24
ATOM     23  C   UNL     1       8.108   8.534  17.933  0.00  0.00    +0.000 C 
ATOM     24  O   UNL     1       7.330   7.584  17.212  0.00  0.00    +0.000 OA
ENDBRANCH  21  24
ENDBRANCH   1  21
TORSDOF 2
ENDMDL
MODEL 2
REMARK VINA RESULT:      -8.1      0.655      1.055
REMARK  Name = 
REMARK  4 active torsions:
REMARK  status: ('A' for Active; 'I' for Inactive)
REMARK    1  A    between atoms: C_1  and  O_2
REMARK    2  A    between atoms: O_2  and  C_3
REMARK    3  A    between atoms: C_3  and  C_5
REMARK    4  A    between atoms: C_10  and  C_11
REMARK                            x       y       z     vdW  Elec       q    Type
REMARK                         _______ _______ _______ _____ _____    ______ ____
ROOT
ATOM      1  C   UNL     1       6.317   5.199  17.326  0.00  0.00    +0.000 A 
ATOM      2  C   UNL     1       5.061   4.760  17.836  0.00  0.00    +0.000 A 
ATOM      3  C   UNL     1       4.388   4.084  16.827  0.00  0.00    +0.000 A 
ATOM      4  N   UNL     1       5.168   4.130  15.683  0.00  0.00    +0.000 N 
ATOM      5  C   UNL     1       4.930   3.611  14.401  0.00  0.00    +0.000 A 
ATOM      6  C   UNL     1       5.842   3.778  13.419  0.00  0.00    +0.000 A 
ATOM      7  C   UNL     1       5.697   3.274  12.017  0.00  0.00    +0.000 C 
ATOM      8  C   UNL     1       7.063   4.511  13.727  0.00  0.00    +0.000 A 
ATOM      9  C   UNL     1       7.297   5.010  14.952  0.00  0.00    +0.000 A 
ATOM     10  C   UNL     1       6.338   4.830  15.992  0.00  0.00    +0.000 A 
ATOM     11  C   UNL     1       3.081   3.481  17.006  0.00  0.00    +0.000 C 
ATOM     12  O   UNL     1       2.459   2.890  16.133  0.00  0.00    +0.000 OA
ATOM     13  C   UNL     1       2.492   3.608  18.381  0.00  0.00    +0.000 A 
ATOM     14  C   UNL     1       1.240   3.041  18.665  0.00  0.00    +0.000 A 
ATOM     15  C   UNL     1       0.685   3.156  19.946  0.00  0.00    +0.000 A 
ATOM     16  C   UNL     1       1.373   3.828  20.955  0.00  0.00    +0.000 A 
ATOM     17  C   UNL     1       2.613   4.400  20.682  0.00  0.00    +0.000 A 
ATOM     18  C   UNL     1       3.170   4.298  19.397  0.00  0.00    +0.000 A 
ATOM     19  C   UNL     1       4.470   4.966  19.145  0.00  0.00    +0.000 C 
ATOM     20  O   UNL     1       4.958   5.689  20.005  0.00  0.00    +0.000 OA
ENDROOT
BRANCH   1  21
ATOM     21  C   UNL     1       7.388   5.910  18.016  0.00  0.00    +0.000 C 
ATOM     22  O   UNL     1       7.618   7.104  17.861  0.00  0.00    +0.000 OA
BRANCH  21  24
ATOM     23  C   UNL     1       8.302   5.525  20.136  0.00  0.00    +0.000 C 
ATOM     24  O   UNL     1       8.137   5.082  18.792  0.00  0.00    +0.000 OA
ENDBRANCH  21  24
ENDBRANCH   1  21
TORSDOF 2
ENDMDL
MODEL 3
REMARK VINA RESULT:      -7.5      2.746      6.728
REMARK  Name = 
REMARK  4 active torsions:
REMARK  status: ('A' for Active; 'I' for Inactive)
REMARK    1  A    between atoms: C_1  and  O_2
REMARK    2  A    between atoms: O_2  and  C_3
REMARK    3  A    between atoms: C_3  and  C_5
REMARK    4  A    between atoms: C_10  and  C_11
REMARK                            x       y       z     vdW  Elec       q    Type
REMARK                         _______ _______ _______ _____ _____    ______ ____
ROOT
ATOM      1  C   UNL     1       2.535   4.562  19.802  0.00  0.00    +0.000 A 
ATOM      2  C   UNL     1       3.330   4.730  18.632  0.00  0.00    +0.000 A 
ATOM      3  C   UNL     1       3.332   6.076  18.291  0.00  0.00    +0.000 A 
ATOM      4  N   UNL     1       2.519   6.749  19.188  0.00  0.00    +0.000 N 
ATOM      5  C   UNL     1       2.184   8.110  19.266  0.00  0.00    +0.000 A 
ATOM      6  C   UNL     1       1.357   8.553  20.236  0.00  0.00    +0.000 A 
ATOM      7  C   UNL     1       0.927   9.976  20.416  0.00  0.00    +0.000 C 
ATOM      8  C   UNL     1       0.827   7.586  21.188  0.00  0.00    +0.000 A 
ATOM      9  C   UNL     1       1.144   6.282  21.120  0.00  0.00    +0.000 A 
ATOM     10  C   UNL     1       2.021   5.812  20.099  0.00  0.00    +0.000 A 
ATOM     11  C   UNL     1       4.064   6.610  17.158  0.00  0.00    +0.000 C 
ATOM     12  O   UNL     1       4.074   7.788  16.827  0.00  0.00    +0.000 OA
ATOM     13  C   UNL     1       4.858   5.609  16.370  0.00  0.00    +0.000 A 
ATOM     14  C   UNL     1       5.617   6.026  15.267  0.00  0.00    +0.000 A 
ATOM     15  C   UNL     1       6.360   5.097  14.527  0.00  0.00    +0.000 A 
ATOM     16  C   UNL     1       6.360   3.750  14.883  0.00  0.00    +0.000 A 
ATOM     17  C   UNL     1       5.604   3.324  15.973  0.00  0.00    +0.000 A 
ATOM     18  C   UNL     1       4.848   4.249  16.712  0.00  0.00    +0.000 A 
ATOM     19  C   UNL     1       4.022   3.737  17.832  0.00  0.00    +0.000 C 
ATOM     20  O   UNL     1       3.914   2.530  18.006  0.00  0.00    +0.000 OA
ENDROOT
BRANCH   1  21
ATOM     21  C   UNL     1       2.268   3.344  20.562  0.00  0.00    +0.000 C 
ATOM     22  O   UNL     1       3.121   2.751  21.213  0.00  0.00    +0.000 OA
BRANCH  21  24
ATOM     23  C   UNL     1       0.666   2.489  19.086  0.00  0.00    +0.000 C 
ATOM     24  O   UNL     1       0.987   2.914  20.406  0.00  0.00    +0.000 OA
ENDBRANCH  21  24
ENDBRANCH   1  21
TORSDOF 2
ENDMDL
MODEL 4
REMARK VINA RESULT:      -7.5      2.718      4.455
REMARK  Name = 
REMARK  4 active torsions:
REMARK  status: ('A' for Active; 'I' for Inactive)
REMARK    1  A    between atoms: C_1  and  O_2
REMARK    2  A    between atoms: O_2  and  C_3
REMARK    3  A    between atoms: C_3  and  C_5
REMARK    4  A    between atoms: C_10  and  C_11
REMARK                            x       y       z     vdW  Elec       q    Type
REMARK                         _______ _______ _______ _____ _____    ______ ____
ROOT
ATOM      1  C   UNL     1       3.773   3.889  18.710  0.00  0.00    +0.000 A 
ATOM      2  C   UNL     1       3.196   5.163  18.982  0.00  0.00    +0.000 A 
ATOM      3  C   UNL     1       3.554   6.035  17.963  0.00  0.00    +0.000 A 
ATOM      4  N   UNL     1       4.382   5.355  17.085  0.00  0.00    +0.000 N 
ATOM      5  C   UNL     1       5.015   5.792  15.911  0.00  0.00    +0.000 A 
ATOM      6  C   UNL     1       5.792   4.946  15.201  0.00  0.00    +0.000 A 
ATOM      7  C   UNL     1       6.519   5.299  13.940  0.00  0.00    +0.000 C 
ATOM      8  C   UNL     1       5.954   3.583  15.688  0.00  0.00    +0.000 A 
ATOM      9  C   UNL     1       5.350   3.157  16.810  0.00  0.00    +0.000 A 
ATOM     10  C   UNL     1       4.525   4.047  17.559  0.00  0.00    +0.000 A 
ATOM     11  C   UNL     1       3.120   7.418  17.908  0.00  0.00    +0.000 C 
ATOM     12  O   UNL     1       3.430   8.212  17.030  0.00  0.00    +0.000 OA
ATOM     13  C   UNL     1       2.220   7.859  19.026  0.00  0.00    +0.000 A 
ATOM     14  C   UNL     1       1.727   9.172  19.055  0.00  0.00    +0.000 A 
ATOM     15  C   UNL     1       0.887   9.590  20.095  0.00  0.00    +0.000 A 
ATOM     16  C   UNL     1       0.524   8.704  21.107  0.00  0.00    +0.000 A 
ATOM     17  C   UNL     1       1.013   7.400  21.091  0.00  0.00    +0.000 A 
ATOM     18  C   UNL     1       1.865   6.978  20.058  0.00  0.00    +0.000 A 
ATOM     19  C   UNL     1       2.398   5.595  20.114  0.00  0.00    +0.000 C 
ATOM     20  O   UNL     1       2.195   4.905  21.105  0.00  0.00    +0.000 OA
ENDROOT
BRANCH   1  21
ATOM     21  C   UNL     1       3.647   2.645  19.464  0.00  0.00    +0.000 C 
ATOM     22  O   UNL     1       4.293   2.398  20.476  0.00  0.00    +0.000 OA
BRANCH  21  24
ATOM     23  C   UNL     1       1.414   2.156  18.962  0.00  0.00    +0.000 C 
ATOM     24  O   UNL     1       2.784   1.774  18.876  0.00  0.00    +0.000 OA
ENDBRANCH  21  24
ENDBRANCH   1  21
TORSDOF 2
ENDMDL
MODEL 5
REMARK VINA RESULT:      -7.2      4.094      5.920
REMARK  Name = 
REMARK  4 active torsions:
REMARK  status: ('A' for Active; 'I' for Inactive)
REMARK    1  A    between atoms: C_1  and  O_2
REMARK    2  A    between atoms: O_2  and  C_3
REMARK    3  A    between atoms: C_3  and  C_5
REMARK    4  A    between atoms: C_10  and  C_11
REMARK                            x       y       z     vdW  Elec       q    Type
REMARK                         _______ _______ _______ _____ _____    ______ ____
ROOT
ATOM      1  C   UNL     1       2.327   5.669  19.851  0.00  0.00    +0.000 A 
ATOM      2  C   UNL     1       1.916   7.030  19.757  0.00  0.00    +0.000 A 
ATOM      3  C   UNL     1       2.503   7.591  18.630  0.00  0.00    +0.000 A 
ATOM      4  N   UNL     1       3.310   6.631  18.042  0.00  0.00    +0.000 N 
ATOM      5  C   UNL     1       4.121   6.703  16.899  0.00  0.00    +0.000 A 
ATOM      6  C   UNL     1       4.837   5.629  16.503  0.00  0.00    +0.000 A 
ATOM      7  C   UNL     1       5.736   5.588  15.306  0.00  0.00    +0.000 C 
ATOM      8  C   UNL     1       4.746   4.408  17.294  0.00  0.00    +0.000 A 
ATOM      9  C   UNL     1       3.972   4.332  18.389  0.00  0.00    +0.000 A 
ATOM     10  C   UNL     1       3.211   5.464  18.806  0.00  0.00    +0.000 A 
ATOM     11  C   UNL     1       2.282   8.963  18.216  0.00  0.00    +0.000 C 
ATOM     12  O   UNL     1       2.795   9.487  17.236  0.00  0.00    +0.000 OA
ATOM     13  C   UNL     1       1.344   9.757  19.078  0.00  0.00    +0.000 A 
ATOM     14  C   UNL     1       1.047  11.089  18.752  0.00  0.00    +0.000 A 
ATOM     15  C   UNL     1       0.172  11.835  19.551  0.00  0.00    +0.000 A 
ATOM     16  C   UNL     1      -0.421  11.261  20.675  0.00  0.00    +0.000 A 
ATOM     17  C   UNL     1      -0.128   9.941  21.010  0.00  0.00    +0.000 A 
ATOM     18  C   UNL     1       0.758   9.191  20.219  0.00  0.00    +0.000 A 
ATOM     19  C   UNL     1       1.074   7.807  20.648  0.00  0.00    +0.000 C 
ATOM     20  O   UNL     1       0.670   7.398  21.729  0.00  0.00    +0.000 OA
ENDROOT
BRANCH   1  21
ATOM     21  C   UNL     1       1.942   4.661  20.834  0.00  0.00    +0.000 C 
ATOM     22  O   UNL     1       2.642   4.345  21.789  0.00  0.00    +0.000 OA
BRANCH  21  24
ATOM     23  C   UNL     1       0.875   2.873  19.766  0.00  0.00    +0.000 C 
ATOM     24  O   UNL     1       0.756   4.072  20.527  0.00  0.00    +0.000 OA
ENDBRANCH  21  24
ENDBRANCH   1  21
TORSDOF 2
ENDMDL
MODEL 6
REMARK VINA RESULT:      -7.1      2.574      6.643
REMARK  Name = 
REMARK  4 active torsions:
REMARK  status: ('A' for Active; 'I' for Inactive)
REMARK    1  A    between atoms: C_1  and  O_2
REMARK    2  A    between atoms: O_2  and  C_3
REMARK    3  A    between atoms: C_3  and  C_5
REMARK    4  A    between atoms: C_10  and  C_11
REMARK                            x       y       z     vdW  Elec       q    Type
REMARK                         _______ _______ _______ _____ _____    ______ ____
ROOT
ATOM      1  C   UNL     1       2.629   4.131  19.476  0.00  0.00    +0.000 A 
ATOM      2  C   UNL     1       3.426   4.424  18.332  0.00  0.00    +0.000 A 
ATOM      3  C   UNL     1       3.451   5.800  18.153  0.00  0.00    +0.000 A 
ATOM      4  N   UNL     1       2.650   6.376  19.125  0.00  0.00    +0.000 N 
ATOM      5  C   UNL     1       2.337   7.723  19.364  0.00  0.00    +0.000 A 
ATOM      6  C   UNL     1       1.518   8.062  20.382  0.00  0.00    +0.000 A 
ATOM      7  C   UNL     1       1.112   9.460  20.730  0.00  0.00    +0.000 C 
ATOM      8  C   UNL     1       0.972   6.997  21.213  0.00  0.00    +0.000 A 
ATOM      9  C   UNL     1       1.267   5.706  20.991  0.00  0.00    +0.000 A 
ATOM     10  C   UNL     1       2.135   5.346  19.919  0.00  0.00    +0.000 A 
ATOM     11  C   UNL     1       4.191   6.453  17.090  0.00  0.00    +0.000 C 
ATOM     12  O   UNL     1       4.221   7.662  16.900  0.00  0.00    +0.000 OA
ATOM     13  C   UNL     1       4.968   5.539  16.187  0.00  0.00    +0.000 A 
ATOM     14  C   UNL     1       5.734   6.071  15.139  0.00  0.00    +0.000 A 
ATOM     15  C   UNL     1       6.462   5.225  14.293  0.00  0.00    +0.000 A 
ATOM     16  C   UNL     1       6.439   3.845  14.487  0.00  0.00    +0.000 A 
ATOM     17  C   UNL     1       5.676   3.306  15.520  0.00  0.00    +0.000 A 
ATOM     18  C   UNL     1       4.936   4.148  16.365  0.00  0.00    +0.000 A 
ATOM     19  C   UNL     1       4.101   3.521  17.419  0.00  0.00    +0.000 C 
ATOM     20  O   UNL     1       3.974   2.304  17.448  0.00  0.00    +0.000 OA
ENDROOT
BRANCH   1  21
ATOM     21  C   UNL     1       2.341   2.837  20.086  0.00  0.00    +0.000 C 
ATOM     22  O   UNL     1       1.434   2.100  19.716  0.00  0.00    +0.000 OA
BRANCH  21  24
ATOM     23  C   UNL     1       4.397   1.983  20.808  0.00  0.00    +0.000 C 
ATOM     24  O   UNL     1       3.150   2.580  21.149  0.00  0.00    +0.000 OA
ENDBRANCH  21  24
ENDBRANCH   1  21
TORSDOF 2
ENDMDL
MODEL 7
REMARK VINA RESULT:      -7.0      3.009      4.683
REMARK  Name = 
REMARK  4 active torsions:
REMARK  status: ('A' for Active; 'I' for Inactive)
REMARK    1  A    between atoms: C_1  and  O_2
REMARK    2  A    between atoms: O_2  and  C_3
REMARK    3  A    between atoms: C_3  and  C_5
REMARK    4  A    between atoms: C_10  and  C_11
REMARK                            x       y       z     vdW  Elec       q    Type
REMARK                         _______ _______ _______ _____ _____    ______ ____
ROOT
ATOM      1  C   UNL     1       3.202   4.043  18.874  0.00  0.00    +0.000 A 
ATOM      2  C   UNL     1       2.735   5.367  19.121  0.00  0.00    +0.000 A 
ATOM      3  C   UNL     1       3.234   6.203  18.132  0.00  0.00    +0.000 A 
ATOM      4  N   UNL     1       4.043   5.447  17.298  0.00  0.00    +0.000 N 
ATOM      5  C   UNL     1       4.784   5.824  16.167  0.00  0.00    +0.000 A 
ATOM      6  C   UNL     1       5.517   4.909  15.498  0.00  0.00    +0.000 A 
ATOM      7  C   UNL     1       6.346   5.193  14.284  0.00  0.00    +0.000 C 
ATOM      8  C   UNL     1       5.518   3.535  15.983  0.00  0.00    +0.000 A 
ATOM      9  C   UNL     1       4.810   3.168  17.064  0.00  0.00    +0.000 A 
ATOM     10  C   UNL     1       4.032   4.131  17.770  0.00  0.00    +0.000 A 
ATOM     11  C   UNL     1       2.939   7.621  18.062  0.00  0.00    +0.000 C 
ATOM     12  O   UNL     1       3.375   8.383  17.210  0.00  0.00    +0.000 OA
ATOM     13  C   UNL     1       2.021   8.144  19.129  0.00  0.00    +0.000 A 
ATOM     14  C   UNL     1       1.655   9.498  19.140  0.00  0.00    +0.000 A 
ATOM     15  C   UNL     1       0.800   9.993  20.132  0.00  0.00    +0.000 A 
ATOM     16  C   UNL     1       0.295   9.144  21.115  0.00  0.00    +0.000 A 
ATOM     17  C   UNL     1       0.656   7.799  21.117  0.00  0.00    +0.000 A 
ATOM     18  C   UNL     1       1.523   7.300  20.132  0.00  0.00    +0.000 A 
ATOM     19  C   UNL     1       1.916   5.871  20.208  0.00  0.00    +0.000 C 
ATOM     20  O   UNL     1       1.590   5.202  21.180  0.00  0.00    +0.000 OA
ENDROOT
BRANCH   1  21
ATOM     21  C   UNL     1       2.913   2.816  19.610  0.00  0.00    +0.000 C 
ATOM     22  O   UNL     1       2.015   2.040  19.305  0.00  0.00    +0.000 OA
BRANCH  21  24
ATOM     23  C   UNL     1       4.803   1.783  20.523  0.00  0.00    +0.000 C 
ATOM     24  O   UNL     1       3.708   2.675  20.704  0.00  0.00    +0.000 OA
ENDBRANCH  21  24
ENDBRANCH   1  21
TORSDOF 2
ENDMDL
MODEL 8
REMARK VINA RESULT:      -7.0     10.141     12.613
REMARK  Name = 
REMARK  4 active torsions:
REMARK  status: ('A' for Active; 'I' for Inactive)
REMARK    1  A    between atoms: C_1  and  O_2
REMARK    2  A    between atoms: O_2  and  C_3
REMARK    3  A    between atoms: C_3  and  C_5
REMARK    4  A    between atoms: C_10  and  C_11
REMARK                            x       y       z     vdW  Elec       q    Type
REMARK                         _______ _______ _______ _____ _____    ______ ____
ROOT
ATOM      1  C   UNL     1      -1.892  12.424  21.718  0.00  0.00    +0.000 A 
ATOM      2  C   UNL     1      -2.405  12.046  20.444  0.00  0.00    +0.000 A 
ATOM      3  C   UNL     1      -3.708  12.515  20.337  0.00  0.00    +0.000 A 
ATOM      4  N   UNL     1      -4.042  13.135  21.530  0.00  0.00    +0.000 N 
ATOM      5  C   UNL     1      -5.237  13.754  21.927  0.00  0.00    +0.000 A 
ATOM      6  C   UNL     1      -5.345  14.299  23.158  0.00  0.00    +0.000 A 
ATOM      7  C   UNL     1      -6.567  14.980  23.692  0.00  0.00    +0.000 C 
ATOM      8  C   UNL     1      -4.197  14.221  24.051  0.00  0.00    +0.000 A 
ATOM      9  C   UNL     1      -3.050  13.631  23.677  0.00  0.00    +0.000 A 
ATOM     10  C   UNL     1      -2.932  13.059  22.376  0.00  0.00    +0.000 A 
ATOM     11  C   UNL     1      -4.528  12.327  19.155  0.00  0.00    +0.000 C 
ATOM     12  O   UNL     1      -5.682  12.718  19.037  0.00  0.00    +0.000 OA
ATOM     13  C   UNL     1      -3.868  11.603  18.018  0.00  0.00    +0.000 A 
ATOM     14  C   UNL     1      -4.568  11.387  16.821  0.00  0.00    +0.000 A 
ATOM     15  C   UNL     1      -3.959  10.712  15.756  0.00  0.00    +0.000 A 
ATOM     16  C   UNL     1      -2.647  10.254  15.869  0.00  0.00    +0.000 A 
ATOM     17  C   UNL     1      -1.945  10.457  17.055  0.00  0.00    +0.000 A 
ATOM     18  C   UNL     1      -2.555  11.123  18.131  0.00  0.00    +0.000 A 
ATOM     19  C   UNL     1      -1.782  11.271  19.388  0.00  0.00    +0.000 C 
ATOM     20  O   UNL     1      -0.701  10.707  19.507  0.00  0.00    +0.000 OA
ENDROOT
BRANCH   1  21
ATOM     21  C   UNL     1      -0.562  12.199  22.275  0.00  0.00    +0.000 C 
ATOM     22  O   UNL     1       0.451  12.743  21.850  0.00  0.00    +0.000 OA
BRANCH  21  24
ATOM     23  C   UNL     1      -0.313   9.939  22.830  0.00  0.00    +0.000 C 
ATOM     24  O   UNL     1      -0.572  11.270  23.268  0.00  0.00    +0.000 OA
ENDBRANCH  21  24
ENDBRANCH   1  21
TORSDOF 2
ENDMDL
MODEL 9
REMARK VINA RESULT:      -6.9      9.443     11.801
REMARK  Name = 
REMARK  4 active torsions:
REMARK  status: ('A' for Active; 'I' for Inactive)
REMARK    1  A    between atoms: C_1  and  O_2
REMARK    2  A    between atoms: O_2  and  C_3
REMARK    3  A    between atoms: C_3  and  C_5
REMARK    4  A    between atoms: C_10  and  C_11
REMARK                            x       y       z     vdW  Elec       q    Type
REMARK                         _______ _______ _______ _____ _____    ______ ____
ROOT
ATOM      1  C   UNL     1      -0.953  11.869  21.223  0.00  0.00    +0.000 A 
ATOM      2  C   UNL     1      -1.684  11.585  20.033  0.00  0.00    +0.000 A 
ATOM      3  C   UNL     1      -2.913  12.226  20.107  0.00  0.00    +0.000 A 
ATOM      4  N   UNL     1      -2.992  12.865  21.334  0.00  0.00    +0.000 N 
ATOM      5  C   UNL     1      -4.026  13.632  21.893  0.00  0.00    +0.000 A 
ATOM      6  C   UNL     1      -3.888  14.165  23.126  0.00  0.00    +0.000 A 
ATOM      7  C   UNL     1      -4.920  14.996  23.824  0.00  0.00    +0.000 C 
ATOM      8  C   UNL     1      -2.648  13.919  23.850  0.00  0.00    +0.000 A 
ATOM      9  C   UNL     1      -1.654  13.187  23.321  0.00  0.00    +0.000 A 
ATOM     10  C   UNL     1      -1.796  12.626  22.018  0.00  0.00    +0.000 A 
ATOM     11  C   UNL     1      -3.907  12.170  19.052  0.00  0.00    +0.000 C 
ATOM     12  O   UNL     1      -5.002  12.714  19.095  0.00  0.00    +0.000 OA
ATOM     13  C   UNL     1      -3.515  11.382  17.835  0.00  0.00    +0.000 A 
ATOM     14  C   UNL     1      -4.397  11.283  16.749  0.00  0.00    +0.000 A 
ATOM     15  C   UNL     1      -4.038  10.550  15.610  0.00  0.00    +0.000 A 
ATOM     16  C   UNL     1      -2.797   9.919  15.541  0.00  0.00    +0.000 A 
ATOM     17  C   UNL     1      -1.917  10.006  16.617  0.00  0.00    +0.000 A 
ATOM     18  C   UNL     1      -2.276  10.729  17.765  0.00  0.00    +0.000 A 
ATOM     19  C   UNL     1      -1.323  10.750  18.903  0.00  0.00    +0.000 C 
ATOM     20  O   UNL     1      -0.323  10.045  18.870  0.00  0.00    +0.000 OA
ENDROOT
BRANCH   1  21
ATOM     21  C   UNL     1       0.399  11.458  21.589  0.00  0.00    +0.000 C 
ATOM     22  O   UNL     1       1.411  11.971  21.126  0.00  0.00    +0.000 OA
BRANCH  21  24
ATOM     23  C   UNL     1       1.053   9.240  21.945  0.00  0.00    +0.000 C 
ATOM     24  O   UNL     1       0.399  10.402  22.445  0.00  0.00    +0.000 OA
ENDBRANCH  21  24
ENDBRANCH   1  21
TORSDOF 2
ENDMDL
