MODEL 1
REMARK VINA RESULT:      -7.5      0.000      0.000
REMARK  Name = 
REMARK  10 active torsions:
REMARK  status: ('A' for Active; 'I' for Inactive)
REMARK    1  A    between atoms: C_1  and  O_2
REMARK    2  A    between atoms: O_2  and  C_3
REMARK    3  A    between atoms: C_5  and  C_6
REMARK    4  A    between atoms: C_6  and  N_7
REMARK    5  A    between atoms: N_7  and  C_8
REMARK    6  A    between atoms: C_8  and  C_9
REMARK    7  A    between atoms: C_9  and  N_10
REMARK    8  A    between atoms: C_18  and  O_19
REMARK    9  A    between atoms: O_19  and  C_20
REMARK   10  A    between atoms: C_20  and  C_21
REMARK                            x       y       z     vdW  Elec       q    Type
REMARK                         _______ _______ _______ _____ _____    ______ ____
ROOT
ATOM      1  C   UNL     1       6.131   5.271  16.523  0.00  0.00    +0.000 A 
ATOM      2  C   UNL     1       7.124   6.155  16.968  0.00  0.00    +0.000 A 
ATOM      3  C   UNL     1       7.423   6.289  18.327  0.00  0.00    +0.000 A 
ATOM      4  C   UNL     1       6.749   5.498  19.259  0.00  0.00    +0.000 A 
ATOM      5  C   UNL     1       5.749   4.626  18.843  0.00  0.00    +0.000 A 
ATOM      6  C   UNL     1       5.405   4.504  17.477  0.00  0.00    +0.000 A 
ENDROOT
BRANCH   1   8
ATOM      7  C   UNL     1       6.391   4.322  14.236  0.00  0.00    +0.000 C 
ATOM      8  O   UNL     1       5.944   5.229  15.172  0.00  0.00    +0.000 OA
ENDBRANCH   1   8
BRANCH   3   9
ATOM      9  C   UNL     1       8.442   7.306  18.783  0.00  0.00    +0.000 C 
BRANCH   9  10
ATOM     10  N   UNL     1       8.221   8.627  18.156  0.00  0.00    +0.000 NA
ATOM     11  H   UNL     1       7.196   8.838  18.149  0.00  0.00    +0.000 HD
BRANCH  10  12
ATOM     12  C   UNL     1       8.921   9.751  18.818  0.00  0.00    +0.000 C 
BRANCH  12  13
ATOM     13  C   UNL     1       8.880  11.031  17.961  0.00  0.00    +0.000 C 
BRANCH  13  14
ATOM     14  N   UNL     1       9.331  12.258  18.664  0.00  0.00    +0.000 NA
ATOM     15  C   UNL     1       9.799  13.268  17.686  0.00  0.00    +0.000 C 
ATOM     16  C   UNL     1      11.189  12.899  17.118  0.00  0.00    +0.000 C 
ATOM     17  O   UNL     1      12.137  12.784  18.160  0.00  0.00    +0.000 OA
ATOM     18  C   UNL     1      11.748  11.747  19.041  0.00  0.00    +0.000 C 
ATOM     19  C   UNL     1      10.387  12.061  19.685  0.00  0.00    +0.000 C 
ENDBRANCH  13  14
ENDBRANCH  12  13
ENDBRANCH  10  12
ENDBRANCH   9  10
ENDBRANCH   3   9
BRANCH   6  20
ATOM     20  O   UNL     1       4.384   3.695  17.091  0.00  0.00    +0.000 OA
BRANCH  20  21
ATOM     21  C   UNL     1       3.059   4.091  17.034  0.00  0.00    +0.000 C 
BRANCH  21  22
ATOM     22  C   UNL     1       2.392   3.933  18.375  0.00  0.00    +0.000 A 
ATOM     23  C   UNL     1       1.931   2.658  18.757  0.00  0.00    +0.000 A 
ATOM     24  C   UNL     1       1.299   2.471  19.986  0.00  0.00    +0.000 A 
ATOM     25  C   UNL     1       1.112   3.553  20.845  0.00  0.00    +0.000 A 
ATOM     26  C   UNL     1       1.562   4.825  20.478  0.00  0.00    +0.000 A 
ATOM     27  C   UNL     1       2.205   5.023  19.249  0.00  0.00    +0.000 A 
ATOM     28 CL   UNL     1       2.744   6.643  18.827  0.00  0.00    +0.000 Cl
ENDBRANCH  21  22
ENDBRANCH  20  21
ENDBRANCH   6  20
TORSDOF 9
ENDMDL
MODEL 2
REMARK VINA RESULT:      -7.5      1.040      1.561
REMARK  Name = 
REMARK  10 active torsions:
REMARK  status: ('A' for Active; 'I' for Inactive)
REMARK    1  A    between atoms: C_1  and  O_2
REMARK    2  A    between atoms: O_2  and  C_3
REMARK    3  A    between atoms: C_5  and  C_6
REMARK    4  A    between atoms: C_6  and  N_7
REMARK    5  A    between atoms: N_7  and  C_8
REMARK    6  A    between atoms: C_8  and  C_9
REMARK    7  A    between atoms: C_9  and  N_10
REMARK    8  A    between atoms: C_18  and  O_19
REMARK    9  A    between atoms: O_19  and  C_20
REMARK   10  A    between atoms: C_20  and  C_21
REMARK                            x       y       z     vdW  Elec       q    Type
REMARK                         _______ _______ _______ _____ _____    ______ ____
ROOT
ATOM      1  C   UNL     1       6.077   5.171  16.430  0.00  0.00    +0.000 A 
ATOM      2  C   UNL     1       6.993   6.184  16.750  0.00  0.00    +0.000 A 
ATOM      3  C   UNL     1       7.346   6.455  18.075  0.00  0.00    +0.000 A 
ATOM      4  C   UNL     1       6.808   5.676  19.100  0.00  0.00    +0.000 A 
ATOM      5  C   UNL     1       5.886   4.676  18.809  0.00  0.00    +0.000 A 
ATOM      6  C   UNL     1       5.486   4.412  17.479  0.00  0.00    +0.000 A 
ENDROOT
BRANCH   1   8
ATOM      7  C   UNL     1       6.512   4.284  14.145  0.00  0.00    +0.000 C 
ATOM      8  O   UNL     1       5.827   5.004  15.099  0.00  0.00    +0.000 OA
ENDBRANCH   1   8
BRANCH   3   9
ATOM      9  C   UNL     1       8.274   7.603  18.394  0.00  0.00    +0.000 C 
BRANCH   9  10
ATOM     10  N   UNL     1       7.723   8.899  17.940  0.00  0.00    +0.000 NA
ATOM     11  H   UNL     1       6.951   9.189  18.584  0.00  0.00    +0.000 HD
BRANCH  10  12
ATOM     12  C   UNL     1       8.710  10.001  17.874  0.00  0.00    +0.000 C 
BRANCH  12  13
ATOM     13  C   UNL     1       9.222  10.391  19.274  0.00  0.00    +0.000 C 
BRANCH  13  14
ATOM     14  N   UNL     1      10.287  11.425  19.274  0.00  0.00    +0.000 NA
ATOM     15  C   UNL     1      10.609  11.830  20.663  0.00  0.00    +0.000 C 
ATOM     16  C   UNL     1       9.511  12.743  21.252  0.00  0.00    +0.000 C 
ATOM     17  O   UNL     1       9.345  13.899  20.456  0.00  0.00    +0.000 OA
ATOM     18  C   UNL     1       8.933  13.523  19.156  0.00  0.00    +0.000 C 
ATOM     19  C   UNL     1       9.999  12.643  18.480  0.00  0.00    +0.000 C 
ENDBRANCH  13  14
ENDBRANCH  12  13
ENDBRANCH  10  12
ENDBRANCH   9  10
ENDBRANCH   3   9
BRANCH   6  20
ATOM     20  O   UNL     1       4.538   3.476  17.215  0.00  0.00    +0.000 OA
BRANCH  20  21
ATOM     21  C   UNL     1       3.191   3.756  17.070  0.00  0.00    +0.000 C 
BRANCH  21  22
ATOM     22  C   UNL     1       2.479   3.669  18.394  0.00  0.00    +0.000 A 
ATOM     23  C   UNL     1       2.098   2.403  18.879  0.00  0.00    +0.000 A 
ATOM     24  C   UNL     1       1.428   2.279  20.095  0.00  0.00    +0.000 A 
ATOM     25  C   UNL     1       1.123   3.418  20.841  0.00  0.00    +0.000 A 
ATOM     26  C   UNL     1       1.491   4.682  20.372  0.00  0.00    +0.000 A 
ATOM     27  C   UNL     1       2.172   4.817  19.154  0.00  0.00    +0.000 A 
ATOM     28 CL   UNL     1       2.606   6.428  18.601  0.00  0.00    +0.000 Cl
ENDBRANCH  21  22
ENDBRANCH  20  21
ENDBRANCH   6  20
TORSDOF 9
ENDMDL
MODEL 3
REMARK VINA RESULT:      -7.3      0.876      1.373
REMARK  Name = 
REMARK  10 active torsions:
REMARK  status: ('A' for Active; 'I' for Inactive)
REMARK    1  A    between atoms: C_1  and  O_2
REMARK    2  A    between atoms: O_2  and  C_3
REMARK    3  A    between atoms: C_5  and  C_6
REMARK    4  A    between atoms: C_6  and  N_7
REMARK    5  A    between atoms: N_7  and  C_8
REMARK    6  A    between atoms: C_8  and  C_9
REMARK    7  A    between atoms: C_9  and  N_10
REMARK    8  A    between atoms: C_18  and  O_19
REMARK    9  A    between atoms: O_19  and  C_20
REMARK   10  A    between atoms: C_20  and  C_21
REMARK                            x       y       z     vdW  Elec       q    Type
REMARK                         _______ _______ _______ _____ _____    ______ ____
ROOT
ATOM      1  C   UNL     1       6.193   5.587  16.374  0.00  0.00    +0.000 A 
ATOM      2  C   UNL     1       6.943   6.767  16.479  0.00  0.00    +0.000 A 
ATOM      3  C   UNL     1       7.458   7.196  17.706  0.00  0.00    +0.000 A 
ATOM      4  C   UNL     1       7.257   6.414  18.844  0.00  0.00    +0.000 A 
ATOM      5  C   UNL     1       6.502   5.248  18.768  0.00  0.00    +0.000 A 
ATOM      6  C   UNL     1       5.940   4.817  17.545  0.00  0.00    +0.000 A 
ENDROOT
BRANCH   1   8
ATOM      7  C   UNL     1       6.157   4.281  14.255  0.00  0.00    +0.000 C 
ATOM      8  O   UNL     1       5.757   5.277  15.119  0.00  0.00    +0.000 OA
ENDBRANCH   1   8
BRANCH   3   9
ATOM      9  C   UNL     1       8.195   8.510  17.802  0.00  0.00    +0.000 C 
BRANCH   9  10
ATOM     10  N   UNL     1       8.852   8.679  19.117  0.00  0.00    +0.000 NA
ATOM     11  H   UNL     1       9.711   8.082  19.152  0.00  0.00    +0.000 HD
BRANCH  10  12
ATOM     12  C   UNL     1       9.241  10.070  19.440  0.00  0.00    +0.000 C 
BRANCH  12  13
ATOM     13  C   UNL     1       9.380  10.932  18.171  0.00  0.00    +0.000 C 
BRANCH  13  14
ATOM     14  N   UNL     1      10.744  11.468  17.935  0.00  0.00    +0.000 NA
ATOM     15  C   UNL     1      11.456  11.644  19.223  0.00  0.00    +0.000 C 
ATOM     16  C   UNL     1      10.937  12.882  19.988  0.00  0.00    +0.000 C 
ATOM     17  O   UNL     1      11.090  14.050  19.206  0.00  0.00    +0.000 OA
ATOM     18  C   UNL     1      10.325  13.930  18.023  0.00  0.00    +0.000 C 
ATOM     19  C   UNL     1      10.811  12.740  17.178  0.00  0.00    +0.000 C 
ENDBRANCH  13  14
ENDBRANCH  12  13
ENDBRANCH  10  12
ENDBRANCH   9  10
ENDBRANCH   3   9
BRANCH   6  20
ATOM     20  O   UNL     1       5.153   3.711  17.497  0.00  0.00    +0.000 OA
BRANCH  20  21
ATOM     21  C   UNL     1       3.798   3.735  17.217  0.00  0.00    +0.000 C 
BRANCH  21  22
ATOM     22  C   UNL     1       2.989   3.791  18.486  0.00  0.00    +0.000 A 
ATOM     23  C   UNL     1       2.628   2.583  19.114  0.00  0.00    +0.000 A 
ATOM     24  C   UNL     1       1.870   2.591  20.285  0.00  0.00    +0.000 A 
ATOM     25  C   UNL     1       1.457   3.802  20.839  0.00  0.00    +0.000 A 
ATOM     26  C   UNL     1       1.806   5.008  20.226  0.00  0.00    +0.000 A 
ATOM     27  C   UNL     1       2.574   5.013  19.053  0.00  0.00    +0.000 A 
ATOM     28 CL   UNL     1       2.979   6.555  18.312  0.00  0.00    +0.000 Cl
ENDBRANCH  21  22
ENDBRANCH  20  21
ENDBRANCH   6  20
TORSDOF 9
ENDMDL
MODEL 4
REMARK VINA RESULT:      -7.3      1.876      2.587
REMARK  Name = 
REMARK  10 active torsions:
REMARK  status: ('A' for Active; 'I' for Inactive)
REMARK    1  A    between atoms: C_1  and  O_2
REMARK    2  A    between atoms: O_2  and  C_3
REMARK    3  A    between atoms: C_5  and  C_6
REMARK    4  A    between atoms: C_6  and  N_7
REMARK    5  A    between atoms: N_7  and  C_8
REMARK    6  A    between atoms: C_8  and  C_9
REMARK    7  A    between atoms: C_9  and  N_10
REMARK    8  A    between atoms: C_18  and  O_19
REMARK    9  A    between atoms: O_19  and  C_20
REMARK   10  A    between atoms: C_20  and  C_21
REMARK                            x       y       z     vdW  Elec       q    Type
REMARK                         _______ _______ _______ _____ _____    ______ ____
ROOT
ATOM      1  C   UNL     1       4.159   5.683  17.449  0.00  0.00    +0.000 A 
ATOM      2  C   UNL     1       5.269   6.539  17.447  0.00  0.00    +0.000 A 
ATOM      3  C   UNL     1       6.477   6.165  16.849  0.00  0.00    +0.000 A 
ATOM      4  C   UNL     1       6.568   4.930  16.204  0.00  0.00    +0.000 A 
ATOM      5  C   UNL     1       5.485   4.058  16.206  0.00  0.00    +0.000 A 
ATOM      6  C   UNL     1       4.269   4.401  16.839  0.00  0.00    +0.000 A 
ENDROOT
BRANCH   1   8
ATOM      7  C   UNL     1       2.561   7.461  18.143  0.00  0.00    +0.000 C 
ATOM      8  O   UNL     1       3.040   6.172  18.057  0.00  0.00    +0.000 OA
ENDBRANCH   1   8
BRANCH   3   9
ATOM      9  C   UNL     1       7.679   7.075  16.932  0.00  0.00    +0.000 C 
BRANCH   9  10
ATOM     10  N   UNL     1       7.400   8.284  17.736  0.00  0.00    +0.000 NA
ATOM     11  H   UNL     1       6.646   8.070  18.430  0.00  0.00    +0.000 HD
BRANCH  10  12
ATOM     12  C   UNL     1       8.567   8.821  18.472  0.00  0.00    +0.000 C 
BRANCH  12  13
ATOM     13  C   UNL     1       8.724  10.339  18.262  0.00  0.00    +0.000 C 
BRANCH  13  14
ATOM     14  N   UNL     1       9.889  10.940  18.958  0.00  0.00    +0.000 NA
ATOM     15  C   UNL     1       9.438  11.988  19.903  0.00  0.00    +0.000 C 
ATOM     16  C   UNL     1       9.024  13.278  19.158  0.00  0.00    +0.000 C 
ATOM     17  O   UNL     1      10.101  13.775  18.389  0.00  0.00    +0.000 OA
ATOM     18  C   UNL     1      10.466  12.818  17.413  0.00  0.00    +0.000 C 
ATOM     19  C   UNL     1      10.936  11.513  18.079  0.00  0.00    +0.000 C 
ENDBRANCH  13  14
ENDBRANCH  12  13
ENDBRANCH  10  12
ENDBRANCH   9  10
ENDBRANCH   3   9
BRANCH   6  20
ATOM     20  O   UNL     1       3.241   3.514  16.888  0.00  0.00    +0.000 OA
BRANCH  20  21
ATOM     21  C   UNL     1       3.233   2.377  17.676  0.00  0.00    +0.000 C 
BRANCH  21  22
ATOM     22  C   UNL     1       2.584   2.651  19.007  0.00  0.00    +0.000 A 
ATOM     23  C   UNL     1       1.262   3.136  19.030  0.00  0.00    +0.000 A 
ATOM     24  C   UNL     1       0.628   3.413  20.241  0.00  0.00    +0.000 A 
ATOM     25  C   UNL     1       1.306   3.215  21.443  0.00  0.00    +0.000 A 
ATOM     26  C   UNL     1       2.619   2.736  21.437  0.00  0.00    +0.000 A 
ATOM     27  C   UNL     1       3.264   2.448  20.225  0.00  0.00    +0.000 A 
ATOM     28 CL   UNL     1       4.920   1.858  20.268  0.00  0.00    +0.000 Cl
ENDBRANCH  21  22
ENDBRANCH  20  21
ENDBRANCH   6  20
TORSDOF 9
ENDMDL
MODEL 5
REMARK VINA RESULT:      -7.2      1.681      2.092
REMARK  Name = 
REMARK  10 active torsions:
REMARK  status: ('A' for Active; 'I' for Inactive)
REMARK    1  A    between atoms: C_1  and  O_2
REMARK    2  A    between atoms: O_2  and  C_3
REMARK    3  A    between atoms: C_5  and  C_6
REMARK    4  A    between atoms: C_6  and  N_7
REMARK    5  A    between atoms: N_7  and  C_8
REMARK    6  A    between atoms: C_8  and  C_9
REMARK    7  A    between atoms: C_9  and  N_10
REMARK    8  A    between atoms: C_18  and  O_19
REMARK    9  A    between atoms: O_19  and  C_20
REMARK   10  A    between atoms: C_20  and  C_21
REMARK                            x       y       z     vdW  Elec       q    Type
REMARK                         _______ _______ _______ _____ _____    ______ ____
ROOT
ATOM      1  C   UNL     1       6.018   4.531  16.437  0.00  0.00    +0.000 A 
ATOM      2  C   UNL     1       6.973   5.513  16.733  0.00  0.00    +0.000 A 
ATOM      3  C   UNL     1       6.994   6.160  17.973  0.00  0.00    +0.000 A 
ATOM      4  C   UNL     1       6.071   5.792  18.952  0.00  0.00    +0.000 A 
ATOM      5  C   UNL     1       5.103   4.832  18.677  0.00  0.00    +0.000 A 
ATOM      6  C   UNL     1       5.041   4.194  17.417  0.00  0.00    +0.000 A 
ENDROOT
BRANCH   1   8
ATOM      7  C   UNL     1       6.600   4.493  14.017  0.00  0.00    +0.000 C 
ATOM      8  O   UNL     1       6.114   3.972  15.196  0.00  0.00    +0.000 OA
ENDBRANCH   1   8
BRANCH   3   9
ATOM      9  C   UNL     1       7.985   7.268  18.234  0.00  0.00    +0.000 C 
BRANCH   9  10
ATOM     10  N   UNL     1       7.614   8.516  17.531  0.00  0.00    +0.000 NA
ATOM     11  H   UNL     1       6.716   8.880  17.926  0.00  0.00    +0.000 HD
BRANCH  10  12
ATOM     12  C   UNL     1       8.626   9.594  17.609  0.00  0.00    +0.000 C 
BRANCH  12  13
ATOM     13  C   UNL     1       8.912  10.002  19.067  0.00  0.00    +0.000 C 
BRANCH  13  14
ATOM     14  N   UNL     1      10.126  10.836  19.247  0.00  0.00    +0.000 NA
ATOM     15  C   UNL     1      10.091  11.518  20.562  0.00  0.00    +0.000 C 
ATOM     16  C   UNL     1       9.094  12.699  20.557  0.00  0.00    +0.000 C 
ATOM     17  O   UNL     1       9.438  13.635  19.555  0.00  0.00    +0.000 OA
ATOM     18  C   UNL     1       9.370  13.016  18.285  0.00  0.00    +0.000 C 
ATOM     19  C   UNL     1      10.369  11.850  18.193  0.00  0.00    +0.000 C 
ENDBRANCH  13  14
ENDBRANCH  12  13
ENDBRANCH  10  12
ENDBRANCH   9  10
ENDBRANCH   3   9
BRANCH   6  20
ATOM     20  O   UNL     1       4.053   3.305  17.140  0.00  0.00    +0.000 OA
BRANCH  20  21
ATOM     21  C   UNL     1       3.790   2.176  17.896  0.00  0.00    +0.000 C 
BRANCH  21  22
ATOM     22  C   UNL     1       2.904   2.508  19.068  0.00  0.00    +0.000 A 
ATOM     23  C   UNL     1       1.605   2.992  18.821  0.00  0.00    +0.000 A 
ATOM     24  C   UNL     1       0.757   3.322  19.878  0.00  0.00    +0.000 A 
ATOM     25  C   UNL     1       1.196   3.180  21.193  0.00  0.00    +0.000 A 
ATOM     26  C   UNL     1       2.484   2.704  21.455  0.00  0.00    +0.000 A 
ATOM     27  C   UNL     1       3.342   2.363  20.400  0.00  0.00    +0.000 A 
ATOM     28 CL   UNL     1       4.957   1.778  20.779  0.00  0.00    +0.000 Cl
ENDBRANCH  21  22
ENDBRANCH  20  21
ENDBRANCH   6  20
TORSDOF 9
ENDMDL
MODEL 6
REMARK VINA RESULT:      -7.1      1.099      1.798
REMARK  Name = 
REMARK  10 active torsions:
REMARK  status: ('A' for Active; 'I' for Inactive)
REMARK    1  A    between atoms: C_1  and  O_2
REMARK    2  A    between atoms: O_2  and  C_3
REMARK    3  A    between atoms: C_5  and  C_6
REMARK    4  A    between atoms: C_6  and  N_7
REMARK    5  A    between atoms: N_7  and  C_8
REMARK    6  A    between atoms: C_8  and  C_9
REMARK    7  A    between atoms: C_9  and  N_10
REMARK    8  A    between atoms: C_18  and  O_19
REMARK    9  A    between atoms: O_19  and  C_20
REMARK   10  A    between atoms: C_20  and  C_21
REMARK                            x       y       z     vdW  Elec       q    Type
REMARK                         _______ _______ _______ _____ _____    ______ ____
ROOT
ATOM      1  C   UNL     1       5.349   4.745  18.582  0.00  0.00    +0.000 A 
ATOM      2  C   UNL     1       6.492   5.506  18.863  0.00  0.00    +0.000 A 
ATOM      3  C   UNL     1       6.911   6.534  18.012  0.00  0.00    +0.000 A 
ATOM      4  C   UNL     1       6.154   6.836  16.879  0.00  0.00    +0.000 A 
ATOM      5  C   UNL     1       5.025   6.085  16.571  0.00  0.00    +0.000 A 
ATOM      6  C   UNL     1       4.607   5.018  17.397  0.00  0.00    +0.000 A 
ENDROOT
BRANCH   1   8
ATOM      7  C   UNL     1       4.922   2.416  19.350  0.00  0.00    +0.000 C 
ATOM      8  O   UNL     1       5.044   3.781  19.497  0.00  0.00    +0.000 OA
ENDBRANCH   1   8
BRANCH   3   9
ATOM      9  C   UNL     1       8.190   7.283  18.300  0.00  0.00    +0.000 C 
BRANCH   9  10
ATOM     10  N   UNL     1       8.105   8.699  17.879  0.00  0.00    +0.000 NA
ATOM     11  H   UNL     1       7.098   8.982  17.822  0.00  0.00    +0.000 HD
BRANCH  10  12
ATOM     12  C   UNL     1       8.804   9.652  18.771  0.00  0.00    +0.000 C 
BRANCH  12  13
ATOM     13  C   UNL     1       9.065  11.000  18.071  0.00  0.00    +0.000 C 
BRANCH  13  14
ATOM     14  N   UNL     1       9.557  12.075  18.968  0.00  0.00    +0.000 NA
ATOM     15  C   UNL     1       9.859  13.297  18.187  0.00  0.00    +0.000 C 
ATOM     16  C   UNL     1      11.176  13.147  17.393  0.00  0.00    +0.000 C 
ATOM     17  O   UNL     1      12.254  12.872  18.266  0.00  0.00    +0.000 OA
ATOM     18  C   UNL     1      12.020  11.649  18.937  0.00  0.00    +0.000 C 
ATOM     19  C   UNL     1      10.742  11.732  19.790  0.00  0.00    +0.000 C 
ENDBRANCH  13  14
ENDBRANCH  12  13
ENDBRANCH  10  12
ENDBRANCH   9  10
ENDBRANCH   3   9
BRANCH   6  20
ATOM     20  O   UNL     1       3.539   4.252  17.051  0.00  0.00    +0.000 OA
BRANCH  20  21
ATOM     21  C   UNL     1       2.228   4.558  17.372  0.00  0.00    +0.000 C 
BRANCH  21  22
ATOM     22  C   UNL     1       1.866   4.011  18.728  0.00  0.00    +0.000 A 
ATOM     23  C   UNL     1       1.475   2.663  18.834  0.00  0.00    +0.000 A 
ATOM     24  C   UNL     1       1.121   2.121  20.069  0.00  0.00    +0.000 A 
ATOM     25  C   UNL     1       1.147   2.918  21.213  0.00  0.00    +0.000 A 
ATOM     26  C   UNL     1       1.531   4.259  21.123  0.00  0.00    +0.000 A 
ATOM     27  C   UNL     1       1.895   4.812  19.888  0.00  0.00    +0.000 A 
ATOM     28 CL   UNL     1       2.361   6.507  19.824  0.00  0.00    +0.000 Cl
ENDBRANCH  21  22
ENDBRANCH  20  21
ENDBRANCH   6  20
TORSDOF 9
ENDMDL
MODEL 7
REMARK VINA RESULT:      -7.1      5.338      8.362
REMARK  Name = 
REMARK  10 active torsions:
REMARK  status: ('A' for Active; 'I' for Inactive)
REMARK    1  A    between atoms: C_1  and  O_2
REMARK    2  A    between atoms: O_2  and  C_3
REMARK    3  A    between atoms: C_5  and  C_6
REMARK    4  A    between atoms: C_6  and  N_7
REMARK    5  A    between atoms: N_7  and  C_8
REMARK    6  A    between atoms: C_8  and  C_9
REMARK    7  A    between atoms: C_9  and  N_10
REMARK    8  A    between atoms: C_18  and  O_19
REMARK    9  A    between atoms: O_19  and  C_20
REMARK   10  A    between atoms: C_20  and  C_21
REMARK                            x       y       z     vdW  Elec       q    Type
REMARK                         _______ _______ _______ _____ _____    ______ ____
ROOT
ATOM      1  C   UNL     1       2.361   5.177  20.263  0.00  0.00    +0.000 A 
ATOM      2  C   UNL     1       1.803   6.358  20.772  0.00  0.00    +0.000 A 
ATOM      3  C   UNL     1       1.811   7.546  20.035  0.00  0.00    +0.000 A 
ATOM      4  C   UNL     1       2.349   7.548  18.747  0.00  0.00    +0.000 A 
ATOM      5  C   UNL     1       2.923   6.394  18.225  0.00  0.00    +0.000 A 
ATOM      6  C   UNL     1       2.960   5.193  18.970  0.00  0.00    +0.000 A 
ENDROOT
BRANCH   1   8
ATOM      7  C   UNL     1       1.320   3.103  21.163  0.00  0.00    +0.000 C 
ATOM      8  O   UNL     1       2.280   4.088  21.079  0.00  0.00    +0.000 OA
ENDBRANCH   1   8
BRANCH   3   9
ATOM      9  C   UNL     1       1.273   8.820  20.641  0.00  0.00    +0.000 C 
BRANCH   9  10
ATOM     10  N   UNL     1       0.269   8.548  21.693  0.00  0.00    +0.000 NA
ATOM     11  H   UNL     1       0.360   7.554  22.007  0.00  0.00    +0.000 HD
BRANCH  10  12
ATOM     12  C   UNL     1       0.370   9.421  22.884  0.00  0.00    +0.000 C 
BRANCH  12  13
ATOM     13  C   UNL     1      -0.859  10.339  23.023  0.00  0.00    +0.000 C 
BRANCH  13  14
ATOM     14  N   UNL     1      -0.571  11.786  22.854  0.00  0.00    +0.000 NA
ATOM     15  C   UNL     1      -1.750  12.594  23.243  0.00  0.00    +0.000 C 
ATOM     16  C   UNL     1      -2.854  12.533  22.164  0.00  0.00    +0.000 C 
ATOM     17  O   UNL     1      -2.361  12.994  20.922  0.00  0.00    +0.000 OA
ATOM     18  C   UNL     1      -1.302  12.159  20.494  0.00  0.00    +0.000 C 
ATOM     19  C   UNL     1      -0.138  12.200  21.499  0.00  0.00    +0.000 C 
ENDBRANCH  13  14
ENDBRANCH  12  13
ENDBRANCH  10  12
ENDBRANCH   9  10
ENDBRANCH   3   9
BRANCH   6  20
ATOM     20  O   UNL     1       3.579   4.090  18.475  0.00  0.00    +0.000 OA
BRANCH  20  21
ATOM     21  C   UNL     1       4.870   3.713  18.800  0.00  0.00    +0.000 C 
BRANCH  21  22
ATOM     22  C   UNL     1       5.868   4.720  18.292  0.00  0.00    +0.000 A 
ATOM     23  C   UNL     1       6.664   5.416  19.222  0.00  0.00    +0.000 A 
ATOM     24  C   UNL     1       7.592   6.365  18.793  0.00  0.00    +0.000 A 
ATOM     25  C   UNL     1       7.733   6.635  17.433  0.00  0.00    +0.000 A 
ATOM     26  C   UNL     1       6.949   5.955  16.498  0.00  0.00    +0.000 A 
ATOM     27  C   UNL     1       6.018   4.994  16.917  0.00  0.00    +0.000 A 
ATOM     28 CL   UNL     1       5.046   4.172  15.704  0.00  0.00    +0.000 Cl
ENDBRANCH  21  22
ENDBRANCH  20  21
ENDBRANCH   6  20
TORSDOF 9
ENDMDL
MODEL 8
REMARK VINA RESULT:      -7.1      5.311      8.027
REMARK  Name = 
REMARK  10 active torsions:
REMARK  status: ('A' for Active; 'I' for Inactive)
REMARK    1  A    between atoms: C_1  and  O_2
REMARK    2  A    between atoms: O_2  and  C_3
REMARK    3  A    between atoms: C_5  and  C_6
REMARK    4  A    between atoms: C_6  and  N_7
REMARK    5  A    between atoms: N_7  and  C_8
REMARK    6  A    between atoms: C_8  and  C_9
REMARK    7  A    between atoms: C_9  and  N_10
REMARK    8  A    between atoms: C_18  and  O_19
REMARK    9  A    between atoms: O_19  and  C_20
REMARK   10  A    between atoms: C_20  and  C_21
REMARK                            x       y       z     vdW  Elec       q    Type
REMARK                         _______ _______ _______ _____ _____    ______ ____
ROOT
ATOM      1  C   UNL     1       1.251   8.462  20.825  0.00  0.00    +0.000 A 
ATOM      2  C   UNL     1       1.698   7.136  20.744  0.00  0.00    +0.000 A 
ATOM      3  C   UNL     1       2.197   6.606  19.549  0.00  0.00    +0.000 A 
ATOM      4  C   UNL     1       2.290   7.426  18.424  0.00  0.00    +0.000 A 
ATOM      5  C   UNL     1       1.838   8.740  18.475  0.00  0.00    +0.000 A 
ATOM      6  C   UNL     1       1.295   9.283  19.662  0.00  0.00    +0.000 A 
ENDROOT
BRANCH   1   8
ATOM      7  C   UNL     1      -0.487   9.080  22.497  0.00  0.00    +0.000 C 
ATOM      8  O   UNL     1       0.797   8.856  22.049  0.00  0.00    +0.000 OA
ENDBRANCH   1   8
BRANCH   3   9
ATOM      9  C   UNL     1       2.597   5.153  19.472  0.00  0.00    +0.000 C 
BRANCH   9  10
ATOM     10  N   UNL     1       2.794   4.709  18.074  0.00  0.00    +0.000 NA
ATOM     11  H   UNL     1       3.165   5.508  17.508  0.00  0.00    +0.000 HD
BRANCH  10  12
ATOM     12  C   UNL     1       3.713   3.560  17.913  0.00  0.00    +0.000 C 
BRANCH  12  13
ATOM     13  C   UNL     1       4.761   3.819  16.814  0.00  0.00    +0.000 C 
BRANCH  13  14
ATOM     14  N   UNL     1       4.913   5.244  16.430  0.00  0.00    +0.000 NA
ATOM     15  C   UNL     1       5.464   5.352  15.059  0.00  0.00    +0.000 C 
ATOM     16  C   UNL     1       6.975   5.025  15.033  0.00  0.00    +0.000 C 
ATOM     17  O   UNL     1       7.686   5.894  15.892  0.00  0.00    +0.000 OA
ATOM     18  C   UNL     1       7.236   5.718  17.221  0.00  0.00    +0.000 C 
ATOM     19  C   UNL     1       5.743   6.068  17.341  0.00  0.00    +0.000 C 
ENDBRANCH  13  14
ENDBRANCH  12  13
ENDBRANCH  10  12
ENDBRANCH   9  10
ENDBRANCH   3   9
BRANCH   6  20
ATOM     20  O   UNL     1       0.799  10.547  19.681  0.00  0.00    +0.000 OA
BRANCH  20  21
ATOM     21  C   UNL     1       0.397  11.240  18.553  0.00  0.00    +0.000 C 
BRANCH  21  22
ATOM     22  C   UNL     1      -1.077  11.059  18.308  0.00  0.00    +0.000 A 
ATOM     23  C   UNL     1      -1.502  10.008  17.473  0.00  0.00    +0.000 A 
ATOM     24  C   UNL     1      -2.858   9.812  17.212  0.00  0.00    +0.000 A 
ATOM     25  C   UNL     1      -3.806  10.665  17.775  0.00  0.00    +0.000 A 
ATOM     26  C   UNL     1      -3.400  11.715  18.604  0.00  0.00    +0.000 A 
ATOM     27  C   UNL     1      -2.040  11.916  18.879  0.00  0.00    +0.000 A 
ATOM     28 CL   UNL     1      -1.577  13.256  19.919  0.00  0.00    +0.000 Cl
ENDBRANCH  21  22
ENDBRANCH  20  21
ENDBRANCH   6  20
TORSDOF 9
ENDMDL
MODEL 9
REMARK VINA RESULT:      -7.1      6.225      9.699
REMARK  Name = 
REMARK  10 active torsions:
REMARK  status: ('A' for Active; 'I' for Inactive)
REMARK    1  A    between atoms: C_1  and  O_2
REMARK    2  A    between atoms: O_2  and  C_3
REMARK    3  A    between atoms: C_5  and  C_6
REMARK    4  A    between atoms: C_6  and  N_7
REMARK    5  A    between atoms: N_7  and  C_8
REMARK    6  A    between atoms: C_8  and  C_9
REMARK    7  A    between atoms: C_9  and  N_10
REMARK    8  A    between atoms: C_18  and  O_19
REMARK    9  A    between atoms: O_19  and  C_20
REMARK   10  A    between atoms: C_20  and  C_21
REMARK                            x       y       z     vdW  Elec       q    Type
REMARK                         _______ _______ _______ _____ _____    ______ ____
ROOT
ATOM      1  C   UNL     1       1.001   9.217  20.396  0.00  0.00    +0.000 A 
ATOM      2  C   UNL     1       1.776   8.052  20.482  0.00  0.00    +0.000 A 
ATOM      3  C   UNL     1       2.285   7.428  19.338  0.00  0.00    +0.000 A 
ATOM      4  C   UNL     1       2.051   7.999  18.086  0.00  0.00    +0.000 A 
ATOM      5  C   UNL     1       1.272   9.145  17.974  0.00  0.00    +0.000 A 
ATOM      6  C   UNL     1       0.716   9.769  19.114  0.00  0.00    +0.000 A 
ENDROOT
BRANCH   1   8
ATOM      7  C   UNL     1      -0.490   9.369  22.383  0.00  0.00    +0.000 C 
ATOM      8  O   UNL     1       0.574   9.729  21.586  0.00  0.00    +0.000 OA
ENDBRANCH   1   8
BRANCH   3   9
ATOM      9  C   UNL     1       3.050   6.132  19.457  0.00  0.00    +0.000 C 
BRANCH   9  10
ATOM     10  N   UNL     1       2.800   5.462  20.751  0.00  0.00    +0.000 NA
ATOM     11  H   UNL     1       2.433   6.162  21.437  0.00  0.00    +0.000 HD
BRANCH  10  12
ATOM     12  C   UNL     1       1.845   4.332  20.688  0.00  0.00    +0.000 C 
BRANCH  12  13
ATOM     13  C   UNL     1       2.571   2.976  20.605  0.00  0.00    +0.000 C 
BRANCH  13  14
ATOM     14  N   UNL     1       2.032   2.049  19.579  0.00  0.00    +0.000 NA
ATOM     15  C   UNL     1       3.118   1.585  18.684  0.00  0.00    +0.000 C 
ATOM     16  C   UNL     1       3.535   2.690  17.686  0.00  0.00    +0.000 C 
ATOM     17  O   UNL     1       2.429   3.099  16.907  0.00  0.00    +0.000 OA
ATOM     18  C   UNL     1       1.431   3.641  17.749  0.00  0.00    +0.000 C 
ATOM     19  C   UNL     1       0.928   2.585  18.748  0.00  0.00    +0.000 C 
ENDBRANCH  13  14
ENDBRANCH  12  13
ENDBRANCH  10  12
ENDBRANCH   9  10
ENDBRANCH   3   9
BRANCH   6  20
ATOM     20  O   UNL     1      -0.095  10.851  18.985  0.00  0.00    +0.000 OA
BRANCH  20  21
ATOM     21  C   UNL     1      -1.426  10.872  19.361  0.00  0.00    +0.000 C 
BRANCH  21  22
ATOM     22  C   UNL     1      -2.326  10.870  18.154  0.00  0.00    +0.000 A 
ATOM     23  C   UNL     1      -1.886  10.228  16.981  0.00  0.00    +0.000 A 
ATOM     24  C   UNL     1      -2.684  10.213  15.837  0.00  0.00    +0.000 A 
ATOM     25  C   UNL     1      -3.927  10.844  15.847  0.00  0.00    +0.000 A 
ATOM     26  C   UNL     1      -4.377  11.488  17.003  0.00  0.00    +0.000 A 
ATOM     27  C   UNL     1      -3.586  11.503  18.160  0.00  0.00    +0.000 A 
ATOM     28 CL   UNL     1      -4.190  12.335  19.587  0.00  0.00    +0.000 Cl
ENDBRANCH  21  22
ENDBRANCH  20  21
ENDBRANCH   6  20
TORSDOF 9
ENDMDL
