MODEL 1
REMARK VINA RESULT:      -7.0      0.000      0.000
REMARK  Name = 
REMARK  9 active torsions:
REMARK  status: ('A' for Active; 'I' for Inactive)
REMARK    1  A    between atoms: C_1  and  N_2
REMARK    2  A    between atoms: N_2  and  C_3
REMARK    3  A    between atoms: C_3  and  C_4
REMARK    4  A    between atoms: C_7  and  C_8
REMARK    5  A    between atoms: C_10  and  C_11
REMARK    6  A    between atoms: C_11  and  N_12
REMARK    7  A    between atoms: N_12  and  C_13
REMARK    8  A    between atoms: C_14  and  C_16
REMARK    9  A    between atoms: N_22  and  C_23
REMARK                            x       y       z     vdW  Elec       q    Type
REMARK                         _______ _______ _______ _____ _____    ______ ____
ROOT
ATOM      1  C   UNL     1       8.334   9.006  18.309  0.00  0.00    +0.000 A 
ATOM      2  C   UNL     1       7.452   8.708  17.287  0.00  0.00    +0.000 A 
ATOM      3  C   UNL     1       7.216   7.347  17.388  0.00  0.00    +0.000 A 
ATOM      4  N   UNL     1       7.950   6.882  18.441  0.00  0.00    +0.000 N 
ATOM      5  C   UNL     1       8.019   5.548  19.020  0.00  0.00    +0.000 C 
ATOM      6  N   UNL     1       8.624   7.883  18.981  0.00  0.00    +0.000 NA
ENDROOT
BRANCH   1  10
ATOM      7  C   UNL     1      11.052  12.173  19.592  0.00  0.00    +0.000 C 
ATOM      8  C   UNL     1       9.890  11.743  20.520  0.00  0.00    +0.000 C 
ATOM      9  C   UNL     1       9.368  10.354  20.141  0.00  0.00    +0.000 C 
ATOM     10  C   UNL     1       8.889  10.349  18.683  0.00  0.00    +0.000 C 
ATOM     11  C   UNL     1      10.044  10.750  17.744  0.00  0.00    +0.000 C 
ATOM     12  C   UNL     1      10.575  12.141  18.122  0.00  0.00    +0.000 C 
BRANCH   7  13
ATOM     13  C   UNL     1      11.573  13.587  19.938  0.00  0.00    +0.000 C 
BRANCH  13  15
ATOM     14  C   UNL     1      12.089  15.705  18.906  0.00  0.00    +0.000 C 
ATOM     15  N   UNL     1      11.153  14.582  18.940  0.00  0.00    +0.000 NA
ATOM     16  H   UNL     1      11.177  14.151  17.988  0.00  0.00    +0.000 HD
ENDBRANCH  13  15
ENDBRANCH   7  13
ENDBRANCH   1  10
BRANCH   3  17
ATOM     17  C   UNL     1       6.236   6.610  16.481  0.00  0.00    +0.000 C 
BRANCH  17  18
ATOM     18  N   UNL     1       5.158   5.882  17.168  0.00  0.00    +0.000 N 
ATOM     19  C   UNL     1       4.331   6.603  18.128  0.00  0.00    +0.000 C 
ATOM     20  C   UNL     1       5.085   4.504  17.086  0.00  0.00    +0.000 C 
ATOM     21  O   UNL     1       5.944   3.893  16.462  0.00  0.00    +0.000 OA
BRANCH  20  22
ATOM     22  C   UNL     1       4.051   3.681  17.794  0.00  0.00    +0.000 A 
ATOM     23  C   UNL     1       2.794   3.438  17.204  0.00  0.00    +0.000 A 
ATOM     24  N   UNL     1       1.861   2.716  17.879  0.00  0.00    +0.000 NA
ATOM     25  C   UNL     1       2.105   2.237  19.126  0.00  0.00    +0.000 A 
ATOM     26  C   UNL     1       3.343   2.478  19.720  0.00  0.00    +0.000 A 
ATOM     27  N   UNL     1       4.285   3.182  19.038  0.00  0.00    +0.000 NA
ENDBRANCH  20  22
ENDBRANCH  17  18
ENDBRANCH   3  17
TORSDOF 6
ENDMDL
MODEL 2
REMARK VINA RESULT:      -6.9      0.694      1.032
REMARK  Name = 
REMARK  9 active torsions:
REMARK  status: ('A' for Active; 'I' for Inactive)
REMARK    1  A    between atoms: C_1  and  N_2
REMARK    2  A    between atoms: N_2  and  C_3
REMARK    3  A    between atoms: C_3  and  C_4
REMARK    4  A    between atoms: C_7  and  C_8
REMARK    5  A    between atoms: C_10  and  C_11
REMARK    6  A    between atoms: C_11  and  N_12
REMARK    7  A    between atoms: N_12  and  C_13
REMARK    8  A    between atoms: C_14  and  C_16
REMARK    9  A    between atoms: N_22  and  C_23
REMARK                            x       y       z     vdW  Elec       q    Type
REMARK                         _______ _______ _______ _____ _____    ______ ____
ROOT
ATOM      1  C   UNL     1       8.407   9.082  18.353  0.00  0.00    +0.000 A 
ATOM      2  C   UNL     1       7.556   8.758  17.313  0.00  0.00    +0.000 A 
ATOM      3  C   UNL     1       7.316   7.400  17.442  0.00  0.00    +0.000 A 
ATOM      4  N   UNL     1       8.017   6.962  18.529  0.00  0.00    +0.000 N 
ATOM      5  C   UNL     1       8.069   5.644  19.144  0.00  0.00    +0.000 C 
ATOM      6  N   UNL     1       8.676   7.977  19.062  0.00  0.00    +0.000 NA
ENDROOT
BRANCH   1  10
ATOM      7  C   UNL     1      11.094  12.284  19.615  0.00  0.00    +0.000 C 
ATOM      8  C   UNL     1       9.918  11.869  20.533  0.00  0.00    +0.000 C 
ATOM      9  C   UNL     1       9.406  10.471  20.173  0.00  0.00    +0.000 C 
ATOM     10  C   UNL     1       8.952  10.435  18.707  0.00  0.00    +0.000 C 
ATOM     11  C   UNL     1      10.122  10.820  17.780  0.00  0.00    +0.000 C 
ATOM     12  C   UNL     1      10.642  12.220  18.138  0.00  0.00    +0.000 C 
BRANCH   7  13
ATOM     13  C   UNL     1      11.605  13.707  19.940  0.00  0.00    +0.000 C 
BRANCH  13  15
ATOM     14  C   UNL     1      10.108  15.569  19.611  0.00  0.00    +0.000 C 
ATOM     15  N   UNL     1      11.101  14.700  18.980  0.00  0.00    +0.000 NA
ATOM     16  H   UNL     1      11.885  15.321  18.678  0.00  0.00    +0.000 HD
ENDBRANCH  13  15
ENDBRANCH   7  13
ENDBRANCH   1  10
BRANCH   3  17
ATOM     17  C   UNL     1       6.363   6.639  16.525  0.00  0.00    +0.000 C 
BRANCH  17  18
ATOM     18  N   UNL     1       5.272   5.918  17.199  0.00  0.00    +0.000 N 
ATOM     19  C   UNL     1       4.367   6.670  18.059  0.00  0.00    +0.000 C 
ATOM     20  C   UNL     1       5.253   4.536  17.209  0.00  0.00    +0.000 C 
ATOM     21  O   UNL     1       6.167   3.918  16.678  0.00  0.00    +0.000 OA
BRANCH  20  22
ATOM     22  C   UNL     1       4.208   3.723  17.913  0.00  0.00    +0.000 A 
ATOM     23  C   UNL     1       4.437   3.220  19.210  0.00  0.00    +0.000 A 
ATOM     24  N   UNL     1       3.487   2.459  19.816  0.00  0.00    +0.000 NA
ATOM     25  C   UNL     1       2.324   2.150  19.188  0.00  0.00    +0.000 A 
ATOM     26  C   UNL     1       2.092   2.637  17.902  0.00  0.00    +0.000 A 
ATOM     27  N   UNL     1       3.031   3.416  17.303  0.00  0.00    +0.000 NA
ENDBRANCH  20  22
ENDBRANCH  17  18
ENDBRANCH   3  17
TORSDOF 6
ENDMDL
MODEL 3
REMARK VINA RESULT:      -6.8      0.845      1.492
REMARK  Name = 
REMARK  9 active torsions:
REMARK  status: ('A' for Active; 'I' for Inactive)
REMARK    1  A    between atoms: C_1  and  N_2
REMARK    2  A    between atoms: N_2  and  C_3
REMARK    3  A    between atoms: C_3  and  C_4
REMARK    4  A    between atoms: C_7  and  C_8
REMARK    5  A    between atoms: C_10  and  C_11
REMARK    6  A    between atoms: C_11  and  N_12
REMARK    7  A    between atoms: N_12  and  C_13
REMARK    8  A    between atoms: C_14  and  C_16
REMARK    9  A    between atoms: N_22  and  C_23
REMARK                            x       y       z     vdW  Elec       q    Type
REMARK                         _______ _______ _______ _____ _____    ______ ____
ROOT
ATOM      1  C   UNL     1       8.371   8.769  18.206  0.00  0.00    +0.000 A 
ATOM      2  C   UNL     1       7.387   8.575  17.254  0.00  0.00    +0.000 A 
ATOM      3  C   UNL     1       6.986   7.257  17.403  0.00  0.00    +0.000 A 
ATOM      4  N   UNL     1       7.727   6.715  18.414  0.00  0.00    +0.000 N 
ATOM      5  C   UNL     1       7.666   5.392  19.017  0.00  0.00    +0.000 C 
ATOM      6  N   UNL     1       8.562   7.628  18.882  0.00  0.00    +0.000 NA
ENDROOT
BRANCH   1  10
ATOM      7  C   UNL     1       9.362  12.780  19.618  0.00  0.00    +0.000 C 
ATOM      8  C   UNL     1       9.263  12.511  18.097  0.00  0.00    +0.000 C 
ATOM      9  C   UNL     1       8.463  11.235  17.815  0.00  0.00    +0.000 C 
ATOM     10  C   UNL     1       9.120  10.034  18.508  0.00  0.00    +0.000 C 
ATOM     11  C   UNL     1       9.201  10.278  20.028  0.00  0.00    +0.000 C 
ATOM     12  C   UNL     1      10.001  11.558  20.317  0.00  0.00    +0.000 C 
BRANCH   7  13
ATOM     13  C   UNL     1      10.194  14.047  19.925  0.00  0.00    +0.000 C 
BRANCH  13  15
ATOM     14  C   UNL     1      12.255  15.193  19.416  0.00  0.00    +0.000 C 
ATOM     15  N   UNL     1      11.598  13.890  19.513  0.00  0.00    +0.000 NA
ATOM     16  H   UNL     1      12.116  13.353  20.244  0.00  0.00    +0.000 HD
ENDBRANCH  13  15
ENDBRANCH   7  13
ENDBRANCH   1  10
BRANCH   3  17
ATOM     17  C   UNL     1       5.857   6.641  16.583  0.00  0.00    +0.000 C 
BRANCH  17  18
ATOM     18  N   UNL     1       4.808   5.960  17.357  0.00  0.00    +0.000 N 
ATOM     19  C   UNL     1       4.069   6.724  18.354  0.00  0.00    +0.000 C 
ATOM     20  C   UNL     1       4.691   4.583  17.311  0.00  0.00    +0.000 C 
ATOM     21  O   UNL     1       5.487   3.934  16.644  0.00  0.00    +0.000 OA
BRANCH  20  22
ATOM     22  C   UNL     1       3.685   3.805  18.105  0.00  0.00    +0.000 A 
ATOM     23  C   UNL     1       4.043   3.195  19.324  0.00  0.00    +0.000 A 
ATOM     24  N   UNL     1       3.122   2.468  20.011  0.00  0.00    +0.000 NA
ATOM     25  C   UNL     1       1.862   2.296  19.536  0.00  0.00    +0.000 A 
ATOM     26  C   UNL     1       1.501   2.890  18.327  0.00  0.00    +0.000 A 
ATOM     27  N   UNL     1       2.414   3.635  17.650  0.00  0.00    +0.000 NA
ENDBRANCH  20  22
ENDBRANCH  17  18
ENDBRANCH   3  17
TORSDOF 6
ENDMDL
MODEL 4
REMARK VINA RESULT:      -6.8      5.659      9.615
REMARK  Name = 
REMARK  9 active torsions:
REMARK  status: ('A' for Active; 'I' for Inactive)
REMARK    1  A    between atoms: C_1  and  N_2
REMARK    2  A    between atoms: N_2  and  C_3
REMARK    3  A    between atoms: C_3  and  C_4
REMARK    4  A    between atoms: C_7  and  C_8
REMARK    5  A    between atoms: C_10  and  C_11
REMARK    6  A    between atoms: C_11  and  N_12
REMARK    7  A    between atoms: N_12  and  C_13
REMARK    8  A    between atoms: C_14  and  C_16
REMARK    9  A    between atoms: N_22  and  C_23
REMARK                            x       y       z     vdW  Elec       q    Type
REMARK                         _______ _______ _______ _____ _____    ______ ____
ROOT
ATOM      1  C   UNL     1       2.701   7.477  18.642  0.00  0.00    +0.000 A 
ATOM      2  C   UNL     1       2.116   8.533  17.969  0.00  0.00    +0.000 A 
ATOM      3  C   UNL     1       1.286   9.146  18.894  0.00  0.00    +0.000 A 
ATOM      4  N   UNL     1       1.395   8.450  20.065  0.00  0.00    +0.000 N 
ATOM      5  C   UNL     1       0.792   8.702  21.365  0.00  0.00    +0.000 C 
ATOM      6  N   UNL     1       2.239   7.445  19.899  0.00  0.00    +0.000 NA
ENDROOT
BRANCH   1  10
ATOM      7  C   UNL     1       4.843   4.680  16.062  0.00  0.00    +0.000 C 
ATOM      8  C   UNL     1       4.131   4.154  17.332  0.00  0.00    +0.000 C 
ATOM      9  C   UNL     1       3.072   5.147  17.821  0.00  0.00    +0.000 C 
ATOM     10  C   UNL     1       3.719   6.505  18.120  0.00  0.00    +0.000 C 
ATOM     11  C   UNL     1       4.409   7.054  16.856  0.00  0.00    +0.000 C 
ATOM     12  C   UNL     1       5.471   6.061  16.359  0.00  0.00    +0.000 C 
BRANCH   7  13
ATOM     13  C   UNL     1       5.938   3.706  15.570  0.00  0.00    +0.000 C 
BRANCH  13  15
ATOM     14  C   UNL     1       6.240   3.773  13.178  0.00  0.00    +0.000 C 
ATOM     15  N   UNL     1       6.720   4.279  14.463  0.00  0.00    +0.000 NA
ATOM     16  H   UNL     1       6.584   5.315  14.442  0.00  0.00    +0.000 HD
ENDBRANCH  13  15
ENDBRANCH   7  13
ENDBRANCH   1  10
BRANCH   3  17
ATOM     17  C   UNL     1       0.492  10.410  18.582  0.00  0.00    +0.000 C 
BRANCH  17  18
ATOM     18  N   UNL     1       0.815  11.584  19.407  0.00  0.00    +0.000 N 
ATOM     19  C   UNL     1      -0.153  12.024  20.403  0.00  0.00    +0.000 C 
ATOM     20  C   UNL     1       1.893  12.387  19.083  0.00  0.00    +0.000 C 
ATOM     21  O   UNL     1       2.557  12.129  18.087  0.00  0.00    +0.000 OA
BRANCH  20  22
ATOM     22  C   UNL     1       2.262  13.628  19.838  0.00  0.00    +0.000 A 
ATOM     23  C   UNL     1       2.020  14.905  19.292  0.00  0.00    +0.000 A 
ATOM     24  N   UNL     1       2.393  16.016  19.982  0.00  0.00    +0.000 NA
ATOM     25  C   UNL     1       3.018  15.924  21.183  0.00  0.00    +0.000 A 
ATOM     26  C   UNL     1       3.269  14.665  21.727  0.00  0.00    +0.000 A 
ATOM     27  N   UNL     1       2.877  13.554  21.050  0.00  0.00    +0.000 NA
ENDBRANCH  20  22
ENDBRANCH  17  18
ENDBRANCH   3  17
TORSDOF 6
ENDMDL
MODEL 5
REMARK VINA RESULT:      -6.8      5.495      7.883
REMARK  Name = 
REMARK  9 active torsions:
REMARK  status: ('A' for Active; 'I' for Inactive)
REMARK    1  A    between atoms: C_1  and  N_2
REMARK    2  A    between atoms: N_2  and  C_3
REMARK    3  A    between atoms: C_3  and  C_4
REMARK    4  A    between atoms: C_7  and  C_8
REMARK    5  A    between atoms: C_10  and  C_11
REMARK    6  A    between atoms: C_11  and  N_12
REMARK    7  A    between atoms: N_12  and  C_13
REMARK    8  A    between atoms: C_14  and  C_16
REMARK    9  A    between atoms: N_22  and  C_23
REMARK                            x       y       z     vdW  Elec       q    Type
REMARK                         _______ _______ _______ _____ _____    ______ ____
ROOT
ATOM      1  C   UNL     1       2.158   6.734  20.253  0.00  0.00    +0.000 A 
ATOM      2  C   UNL     1       3.247   6.108  19.676  0.00  0.00    +0.000 A 
ATOM      3  C   UNL     1       3.125   4.770  20.015  0.00  0.00    +0.000 A 
ATOM      4  N   UNL     1       1.995   4.641  20.770  0.00  0.00    +0.000 N 
ATOM      5  C   UNL     1       1.371   3.451  21.329  0.00  0.00    +0.000 C 
ATOM      6  N   UNL     1       1.427   5.827  20.915  0.00  0.00    +0.000 NA
ENDROOT
BRANCH   1  10
ATOM      7  C   UNL     1      -0.026  10.417  19.398  0.00  0.00    +0.000 C 
ATOM      8  C   UNL     1       1.279  10.108  18.624  0.00  0.00    +0.000 C 
ATOM      9  C   UNL     1       1.623   8.617  18.700  0.00  0.00    +0.000 C 
ATOM     10  C   UNL     1       1.778   8.184  20.164  0.00  0.00    +0.000 C 
ATOM     11  C   UNL     1       0.475   8.462  20.940  0.00  0.00    +0.000 C 
ATOM     12  C   UNL     1       0.123   9.955  20.865  0.00  0.00    +0.000 C 
BRANCH   7  13
ATOM     13  C   UNL     1      -0.374  11.923  19.360  0.00  0.00    +0.000 C 
BRANCH  13  15
ATOM     14  C   UNL     1      -2.126  11.479  17.763  0.00  0.00    +0.000 C 
ATOM     15  N   UNL     1      -1.787  12.148  19.018  0.00  0.00    +0.000 NA
ATOM     16  H   UNL     1      -2.395  11.720  19.753  0.00  0.00    +0.000 HD
ENDBRANCH  13  15
ENDBRANCH   7  13
ENDBRANCH   1  10
BRANCH   3  17
ATOM     17  C   UNL     1       4.094   3.702  19.520  0.00  0.00    +0.000 C 
BRANCH  17  18
ATOM     18  N   UNL     1       4.515   3.825  18.116  0.00  0.00    +0.000 N 
ATOM     19  C   UNL     1       3.737   3.139  17.093  0.00  0.00    +0.000 C 
ATOM     20  C   UNL     1       5.745   4.374  17.803  0.00  0.00    +0.000 C 
ATOM     21  O   UNL     1       6.492   4.728  18.706  0.00  0.00    +0.000 OA
BRANCH  20  22
ATOM     22  C   UNL     1       6.272   4.492  16.405  0.00  0.00    +0.000 A 
ATOM     23  C   UNL     1       7.278   5.427  16.090  0.00  0.00    +0.000 A 
ATOM     24  N   UNL     1       7.719   5.538  14.808  0.00  0.00    +0.000 NA
ATOM     25  C   UNL     1       7.193   4.779  13.813  0.00  0.00    +0.000 A 
ATOM     26  C   UNL     1       6.192   3.856  14.115  0.00  0.00    +0.000 A 
ATOM     27  N   UNL     1       5.766   3.728  15.399  0.00  0.00    +0.000 NA
ENDBRANCH  20  22
ENDBRANCH  17  18
ENDBRANCH   3  17
TORSDOF 6
ENDMDL
MODEL 6
REMARK VINA RESULT:      -6.7      5.871      7.603
REMARK  Name = 
REMARK  9 active torsions:
REMARK  status: ('A' for Active; 'I' for Inactive)
REMARK    1  A    between atoms: C_1  and  N_2
REMARK    2  A    between atoms: N_2  and  C_3
REMARK    3  A    between atoms: C_3  and  C_4
REMARK    4  A    between atoms: C_7  and  C_8
REMARK    5  A    between atoms: C_10  and  C_11
REMARK    6  A    between atoms: C_11  and  N_12
REMARK    7  A    between atoms: N_12  and  C_13
REMARK    8  A    between atoms: C_14  and  C_16
REMARK    9  A    between atoms: N_22  and  C_23
REMARK                            x       y       z     vdW  Elec       q    Type
REMARK                         _______ _______ _______ _____ _____    ______ ____
ROOT
ATOM      1  C   UNL     1       2.645   6.458  19.308  0.00  0.00    +0.000 A 
ATOM      2  C   UNL     1       3.806   6.240  18.591  0.00  0.00    +0.000 A 
ATOM      3  C   UNL     1       4.255   4.991  18.987  0.00  0.00    +0.000 A 
ATOM      4  N   UNL     1       3.370   4.512  19.910  0.00  0.00    +0.000 N 
ATOM      5  C   UNL     1       3.332   3.229  20.596  0.00  0.00    +0.000 C 
ATOM      6  N   UNL     1       2.413   5.405  20.102  0.00  0.00    +0.000 NA
ENDROOT
BRANCH   1  10
ATOM      7  C   UNL     1       1.070  10.524  19.557  0.00  0.00    +0.000 C 
ATOM      8  C   UNL     1       0.549   9.443  20.536  0.00  0.00    +0.000 C 
ATOM      9  C   UNL     1       1.522   8.263  20.621  0.00  0.00    +0.000 C 
ATOM     10  C   UNL     1       1.726   7.644  19.232  0.00  0.00    +0.000 C 
ATOM     11  C   UNL     1       2.270   8.703  18.254  0.00  0.00    +0.000 C 
ATOM     12  C   UNL     1       1.300   9.890  18.165  0.00  0.00    +0.000 C 
BRANCH   7  13
ATOM     13  C   UNL     1       0.086  11.709  19.431  0.00  0.00    +0.000 C 
BRANCH  13  15
ATOM     14  C   UNL     1      -2.147  11.397  18.574  0.00  0.00    +0.000 C 
ATOM     15  N   UNL     1      -1.292  11.310  19.757  0.00  0.00    +0.000 NA
ATOM     16  H   UNL     1      -1.303  10.309  20.055  0.00  0.00    +0.000 HD
ENDBRANCH  13  15
ENDBRANCH   7  13
ENDBRANCH   1  10
BRANCH   3  17
ATOM     17  C   UNL     1       5.489   4.328  18.384  0.00  0.00    +0.000 C 
BRANCH  17  18
ATOM     18  N   UNL     1       5.560   4.333  16.915  0.00  0.00    +0.000 N 
ATOM     19  C   UNL     1       4.423   3.822  16.160  0.00  0.00    +0.000 C 
ATOM     20  C   UNL     1       6.759   4.589  16.276  0.00  0.00    +0.000 C 
ATOM     21  O   UNL     1       7.767   4.782  16.945  0.00  0.00    +0.000 OA
BRANCH  20  22
ATOM     22  C   UNL     1       6.932   4.565  14.787  0.00  0.00    +0.000 A 
ATOM     23  C   UNL     1       6.221   3.642  13.994  0.00  0.00    +0.000 A 
ATOM     24  N   UNL     1       6.418   3.618  12.648  0.00  0.00    +0.000 NA
ATOM     25  C   UNL     1       7.305   4.453  12.050  0.00  0.00    +0.000 A 
ATOM     26  C   UNL     1       8.018   5.364  12.828  0.00  0.00    +0.000 A 
ATOM     27  N   UNL     1       7.807   5.404  14.170  0.00  0.00    +0.000 NA
ENDBRANCH  20  22
ENDBRANCH  17  18
ENDBRANCH   3  17
TORSDOF 6
ENDMDL
MODEL 7
REMARK VINA RESULT:      -6.7      1.555      1.914
REMARK  Name = 
REMARK  9 active torsions:
REMARK  status: ('A' for Active; 'I' for Inactive)
REMARK    1  A    between atoms: C_1  and  N_2
REMARK    2  A    between atoms: N_2  and  C_3
REMARK    3  A    between atoms: C_3  and  C_4
REMARK    4  A    between atoms: C_7  and  C_8
REMARK    5  A    between atoms: C_10  and  C_11
REMARK    6  A    between atoms: C_11  and  N_12
REMARK    7  A    between atoms: N_12  and  C_13
REMARK    8  A    between atoms: C_14  and  C_16
REMARK    9  A    between atoms: N_22  and  C_23
REMARK                            x       y       z     vdW  Elec       q    Type
REMARK                         _______ _______ _______ _____ _____    ______ ____
ROOT
ATOM      1  C   UNL     1       8.386   8.843  18.137  0.00  0.00    +0.000 A 
ATOM      2  C   UNL     1       7.435   8.488  17.199  0.00  0.00    +0.000 A 
ATOM      3  C   UNL     1       7.115   7.170  17.478  0.00  0.00    +0.000 A 
ATOM      4  N   UNL     1       7.869   6.784  18.549  0.00  0.00    +0.000 N 
ATOM      5  C   UNL     1       7.880   5.528  19.285  0.00  0.00    +0.000 C 
ATOM      6  N   UNL     1       8.635   7.792  18.931  0.00  0.00    +0.000 NA
ENDROOT
BRANCH   1  10
ATOM      7  C   UNL     1       9.190  12.955  19.366  0.00  0.00    +0.000 C 
ATOM      8  C   UNL     1       8.887  12.649  17.879  0.00  0.00    +0.000 C 
ATOM      9  C   UNL     1       8.180  11.299  17.728  0.00  0.00    +0.000 C 
ATOM     10  C   UNL     1       9.047  10.179  18.317  0.00  0.00    +0.000 C 
ATOM     11  C   UNL     1       9.334  10.457  19.806  0.00  0.00    +0.000 C 
ATOM     12  C   UNL     1      10.041  11.812  19.964  0.00  0.00    +0.000 C 
BRANCH   7  13
ATOM     13  C   UNL     1       9.933  14.300  19.538  0.00  0.00    +0.000 C 
BRANCH  13  15
ATOM     14  C   UNL     1      12.113  15.303  19.788  0.00  0.00    +0.000 C 
ATOM     15  N   UNL     1      11.367  14.173  19.236  0.00  0.00    +0.000 NA
ATOM     16  H   UNL     1      11.745  13.316  19.701  0.00  0.00    +0.000 HD
ENDBRANCH  13  15
ENDBRANCH   7  13
ENDBRANCH   1  10
BRANCH   3  17
ATOM     17  C   UNL     1       6.044   6.400  16.712  0.00  0.00    +0.000 C 
BRANCH  17  18
ATOM     18  N   UNL     1       5.161   5.555  17.530  0.00  0.00    +0.000 N 
ATOM     19  C   UNL     1       5.423   4.123  17.587  0.00  0.00    +0.000 C 
ATOM     20  C   UNL     1       3.978   6.065  18.034  0.00  0.00    +0.000 C 
ATOM     21  O   UNL     1       3.660   7.218  17.768  0.00  0.00    +0.000 OA
BRANCH  20  22
ATOM     22  C   UNL     1       2.998   5.261  18.833  0.00  0.00    +0.000 A 
ATOM     23  C   UNL     1       1.978   4.526  18.196  0.00  0.00    +0.000 A 
ATOM     24  N   UNL     1       1.080   3.830  18.944  0.00  0.00    +0.000 NA
ATOM     25  C   UNL     1       1.131   3.843  20.300  0.00  0.00    +0.000 A 
ATOM     26  C   UNL     1       2.133   4.573  20.939  0.00  0.00    +0.000 A 
ATOM     27  N   UNL     1       3.043   5.252  20.194  0.00  0.00    +0.000 NA
ENDBRANCH  20  22
ENDBRANCH  17  18
ENDBRANCH   3  17
TORSDOF 6
ENDMDL
MODEL 8
REMARK VINA RESULT:      -6.7      5.631      7.744
REMARK  Name = 
REMARK  9 active torsions:
REMARK  status: ('A' for Active; 'I' for Inactive)
REMARK    1  A    between atoms: C_1  and  N_2
REMARK    2  A    between atoms: N_2  and  C_3
REMARK    3  A    between atoms: C_3  and  C_4
REMARK    4  A    between atoms: C_7  and  C_8
REMARK    5  A    between atoms: C_10  and  C_11
REMARK    6  A    between atoms: C_11  and  N_12
REMARK    7  A    between atoms: N_12  and  C_13
REMARK    8  A    between atoms: C_14  and  C_16
REMARK    9  A    between atoms: N_22  and  C_23
REMARK                            x       y       z     vdW  Elec       q    Type
REMARK                         _______ _______ _______ _____ _____    ______ ____
ROOT
ATOM      1  C   UNL     1       2.358   6.689  20.017  0.00  0.00    +0.000 A 
ATOM      2  C   UNL     1       3.312   5.961  19.332  0.00  0.00    +0.000 A 
ATOM      3  C   UNL     1       3.237   4.677  19.847  0.00  0.00    +0.000 A 
ATOM      4  N   UNL     1       2.263   4.677  20.804  0.00  0.00    +0.000 N 
ATOM      5  C   UNL     1       1.736   3.583  21.607  0.00  0.00    +0.000 C 
ATOM      6  N   UNL     1       1.749   5.892  20.905  0.00  0.00    +0.000 NA
ENDROOT
BRANCH   1  10
ATOM      7  C   UNL     1       0.200  10.317  18.898  0.00  0.00    +0.000 C 
ATOM      8  C   UNL     1       1.503   9.943  18.149  0.00  0.00    +0.000 C 
ATOM      9  C   UNL     1       1.836   8.459  18.332  0.00  0.00    +0.000 C 
ATOM     10  C   UNL     1       1.988   8.131  19.824  0.00  0.00    +0.000 C 
ATOM     11  C   UNL     1       0.688   8.474  20.577  0.00  0.00    +0.000 C 
ATOM     12  C   UNL     1       0.347   9.960  20.395  0.00  0.00    +0.000 C 
BRANCH   7  13
ATOM     13  C   UNL     1      -0.137  11.819  18.752  0.00  0.00    +0.000 C 
BRANCH  13  15
ATOM     14  C   UNL     1      -2.095  11.011  17.599  0.00  0.00    +0.000 C 
ATOM     15  N   UNL     1      -1.079  12.061  17.650  0.00  0.00    +0.000 NA
ATOM     16  H   UNL     1      -1.591  12.957  17.820  0.00  0.00    +0.000 HD
ENDBRANCH  13  15
ENDBRANCH   7  13
ENDBRANCH   1  10
BRANCH   3  17
ATOM     17  C   UNL     1       4.083   3.523  19.317  0.00  0.00    +0.000 C 
BRANCH  17  18
ATOM     18  N   UNL     1       5.097   3.886  18.316  0.00  0.00    +0.000 N 
ATOM     19  C   UNL     1       6.323   4.532  18.767  0.00  0.00    +0.000 C 
ATOM     20  C   UNL     1       4.794   3.836  16.968  0.00  0.00    +0.000 C 
ATOM     21  O   UNL     1       3.665   3.515  16.617  0.00  0.00    +0.000 OA
BRANCH  20  22
ATOM     22  C   UNL     1       5.749   4.235  15.884  0.00  0.00    +0.000 A 
ATOM     23  C   UNL     1       6.672   5.282  16.084  0.00  0.00    +0.000 A 
ATOM     24  N   UNL     1       7.507   5.647  15.075  0.00  0.00    +0.000 NA
ATOM     25  C   UNL     1       7.459   5.038  13.864  0.00  0.00    +0.000 A 
ATOM     26  C   UNL     1       6.544   4.007  13.654  0.00  0.00    +0.000 A 
ATOM     27  N   UNL     1       5.723   3.625  14.667  0.00  0.00    +0.000 NA
ENDBRANCH  20  22
ENDBRANCH  17  18
ENDBRANCH   3  17
TORSDOF 6
ENDMDL
MODEL 9
REMARK VINA RESULT:      -6.7      6.677     10.247
REMARK  Name = 
REMARK  9 active torsions:
REMARK  status: ('A' for Active; 'I' for Inactive)
REMARK    1  A    between atoms: C_1  and  N_2
REMARK    2  A    between atoms: N_2  and  C_3
REMARK    3  A    between atoms: C_3  and  C_4
REMARK    4  A    between atoms: C_7  and  C_8
REMARK    5  A    between atoms: C_10  and  C_11
REMARK    6  A    between atoms: C_11  and  N_12
REMARK    7  A    between atoms: N_12  and  C_13
REMARK    8  A    between atoms: C_14  and  C_16
REMARK    9  A    between atoms: N_22  and  C_23
REMARK                            x       y       z     vdW  Elec       q    Type
REMARK                         _______ _______ _______ _____ _____    ______ ____
ROOT
ATOM      1  C   UNL     1       1.688   8.131  19.949  0.00  0.00    +0.000 A 
ATOM      2  C   UNL     1       1.063   9.157  19.266  0.00  0.00    +0.000 A 
ATOM      3  C   UNL     1       0.167   9.709  20.167  0.00  0.00    +0.000 A 
ATOM      4  N   UNL     1       0.278   9.009  21.334  0.00  0.00    +0.000 N 
ATOM      5  C   UNL     1      -0.383   9.210  22.616  0.00  0.00    +0.000 C 
ATOM      6  N   UNL     1       1.186   8.058  21.190  0.00  0.00    +0.000 NA
ENDROOT
BRANCH   1  10
ATOM      7  C   UNL     1       3.845   5.004  17.796  0.00  0.00    +0.000 C 
ATOM      8  C   UNL     1       3.613   4.860  19.321  0.00  0.00    +0.000 C 
ATOM      9  C   UNL     1       2.470   5.763  19.792  0.00  0.00    +0.000 C 
ATOM     10  C   UNL     1       2.780   7.228  19.455  0.00  0.00    +0.000 C 
ATOM     11  C   UNL     1       2.986   7.391  17.936  0.00  0.00    +0.000 C 
ATOM     12  C   UNL     1       4.130   6.485  17.457  0.00  0.00    +0.000 C 
BRANCH   7  13
ATOM     13  C   UNL     1       5.017   4.123  17.306  0.00  0.00    +0.000 C 
BRANCH  13  15
ATOM     14  C   UNL     1       7.348   4.613  17.682  0.00  0.00    +0.000 C 
ATOM     15  N   UNL     1       6.119   4.092  18.279  0.00  0.00    +0.000 NA
ATOM     16  H   UNL     1       5.893   4.722  19.081  0.00  0.00    +0.000 HD
ENDBRANCH  13  15
ENDBRANCH   7  13
ENDBRANCH   1  10
BRANCH   3  17
ATOM     17  C   UNL     1      -0.691  10.926  19.838  0.00  0.00    +0.000 C 
BRANCH  17  18
ATOM     18  N   UNL     1       0.002  12.223  19.881  0.00  0.00    +0.000 N 
ATOM     19  C   UNL     1       0.613  12.646  21.135  0.00  0.00    +0.000 C 
ATOM     20  C   UNL     1      -0.131  13.119  18.836  0.00  0.00    +0.000 C 
ATOM     21  O   UNL     1      -0.854  12.834  17.889  0.00  0.00    +0.000 OA
BRANCH  20  22
ATOM     22  C   UNL     1       0.498  14.479  18.821  0.00  0.00    +0.000 A 
ATOM     23  C   UNL     1      -0.278  15.636  19.040  0.00  0.00    +0.000 A 
ATOM     24  N   UNL     1       0.309  16.861  18.989  0.00  0.00    +0.000 NA
ATOM     25  C   UNL     1       1.630  17.000  18.710  0.00  0.00    +0.000 A 
ATOM     26  C   UNL     1       2.404  15.862  18.484  0.00  0.00    +0.000 A 
ATOM     27  N   UNL     1       1.824  14.635  18.556  0.00  0.00    +0.000 NA
ENDBRANCH  20  22
ENDBRANCH  17  18
ENDBRANCH   3  17
TORSDOF 6
ENDMDL
