MODEL 1
REMARK VINA RESULT:      -7.8      0.000      0.000
REMARK  Name = 
REMARK  6 active torsions:
REMARK  status: ('A' for Active; 'I' for Inactive)
REMARK    1  A    between atoms: C_1  and  C_2
REMARK    2  A    between atoms: C_5  and  C_6
REMARK    3  A    between atoms: C_6  and  C_7
REMARK    4  A    between atoms: C_6  and  C_11
REMARK    5  A    between atoms: C_7  and  N_8
REMARK    6  A    between atoms: C_12  and  C_13
REMARK                            x       y       z     vdW  Elec       q    Type
REMARK                         _______ _______ _______ _____ _____    ______ ____
ROOT
ATOM      1  C   UNL     1       5.695   4.842  16.093  0.00  0.00    +0.000 A 
ATOM      2  C   UNL     1       4.615   3.940  16.027  0.00  0.00    +0.000 A 
ATOM      3  N   UNL     1       4.557   3.490  14.723  0.00  0.00    +0.000 N 
ATOM      4  C   UNL     1       5.613   3.945  13.985  0.00  0.00    +0.000 A 
ATOM      5  C   UNL     1       5.978   3.645  12.661  0.00  0.00    +0.000 A 
ATOM      6  C   UNL     1       7.135   4.236  12.151  0.00  0.00    +0.000 A 
ATOM      7  C   UNL     1       7.885   5.110  12.922  0.00  0.00    +0.000 A 
ATOM      8  C   UNL     1       7.480   5.424  14.221  0.00  0.00    +0.000 A 
ATOM      9  C   UNL     1       6.335   4.817  14.791  0.00  0.00    +0.000 A 
ATOM     10  H   UNL     1       3.860   2.852  14.370  0.00  0.00    +0.000 HD
ENDROOT
BRANCH   2  11
ATOM     11  C   UNL     1       3.681   3.407  17.047  0.00  0.00    +0.000 A 
ATOM     12  C   UNL     1       2.349   3.824  17.139  0.00  0.00    +0.000 A 
ATOM     13  C   UNL     1       1.535   3.447  18.210  0.00  0.00    +0.000 A 
ATOM     14  C   UNL     1       2.029   2.603  19.196  0.00  0.00    +0.000 A 
ATOM     15  C   UNL     1       3.321   2.103  19.085  0.00  0.00    +0.000 A 
ATOM     16  C   UNL     1       4.139   2.500  18.020  0.00  0.00    +0.000 A 
ENDBRANCH   2  11
BRANCH   1  17
ATOM     17  C   UNL     1       6.096   5.680  17.322  0.00  0.00    +0.000 C 
BRANCH  17  22
ATOM     18  C   UNL     1       1.269   7.526  20.116  0.00  0.00    +0.000 C 
ATOM     19  C   UNL     1       2.492   7.037  19.400  0.00  0.00    +0.000 A 
ATOM     20  C   UNL     1       2.804   7.529  18.137  0.00  0.00    +0.000 A 
ATOM     21  C   UNL     1       3.953   7.101  17.469  0.00  0.00    +0.000 A 
ATOM     22  C   UNL     1       4.823   6.152  18.037  0.00  0.00    +0.000 A 
ATOM     23  C   UNL     1       4.473   5.626  19.296  0.00  0.00    +0.000 A 
ATOM     24  C   UNL     1       3.332   6.077  19.974  0.00  0.00    +0.000 A 
ENDBRANCH  17  22
BRANCH  17  25
ATOM     25  C   UNL     1       7.074   4.854  18.170  0.00  0.00    +0.000 C 
BRANCH  25  26
ATOM     26  N   UNL     1       7.788   5.712  19.175  0.00  0.00    +0.000 N 
ATOM     27  O   UNL     1       7.861   5.313  20.343  0.00  0.00    +0.000 OA
ATOM     28  O   UNL     1       8.215   6.798  18.762  0.00  0.00    +0.000 OA
ENDBRANCH  25  26
ENDBRANCH  17  25
ENDBRANCH   1  17
TORSDOF 5
ENDMDL
MODEL 2
REMARK VINA RESULT:      -7.7      0.183      1.318
REMARK  Name = 
REMARK  6 active torsions:
REMARK  status: ('A' for Active; 'I' for Inactive)
REMARK    1  A    between atoms: C_1  and  C_2
REMARK    2  A    between atoms: C_5  and  C_6
REMARK    3  A    between atoms: C_6  and  C_7
REMARK    4  A    between atoms: C_6  and  C_11
REMARK    5  A    between atoms: C_7  and  N_8
REMARK    6  A    between atoms: C_12  and  C_13
REMARK                            x       y       z     vdW  Elec       q    Type
REMARK                         _______ _______ _______ _____ _____    ______ ____
ROOT
ATOM      1  C   UNL     1       5.730   4.840  16.071  0.00  0.00    +0.000 A 
ATOM      2  C   UNL     1       4.653   3.935  16.030  0.00  0.00    +0.000 A 
ATOM      3  N   UNL     1       4.576   3.472  14.731  0.00  0.00    +0.000 N 
ATOM      4  C   UNL     1       5.619   3.924  13.972  0.00  0.00    +0.000 A 
ATOM      5  C   UNL     1       5.964   3.614  12.645  0.00  0.00    +0.000 A 
ATOM      6  C   UNL     1       7.111   4.203  12.112  0.00  0.00    +0.000 A 
ATOM      7  C   UNL     1       7.871   5.087  12.864  0.00  0.00    +0.000 A 
ATOM      8  C   UNL     1       7.485   5.411  14.167  0.00  0.00    +0.000 A 
ATOM      9  C   UNL     1       6.350   4.806  14.759  0.00  0.00    +0.000 A 
ATOM     10  H   UNL     1       3.875   2.829  14.395  0.00  0.00    +0.000 HD
ENDROOT
BRANCH   2  11
ATOM     11  C   UNL     1       3.736   3.408  17.068  0.00  0.00    +0.000 A 
ATOM     12  C   UNL     1       4.110   2.395  17.958  0.00  0.00    +0.000 A 
ATOM     13  C   UNL     1       3.182   1.789  18.809  0.00  0.00    +0.000 A 
ATOM     14  C   UNL     1       1.862   2.218  18.819  0.00  0.00    +0.000 A 
ATOM     15  C   UNL     1       1.482   3.281  18.009  0.00  0.00    +0.000 A 
ATOM     16  C   UNL     1       2.410   3.872  17.143  0.00  0.00    +0.000 A 
ENDBRANCH   2  11
BRANCH   1  17
ATOM     17  C   UNL     1       6.148   5.690  17.286  0.00  0.00    +0.000 C 
BRANCH  17  22
ATOM     18  C   UNL     1       1.279   7.221  20.197  0.00  0.00    +0.000 C 
ATOM     19  C   UNL     1       2.530   6.848  19.458  0.00  0.00    +0.000 A 
ATOM     20  C   UNL     1       3.401   5.906  19.993  0.00  0.00    +0.000 A 
ATOM     21  C   UNL     1       4.556   5.531  19.305  0.00  0.00    +0.000 A 
ATOM     22  C   UNL     1       4.889   6.100  18.060  0.00  0.00    +0.000 A 
ATOM     23  C   UNL     1       4.024   7.087  17.550  0.00  0.00    +0.000 A 
ATOM     24  C   UNL     1       2.851   7.442  18.233  0.00  0.00    +0.000 A 
ENDBRANCH  17  22
BRANCH  17  25
ATOM     25  C   UNL     1       7.200   4.906  18.084  0.00  0.00    +0.000 C 
BRANCH  25  26
ATOM     26  N   UNL     1       7.845   5.765  19.133  0.00  0.00    +0.000 N 
ATOM     27  O   UNL     1       7.883   5.347  20.296  0.00  0.00    +0.000 OA
ATOM     28  O   UNL     1       8.255   6.872  18.758  0.00  0.00    +0.000 OA
ENDBRANCH  25  26
ENDBRANCH  17  25
ENDBRANCH   1  17
TORSDOF 5
ENDMDL
MODEL 3
REMARK VINA RESULT:      -7.7      0.057      1.102
REMARK  Name = 
REMARK  6 active torsions:
REMARK  status: ('A' for Active; 'I' for Inactive)
REMARK    1  A    between atoms: C_1  and  C_2
REMARK    2  A    between atoms: C_5  and  C_6
REMARK    3  A    between atoms: C_6  and  C_7
REMARK    4  A    between atoms: C_6  and  C_11
REMARK    5  A    between atoms: C_7  and  N_8
REMARK    6  A    between atoms: C_12  and  C_13
REMARK                            x       y       z     vdW  Elec       q    Type
REMARK                         _______ _______ _______ _____ _____    ______ ____
ROOT
ATOM      1  C   UNL     1       5.726   4.850  16.087  0.00  0.00    +0.000 A 
ATOM      2  C   UNL     1       4.647   3.946  16.031  0.00  0.00    +0.000 A 
ATOM      3  N   UNL     1       4.583   3.489  14.730  0.00  0.00    +0.000 N 
ATOM      4  C   UNL     1       5.633   3.942  13.983  0.00  0.00    +0.000 A 
ATOM      5  C   UNL     1       5.990   3.637  12.658  0.00  0.00    +0.000 A 
ATOM      6  C   UNL     1       7.143   4.227  12.138  0.00  0.00    +0.000 A 
ATOM      7  C   UNL     1       7.897   5.106  12.901  0.00  0.00    +0.000 A 
ATOM      8  C   UNL     1       7.499   5.426  14.201  0.00  0.00    +0.000 A 
ATOM      9  C   UNL     1       6.358   4.820  14.780  0.00  0.00    +0.000 A 
ATOM     10  H   UNL     1       3.884   2.848  14.385  0.00  0.00    +0.000 HD
ENDROOT
BRANCH   2  11
ATOM     11  C   UNL     1       3.721   3.416  17.059  0.00  0.00    +0.000 A 
ATOM     12  C   UNL     1       2.383   3.817  17.145  0.00  0.00    +0.000 A 
ATOM     13  C   UNL     1       1.575   3.445  18.223  0.00  0.00    +0.000 A 
ATOM     14  C   UNL     1       2.080   2.623  19.221  0.00  0.00    +0.000 A 
ATOM     15  C   UNL     1       3.379   2.138  19.117  0.00  0.00    +0.000 A 
ATOM     16  C   UNL     1       4.191   2.530  18.046  0.00  0.00    +0.000 A 
ENDBRANCH   2  11
BRANCH   1  17
ATOM     17  C   UNL     1       6.133   5.695  17.308  0.00  0.00    +0.000 C 
BRANCH  17  22
ATOM     18  C   UNL     1       1.230   7.391  20.065  0.00  0.00    +0.000 C 
ATOM     19  C   UNL     1       2.489   6.976  19.365  0.00  0.00    +0.000 A 
ATOM     20  C   UNL     1       3.357   6.071  19.967  0.00  0.00    +0.000 A 
ATOM     21  C   UNL     1       4.520   5.658  19.316  0.00  0.00    +0.000 A 
ATOM     22  C   UNL     1       4.865   6.148  18.042  0.00  0.00    +0.000 A 
ATOM     23  C   UNL     1       4.003   7.099  17.462  0.00  0.00    +0.000 A 
ATOM     24  C   UNL     1       2.823   7.493  18.108  0.00  0.00    +0.000 A 
ENDBRANCH  17  22
BRANCH  17  25
ATOM     25  C   UNL     1       7.136   4.884  18.143  0.00  0.00    +0.000 C 
BRANCH  25  26
ATOM     26  N   UNL     1       7.819   5.743  19.167  0.00  0.00    +0.000 N 
ATOM     27  O   UNL     1       8.275   6.835  18.810  0.00  0.00    +0.000 OA
ATOM     28  O   UNL     1       7.920   5.263  20.304  0.00  0.00    +0.000 OA
ENDBRANCH  25  26
ENDBRANCH  17  25
ENDBRANCH   1  17
TORSDOF 5
ENDMDL
MODEL 4
REMARK VINA RESULT:      -7.7      0.171      1.111
REMARK  Name = 
REMARK  6 active torsions:
REMARK  status: ('A' for Active; 'I' for Inactive)
REMARK    1  A    between atoms: C_1  and  C_2
REMARK    2  A    between atoms: C_5  and  C_6
REMARK    3  A    between atoms: C_6  and  C_7
REMARK    4  A    between atoms: C_6  and  C_11
REMARK    5  A    between atoms: C_7  and  N_8
REMARK    6  A    between atoms: C_12  and  C_13
REMARK                            x       y       z     vdW  Elec       q    Type
REMARK                         _______ _______ _______ _____ _____    ______ ____
ROOT
ATOM      1  C   UNL     1       5.715   4.856  16.076  0.00  0.00    +0.000 A 
ATOM      2  C   UNL     1       4.643   3.944  16.031  0.00  0.00    +0.000 A 
ATOM      3  N   UNL     1       4.578   3.476  14.734  0.00  0.00    +0.000 N 
ATOM      4  C   UNL     1       5.623   3.931  13.980  0.00  0.00    +0.000 A 
ATOM      5  C   UNL     1       5.979   3.617  12.657  0.00  0.00    +0.000 A 
ATOM      6  C   UNL     1       7.126   4.211  12.129  0.00  0.00    +0.000 A 
ATOM      7  C   UNL     1       7.875   5.103  12.882  0.00  0.00    +0.000 A 
ATOM      8  C   UNL     1       7.479   5.430  14.181  0.00  0.00    +0.000 A 
ATOM      9  C   UNL     1       6.344   4.820  14.768  0.00  0.00    +0.000 A 
ATOM     10  H   UNL     1       3.883   2.827  14.395  0.00  0.00    +0.000 HD
ENDROOT
BRANCH   2  11
ATOM     11  C   UNL     1       3.724   3.415  17.066  0.00  0.00    +0.000 A 
ATOM     12  C   UNL     1       4.090   2.391  17.946  0.00  0.00    +0.000 A 
ATOM     13  C   UNL     1       3.158   1.785  18.793  0.00  0.00    +0.000 A 
ATOM     14  C   UNL     1       1.841   2.226  18.808  0.00  0.00    +0.000 A 
ATOM     15  C   UNL     1       1.469   3.300  18.008  0.00  0.00    +0.000 A 
ATOM     16  C   UNL     1       2.401   3.890  17.146  0.00  0.00    +0.000 A 
ENDBRANCH   2  11
BRANCH   1  17
ATOM     17  C   UNL     1       6.120   5.713  17.290  0.00  0.00    +0.000 C 
BRANCH  17  22
ATOM     18  C   UNL     1       1.311   7.373  20.228  0.00  0.00    +0.000 C 
ATOM     19  C   UNL     1       2.529   6.932  19.474  0.00  0.00    +0.000 A 
ATOM     20  C   UNL     1       2.822   7.488  18.234  0.00  0.00    +0.000 A 
ATOM     21  C   UNL     1       3.966   7.104  17.533  0.00  0.00    +0.000 A 
ATOM     22  C   UNL     1       4.852   6.137  18.042  0.00  0.00    +0.000 A 
ATOM     23  C   UNL     1       4.522   5.547  19.277  0.00  0.00    +0.000 A 
ATOM     24  C   UNL     1       3.385   5.952  19.991  0.00  0.00    +0.000 A 
ENDBRANCH  17  22
BRANCH  17  25
ATOM     25  C   UNL     1       7.156   4.929  18.110  0.00  0.00    +0.000 C 
BRANCH  25  26
ATOM     26  N   UNL     1       7.809   5.800  19.144  0.00  0.00    +0.000 N 
ATOM     27  O   UNL     1       8.269   6.891  18.789  0.00  0.00    +0.000 OA
ATOM     28  O   UNL     1       7.884   5.330  20.287  0.00  0.00    +0.000 OA
ENDBRANCH  25  26
ENDBRANCH  17  25
ENDBRANCH   1  17
TORSDOF 5
ENDMDL
MODEL 5
REMARK VINA RESULT:      -7.2      0.997      1.461
REMARK  Name = 
REMARK  6 active torsions:
REMARK  status: ('A' for Active; 'I' for Inactive)
REMARK    1  A    between atoms: C_1  and  C_2
REMARK    2  A    between atoms: C_5  and  C_6
REMARK    3  A    between atoms: C_6  and  C_7
REMARK    4  A    between atoms: C_6  and  C_11
REMARK    5  A    between atoms: C_7  and  N_8
REMARK    6  A    between atoms: C_12  and  C_13
REMARK                            x       y       z     vdW  Elec       q    Type
REMARK                         _______ _______ _______ _____ _____    ______ ____
ROOT
ATOM      1  C   UNL     1       5.135   4.990  16.777  0.00  0.00    +0.000 A 
ATOM      2  C   UNL     1       4.103   4.040  16.648  0.00  0.00    +0.000 A 
ATOM      3  N   UNL     1       4.182   3.543  15.362  0.00  0.00    +0.000 N 
ATOM      4  C   UNL     1       5.281   4.018  14.704  0.00  0.00    +0.000 A 
ATOM      5  C   UNL     1       5.777   3.690  13.431  0.00  0.00    +0.000 A 
ATOM      6  C   UNL     1       6.951   4.312  13.004  0.00  0.00    +0.000 A 
ATOM      7  C   UNL     1       7.593   5.244  13.806  0.00  0.00    +0.000 A 
ATOM      8  C   UNL     1       7.059   5.584  15.051  0.00  0.00    +0.000 A 
ATOM      9  C   UNL     1       5.892   4.948  15.538  0.00  0.00    +0.000 A 
ATOM     10  H   UNL     1       3.545   2.864  14.973  0.00  0.00    +0.000 HD
ENDROOT
BRANCH   2  11
ATOM     11  C   UNL     1       3.103   3.502  17.600  0.00  0.00    +0.000 A 
ATOM     12  C   UNL     1       3.362   2.400  18.422  0.00  0.00    +0.000 A 
ATOM     13  C   UNL     1       2.354   1.799  19.180  0.00  0.00    +0.000 A 
ATOM     14  C   UNL     1       1.067   2.318  19.165  0.00  0.00    +0.000 A 
ATOM     15  C   UNL     1       0.800   3.465  18.426  0.00  0.00    +0.000 A 
ATOM     16  C   UNL     1       1.809   4.052  17.652  0.00  0.00    +0.000 A 
ENDBRANCH   2  11
BRANCH   1  17
ATOM     17  C   UNL     1       5.390   5.886  18.003  0.00  0.00    +0.000 C 
BRANCH  17  22
ATOM     18  C   UNL     1       0.654   9.205  19.040  0.00  0.00    +0.000 C 
ATOM     19  C   UNL     1       1.850   8.342  18.772  0.00  0.00    +0.000 A 
ATOM     20  C   UNL     1       2.577   8.501  17.597  0.00  0.00    +0.000 A 
ATOM     21  C   UNL     1       3.707   7.722  17.346  0.00  0.00    +0.000 A 
ATOM     22  C   UNL     1       4.143   6.742  18.258  0.00  0.00    +0.000 A 
ATOM     23  C   UNL     1       3.374   6.558  19.423  0.00  0.00    +0.000 A 
ATOM     24  C   UNL     1       2.253   7.360  19.684  0.00  0.00    +0.000 A 
ENDBRANCH  17  22
BRANCH  17  25
ATOM     25  C   UNL     1       5.838   4.991  19.169  0.00  0.00    +0.000 C 
BRANCH  25  26
ATOM     26  N   UNL     1       7.329   5.022  19.342  0.00  0.00    +0.000 N 
ATOM     27  O   UNL     1       7.791   5.489  20.389  0.00  0.00    +0.000 OA
ATOM     28  O   UNL     1       7.999   4.615  18.383  0.00  0.00    +0.000 OA
ENDBRANCH  25  26
ENDBRANCH  17  25
ENDBRANCH   1  17
TORSDOF 5
ENDMDL
MODEL 6
REMARK VINA RESULT:      -7.0      6.334      9.686
REMARK  Name = 
REMARK  6 active torsions:
REMARK  status: ('A' for Active; 'I' for Inactive)
REMARK    1  A    between atoms: C_1  and  C_2
REMARK    2  A    between atoms: C_5  and  C_6
REMARK    3  A    between atoms: C_6  and  C_7
REMARK    4  A    between atoms: C_6  and  C_11
REMARK    5  A    between atoms: C_7  and  N_8
REMARK    6  A    between atoms: C_12  and  C_13
REMARK                            x       y       z     vdW  Elec       q    Type
REMARK                         _______ _______ _______ _____ _____    ______ ____
ROOT
ATOM      1  C   UNL     1      -0.051  11.819  19.659  0.00  0.00    +0.000 A 
ATOM      2  C   UNL     1      -1.024  12.226  18.726  0.00  0.00    +0.000 A 
ATOM      3  N   UNL     1      -0.683  13.505  18.333  0.00  0.00    +0.000 N 
ATOM      4  C   UNL     1       0.519  13.890  18.856  0.00  0.00    +0.000 A 
ATOM      5  C   UNL     1       1.263  15.061  18.629  0.00  0.00    +0.000 A 
ATOM      6  C   UNL     1       2.490  15.193  19.280  0.00  0.00    +0.000 A 
ATOM      7  C   UNL     1       2.946  14.209  20.144  0.00  0.00    +0.000 A 
ATOM      8  C   UNL     1       2.170  13.073  20.385  0.00  0.00    +0.000 A 
ATOM      9  C   UNL     1       0.938  12.880  19.715  0.00  0.00    +0.000 A 
ATOM     10  H   UNL     1      -1.220  14.066  17.688  0.00  0.00    +0.000 HD
ENDROOT
BRANCH   2  11
ATOM     11  C   UNL     1      -2.187  11.539  18.116  0.00  0.00    +0.000 A 
ATOM     12  C   UNL     1      -2.052  10.597  17.090  0.00  0.00    +0.000 A 
ATOM     13  C   UNL     1      -3.163  10.093  16.408  0.00  0.00    +0.000 A 
ATOM     14  C   UNL     1      -4.442  10.491  16.771  0.00  0.00    +0.000 A 
ATOM     15  C   UNL     1      -4.611  11.359  17.844  0.00  0.00    +0.000 A 
ATOM     16  C   UNL     1      -3.495  11.877  18.511  0.00  0.00    +0.000 A 
ENDBRANCH   2  11
BRANCH   1  17
ATOM     17  C   UNL     1      -0.059  10.500  20.454  0.00  0.00    +0.000 C 
BRANCH  17  22
ATOM     18  C   UNL     1       3.531   6.701  17.771  0.00  0.00    +0.000 C 
ATOM     19  C   UNL     1       2.599   7.664  18.444  0.00  0.00    +0.000 A 
ATOM     20  C   UNL     1       2.194   7.442  19.756  0.00  0.00    +0.000 A 
ATOM     21  C   UNL     1       1.347   8.343  20.403  0.00  0.00    +0.000 A 
ATOM     22  C   UNL     1       0.862   9.494  19.753  0.00  0.00    +0.000 A 
ATOM     23  C   UNL     1       1.242   9.685  18.411  0.00  0.00    +0.000 A 
ATOM     24  C   UNL     1       2.113   8.791  17.772  0.00  0.00    +0.000 A 
ENDBRANCH  17  22
BRANCH  17  25
ATOM     25  C   UNL     1       0.285  10.817  21.918  0.00  0.00    +0.000 C 
BRANCH  25  26
ATOM     26  N   UNL     1      -0.781  10.322  22.851  0.00  0.00    +0.000 N 
ATOM     27  O   UNL     1      -1.680  11.102  23.187  0.00  0.00    +0.000 OA
ATOM     28  O   UNL     1      -0.652   9.161  23.262  0.00  0.00    +0.000 OA
ENDBRANCH  25  26
ENDBRANCH  17  25
ENDBRANCH   1  17
TORSDOF 5
ENDMDL
MODEL 7
REMARK VINA RESULT:      -7.0      6.612      9.908
REMARK  Name = 
REMARK  6 active torsions:
REMARK  status: ('A' for Active; 'I' for Inactive)
REMARK    1  A    between atoms: C_1  and  C_2
REMARK    2  A    between atoms: C_5  and  C_6
REMARK    3  A    between atoms: C_6  and  C_7
REMARK    4  A    between atoms: C_6  and  C_11
REMARK    5  A    between atoms: C_7  and  N_8
REMARK    6  A    between atoms: C_12  and  C_13
REMARK                            x       y       z     vdW  Elec       q    Type
REMARK                         _______ _______ _______ _____ _____    ______ ____
ROOT
ATOM      1  C   UNL     1       0.014  11.985  18.829  0.00  0.00    +0.000 A 
ATOM      2  C   UNL     1       1.194  11.224  18.720  0.00  0.00    +0.000 A 
ATOM      3  N   UNL     1       2.216  12.117  18.465  0.00  0.00    +0.000 N 
ATOM      4  C   UNL     1       1.785  13.412  18.536  0.00  0.00    +0.000 A 
ATOM      5  C   UNL     1       2.517  14.608  18.441  0.00  0.00    +0.000 A 
ATOM      6  C   UNL     1       1.824  15.812  18.577  0.00  0.00    +0.000 A 
ATOM      7  C   UNL     1       0.452  15.824  18.776  0.00  0.00    +0.000 A 
ATOM      8  C   UNL     1      -0.259  14.623  18.827  0.00  0.00    +0.000 A 
ATOM      9  C   UNL     1       0.409  13.379  18.733  0.00  0.00    +0.000 A 
ATOM     10  H   UNL     1       3.178  11.854  18.308  0.00  0.00    +0.000 HD
ENDROOT
BRANCH   2  11
ATOM     11  C   UNL     1       1.484   9.781  18.888  0.00  0.00    +0.000 A 
ATOM     12  C   UNL     1       1.250   9.102  20.089  0.00  0.00    +0.000 A 
ATOM     13  C   UNL     1       1.691   7.791  20.287  0.00  0.00    +0.000 A 
ATOM     14  C   UNL     1       2.341   7.113  19.265  0.00  0.00    +0.000 A 
ATOM     15  C   UNL     1       2.511   7.733  18.032  0.00  0.00    +0.000 A 
ATOM     16  C   UNL     1       2.085   9.054  17.845  0.00  0.00    +0.000 A 
ENDBRANCH   2  11
BRANCH   1  17
ATOM     17  C   UNL     1      -1.408  11.423  19.013  0.00  0.00    +0.000 C 
BRANCH  17  22
ATOM     18  C   UNL     1      -3.568  13.175  24.189  0.00  0.00    +0.000 C 
ATOM     19  C   UNL     1      -3.012  12.747  22.864  0.00  0.00    +0.000 A 
ATOM     20  C   UNL     1      -1.810  12.052  22.803  0.00  0.00    +0.000 A 
ATOM     21  C   UNL     1      -1.293  11.626  21.578  0.00  0.00    +0.000 A 
ATOM     22  C   UNL     1      -1.956  11.895  20.366  0.00  0.00    +0.000 A 
ATOM     23  C   UNL     1      -3.149  12.639  20.435  0.00  0.00    +0.000 A 
ATOM     24  C   UNL     1      -3.678  13.044  21.669  0.00  0.00    +0.000 A 
ENDBRANCH  17  22
BRANCH  17  25
ATOM     25  C   UNL     1      -2.242  11.808  17.782  0.00  0.00    +0.000 C 
BRANCH  25  26
ATOM     26  N   UNL     1      -2.222  10.723  16.745  0.00  0.00    +0.000 N 
ATOM     27  O   UNL     1      -1.772   9.615  17.059  0.00  0.00    +0.000 OA
ATOM     28  O   UNL     1      -2.620  11.038  15.615  0.00  0.00    +0.000 OA
ENDBRANCH  25  26
ENDBRANCH  17  25
ENDBRANCH   1  17
TORSDOF 5
ENDMDL
MODEL 8
REMARK VINA RESULT:      -7.0      6.285      9.582
REMARK  Name = 
REMARK  6 active torsions:
REMARK  status: ('A' for Active; 'I' for Inactive)
REMARK    1  A    between atoms: C_1  and  C_2
REMARK    2  A    between atoms: C_5  and  C_6
REMARK    3  A    between atoms: C_6  and  C_7
REMARK    4  A    between atoms: C_6  and  C_11
REMARK    5  A    between atoms: C_7  and  N_8
REMARK    6  A    between atoms: C_12  and  C_13
REMARK                            x       y       z     vdW  Elec       q    Type
REMARK                         _______ _______ _______ _____ _____    ______ ____
ROOT
ATOM      1  C   UNL     1       0.028  11.877  19.716  0.00  0.00    +0.000 A 
ATOM      2  C   UNL     1      -0.971  12.235  18.789  0.00  0.00    +0.000 A 
ATOM      3  N   UNL     1      -0.654  13.501  18.338  0.00  0.00    +0.000 N 
ATOM      4  C   UNL     1       0.554  13.920  18.817  0.00  0.00    +0.000 A 
ATOM      5  C   UNL     1       1.279  15.089  18.527  0.00  0.00    +0.000 A 
ATOM      6  C   UNL     1       2.519  15.261  19.143  0.00  0.00    +0.000 A 
ATOM      7  C   UNL     1       3.006  14.318  20.035  0.00  0.00    +0.000 A 
ATOM      8  C   UNL     1       2.249  13.184  20.339  0.00  0.00    +0.000 A 
ATOM      9  C   UNL     1       1.005  12.951  19.706  0.00  0.00    +0.000 A 
ATOM     10  H   UNL     1      -1.212  14.029  17.684  0.00  0.00    +0.000 HD
ENDROOT
BRANCH   2  11
ATOM     11  C   UNL     1      -2.139  11.511  18.235  0.00  0.00    +0.000 A 
ATOM     12  C   UNL     1      -2.014  10.522  17.253  0.00  0.00    +0.000 A 
ATOM     13  C   UNL     1      -3.133   9.978  16.616  0.00  0.00    +0.000 A 
ATOM     14  C   UNL     1      -4.409  10.383  16.983  0.00  0.00    +0.000 A 
ATOM     15  C   UNL     1      -4.566  11.299  18.016  0.00  0.00    +0.000 A 
ATOM     16  C   UNL     1      -3.442  11.857  18.637  0.00  0.00    +0.000 A 
ENDBRANCH   2  11
BRANCH   1  17
ATOM     17  C   UNL     1       0.054  10.591  20.563  0.00  0.00    +0.000 C 
BRANCH  17  22
ATOM     18  C   UNL     1       3.284   6.524  17.816  0.00  0.00    +0.000 C 
ATOM     19  C   UNL     1       2.476   7.567  18.528  0.00  0.00    +0.000 A 
ATOM     20  C   UNL     1       2.068   8.713  17.854  0.00  0.00    +0.000 A 
ATOM     21  C   UNL     1       1.295   9.681  18.497  0.00  0.00    +0.000 A 
ATOM     22  C   UNL     1       0.914   9.543  19.845  0.00  0.00    +0.000 A 
ATOM     23  C   UNL     1       1.371   8.401  20.531  0.00  0.00    +0.000 A 
ATOM     24  C   UNL     1       2.127   7.418  19.874  0.00  0.00    +0.000 A 
ENDBRANCH  17  22
BRANCH  17  25
ATOM     25  C   UNL     1       0.497  10.960  21.987  0.00  0.00    +0.000 C 
BRANCH  25  26
ATOM     26  N   UNL     1      -0.442  10.401  23.015  0.00  0.00    +0.000 N 
ATOM     27  O   UNL     1      -0.052   9.466  23.724  0.00  0.00    +0.000 OA
ATOM     28  O   UNL     1      -1.577  10.895  23.046  0.00  0.00    +0.000 OA
ENDBRANCH  25  26
ENDBRANCH  17  25
ENDBRANCH   1  17
TORSDOF 5
ENDMDL
MODEL 9
REMARK VINA RESULT:      -6.9      6.693     10.109
REMARK  Name = 
REMARK  6 active torsions:
REMARK  status: ('A' for Active; 'I' for Inactive)
REMARK    1  A    between atoms: C_1  and  C_2
REMARK    2  A    between atoms: C_5  and  C_6
REMARK    3  A    between atoms: C_6  and  C_7
REMARK    4  A    between atoms: C_6  and  C_11
REMARK    5  A    between atoms: C_7  and  N_8
REMARK    6  A    between atoms: C_12  and  C_13
REMARK                            x       y       z     vdW  Elec       q    Type
REMARK                         _______ _______ _______ _____ _____    ______ ____
ROOT
ATOM      1  C   UNL     1      -0.345  11.936  19.975  0.00  0.00    +0.000 A 
ATOM      2  C   UNL     1      -1.403  12.483  19.224  0.00  0.00    +0.000 A 
ATOM      3  N   UNL     1      -0.999  13.744  18.834  0.00  0.00    +0.000 N 
ATOM      4  C   UNL     1       0.301  13.986  19.175  0.00  0.00    +0.000 A 
ATOM      5  C   UNL     1       1.116  15.093  18.881  0.00  0.00    +0.000 A 
ATOM      6  C   UNL     1       2.436  15.074  19.335  0.00  0.00    +0.000 A 
ATOM      7  C   UNL     1       2.917  14.005  20.076  0.00  0.00    +0.000 A 
ATOM      8  C   UNL     1       2.076  12.935  20.391  0.00  0.00    +0.000 A 
ATOM      9  C   UNL     1       0.743  12.895  19.916  0.00  0.00    +0.000 A 
ATOM     10  H   UNL     1      -1.569  14.388  18.305  0.00  0.00    +0.000 HD
ENDROOT
BRANCH   2  11
ATOM     11  C   UNL     1      -2.709  11.942  18.778  0.00  0.00    +0.000 A 
ATOM     12  C   UNL     1      -2.840  11.122  17.653  0.00  0.00    +0.000 A 
ATOM     13  C   UNL     1      -4.093  10.768  17.146  0.00  0.00    +0.000 A 
ATOM     14  C   UNL     1      -5.249  11.195  17.785  0.00  0.00    +0.000 A 
ATOM     15  C   UNL     1      -5.149  11.939  18.955  0.00  0.00    +0.000 A 
ATOM     16  C   UNL     1      -3.892  12.308  19.448  0.00  0.00    +0.000 A 
ENDBRANCH   2  11
BRANCH   1  17
ATOM     17  C   UNL     1      -0.364  10.581  20.707  0.00  0.00    +0.000 C 
BRANCH  17  22
ATOM     18  C   UNL     1       3.286   6.924  17.910  0.00  0.00    +0.000 C 
ATOM     19  C   UNL     1       2.339   7.849  18.614  0.00  0.00    +0.000 A 
ATOM     20  C   UNL     1       2.060   7.667  19.964  0.00  0.00    +0.000 A 
ATOM     21  C   UNL     1       1.199   8.535  20.638  0.00  0.00    +0.000 A 
ATOM     22  C   UNL     1       0.574   9.611  19.979  0.00  0.00    +0.000 A 
ATOM     23  C   UNL     1       0.828   9.758  18.601  0.00  0.00    +0.000 A 
ATOM     24  C   UNL     1       1.712   8.899  17.934  0.00  0.00    +0.000 A 
ENDBRANCH  17  22
BRANCH  17  25
ATOM     25  C   UNL     1      -0.050  10.830  22.190  0.00  0.00    +0.000 C 
BRANCH  25  26
ATOM     26  N   UNL     1      -0.976  11.852  22.783  0.00  0.00    +0.000 N 
ATOM     27  O   UNL     1      -2.189  11.615  22.789  0.00  0.00    +0.000 OA
ATOM     28  O   UNL     1      -0.450  12.899  23.186  0.00  0.00    +0.000 OA
ENDBRANCH  25  26
ENDBRANCH  17  25
ENDBRANCH   1  17
TORSDOF 5
ENDMDL
