MODEL 1
REMARK VINA RESULT:      -7.2      0.000      0.000
REMARK  Name = 
REMARK  11 active torsions:
REMARK  status: ('A' for Active; 'I' for Inactive)
REMARK    1  A    between atoms: C_1  and  C_2
REMARK    2  A    between atoms: C_2  and  S_3
REMARK    3  A    between atoms: S_3  and  C_6
REMARK    4  A    between atoms: C_13  and  C_14
REMARK    5  A    between atoms: C_14  and  C_15
REMARK    6  A    between atoms: C_14  and  C_16
REMARK    7  A    between atoms: C_14  and  C_17
REMARK    8  A    between atoms: N_18  and  C_19
REMARK    9  A    between atoms: C_19  and  C_20
REMARK   10  A    between atoms: C_20  and  O_21
REMARK   11  A    between atoms: O_21  and  C_22
REMARK                            x       y       z     vdW  Elec       q    Type
REMARK                         _______ _______ _______ _____ _____    ______ ____
ROOT
ATOM      1  C   UNL     1       1.215   9.173  19.335  0.00  0.00    +0.000 A 
ATOM      2  C   UNL     1       1.256   8.340  20.442  0.00  0.00    +0.000 A 
ATOM      3  C   UNL     1       2.043   7.203  20.437  0.00  0.00    +0.000 A 
ATOM      4  C   UNL     1       2.797   6.890  19.290  0.00  0.00    +0.000 A 
ATOM      5  C   UNL     1       2.764   7.712  18.167  0.00  0.00    +0.000 A 
ATOM      6  C   UNL     1       1.961   8.878  18.178  0.00  0.00    +0.000 A 
ATOM      7  N   UNL     1       3.574   7.200  17.178  0.00  0.00    +0.000 NA
ATOM      8  C   UNL     1       4.105   6.073  17.638  0.00  0.00    +0.000 A 
ATOM      9  N   UNL     1       3.655   5.853  18.949  0.00  0.00    +0.000 N 
ENDROOT
BRANCH   8  10
ATOM     10  C   UNL     1       5.120   5.212  16.847  0.00  0.00    +0.000 C 
ATOM     11  C   UNL     1       4.595   3.769  16.742  0.00  0.00    +0.000 C 
ATOM     12  C   UNL     1       5.423   5.753  15.440  0.00  0.00    +0.000 C 
ATOM     13  C   UNL     1       6.494   5.144  17.561  0.00  0.00    +0.000 C 
ENDBRANCH   8  10
BRANCH   1  14
ATOM     14  S   UNL     1       0.112  10.558  19.415  0.00  0.00    +0.000 S 
ATOM     15  O   UNL     1       0.879  11.740  19.056  0.00  0.00    +0.000 OA
ATOM     16  O   UNL     1      -0.556  10.483  20.710  0.00  0.00    +0.000 OA
BRANCH  14  18
ATOM     17  C   UNL     1      -1.778  11.619  17.797  0.00  0.00    +0.000 C 
ATOM     18  C   UNL     1      -1.091  10.307  18.139  0.00  0.00    +0.000 C 
ENDBRANCH  14  18
ENDBRANCH   1  14
BRANCH   9  19
ATOM     19  C   UNL     1       4.018   4.726  19.798  0.00  0.00    +0.000 C 
BRANCH  19  20
ATOM     20  C   UNL     1       2.923   3.760  20.214  0.00  0.00    +0.000 C 
BRANCH  20  21
ATOM     21  O   UNL     1       2.423   2.993  19.130  0.00  0.00    +0.000 OA
BRANCH  21  22
ATOM     22  C   UNL     1       1.083   3.385  18.840  0.00  0.00    +0.000 C 
ATOM     23  F   UNL     1       0.532   4.092  19.853  0.00  0.00    +0.000 F 
ATOM     24  F   UNL     1       1.078   4.148  17.733  0.00  0.00    +0.000 F 
ATOM     25  F   UNL     1       0.341   2.285  18.634  0.00  0.00    +0.000 F 
ENDBRANCH  21  22
ENDBRANCH  20  21
ENDBRANCH  19  20
ENDBRANCH   9  19
TORSDOF 7
ENDMDL
MODEL 2
REMARK VINA RESULT:      -7.2      0.873      1.222
REMARK  Name = 
REMARK  11 active torsions:
REMARK  status: ('A' for Active; 'I' for Inactive)
REMARK    1  A    between atoms: C_1  and  C_2
REMARK    2  A    between atoms: C_2  and  S_3
REMARK    3  A    between atoms: S_3  and  C_6
REMARK    4  A    between atoms: C_13  and  C_14
REMARK    5  A    between atoms: C_14  and  C_15
REMARK    6  A    between atoms: C_14  and  C_16
REMARK    7  A    between atoms: C_14  and  C_17
REMARK    8  A    between atoms: N_18  and  C_19
REMARK    9  A    between atoms: C_19  and  C_20
REMARK   10  A    between atoms: C_20  and  O_21
REMARK   11  A    between atoms: O_21  and  C_22
REMARK                            x       y       z     vdW  Elec       q    Type
REMARK                         _______ _______ _______ _____ _____    ______ ____
ROOT
ATOM      1  C   UNL     1       0.999   9.229  19.578  0.00  0.00    +0.000 A 
ATOM      2  C   UNL     1       1.063   8.375  20.667  0.00  0.00    +0.000 A 
ATOM      3  C   UNL     1       1.870   7.252  20.632  0.00  0.00    +0.000 A 
ATOM      4  C   UNL     1       2.619   6.976  19.472  0.00  0.00    +0.000 A 
ATOM      5  C   UNL     1       2.562   7.820  18.366  0.00  0.00    +0.000 A 
ATOM      6  C   UNL     1       1.738   8.971  18.408  0.00  0.00    +0.000 A 
ATOM      7  N   UNL     1       3.371   7.342  17.361  0.00  0.00    +0.000 NA
ATOM      8  C   UNL     1       3.925   6.215  17.793  0.00  0.00    +0.000 A 
ATOM      9  N   UNL     1       3.491   5.961  19.102  0.00  0.00    +0.000 N 
ENDROOT
BRANCH   8  10
ATOM     10  C   UNL     1       4.948   5.389  16.975  0.00  0.00    +0.000 C 
ATOM     11  C   UNL     1       4.384   3.979  16.727  0.00  0.00    +0.000 C 
ATOM     12  C   UNL     1       5.330   6.033  15.633  0.00  0.00    +0.000 C 
ATOM     13  C   UNL     1       6.286   5.214  17.738  0.00  0.00    +0.000 C 
ENDBRANCH   8  10
BRANCH   1  14
ATOM     14  S   UNL     1      -0.128  10.594  19.696  0.00  0.00    +0.000 S 
ATOM     15  O   UNL     1      -0.269  10.914  21.107  0.00  0.00    +0.000 OA
ATOM     16  O   UNL     1      -1.300  10.233  18.905  0.00  0.00    +0.000 OA
BRANCH  14  18
ATOM     17  C   UNL     1      -0.347  12.996  18.475  0.00  0.00    +0.000 C 
ATOM     18  C   UNL     1       0.678  11.970  18.924  0.00  0.00    +0.000 C 
ENDBRANCH  14  18
ENDBRANCH   1  14
BRANCH   9  19
ATOM     19  C   UNL     1       3.880   4.823  19.925  0.00  0.00    +0.000 C 
BRANCH  19  20
ATOM     20  C   UNL     1       2.797   3.861  20.378  0.00  0.00    +0.000 C 
BRANCH  20  21
ATOM     21  O   UNL     1       2.357   2.998  19.342  0.00  0.00    +0.000 OA
BRANCH  21  22
ATOM     22  C   UNL     1       1.039   3.362  18.938  0.00  0.00    +0.000 C 
ATOM     23  F   UNL     1       0.289   2.280  18.621  0.00  0.00    +0.000 F 
ATOM     24  F   UNL     1       0.437   4.019  19.944  0.00  0.00    +0.000 F 
ATOM     25  F   UNL     1       1.116   4.157  17.860  0.00  0.00    +0.000 F 
ENDBRANCH  21  22
ENDBRANCH  20  21
ENDBRANCH  19  20
ENDBRANCH   9  19
TORSDOF 7
ENDMDL
MODEL 3
REMARK VINA RESULT:      -7.2      1.101      1.701
REMARK  Name = 
REMARK  11 active torsions:
REMARK  status: ('A' for Active; 'I' for Inactive)
REMARK    1  A    between atoms: C_1  and  C_2
REMARK    2  A    between atoms: C_2  and  S_3
REMARK    3  A    between atoms: S_3  and  C_6
REMARK    4  A    between atoms: C_13  and  C_14
REMARK    5  A    between atoms: C_14  and  C_15
REMARK    6  A    between atoms: C_14  and  C_16
REMARK    7  A    between atoms: C_14  and  C_17
REMARK    8  A    between atoms: N_18  and  C_19
REMARK    9  A    between atoms: C_19  and  C_20
REMARK   10  A    between atoms: C_20  and  O_21
REMARK   11  A    between atoms: O_21  and  C_22
REMARK                            x       y       z     vdW  Elec       q    Type
REMARK                         _______ _______ _______ _____ _____    ______ ____
ROOT
ATOM      1  C   UNL     1       1.082   9.400  19.178  0.00  0.00    +0.000 A 
ATOM      2  C   UNL     1       1.113   8.626  20.327  0.00  0.00    +0.000 A 
ATOM      3  C   UNL     1       1.900   7.490  20.388  0.00  0.00    +0.000 A 
ATOM      4  C   UNL     1       2.663   7.117  19.265  0.00  0.00    +0.000 A 
ATOM      5  C   UNL     1       2.639   7.880  18.100  0.00  0.00    +0.000 A 
ATOM      6  C   UNL     1       1.836   9.045  18.044  0.00  0.00    +0.000 A 
ATOM      7  N   UNL     1       3.457   7.317  17.146  0.00  0.00    +0.000 NA
ATOM      8  C   UNL     1       3.983   6.216  17.669  0.00  0.00    +0.000 A 
ATOM      9  N   UNL     1       3.522   6.064  18.985  0.00  0.00    +0.000 N 
ENDROOT
BRANCH   8  10
ATOM     10  C   UNL     1       5.005   5.314  16.932  0.00  0.00    +0.000 C 
ATOM     11  C   UNL     1       6.311   5.253  17.743  0.00  0.00    +0.000 C 
ATOM     12  C   UNL     1       4.494   3.888  16.673  0.00  0.00    +0.000 C 
ATOM     13  C   UNL     1       5.364   5.878  15.534  0.00  0.00    +0.000 C 
ENDBRANCH   8  10
BRANCH   1  14
ATOM     14  S   UNL     1      -0.022  10.788  19.177  0.00  0.00    +0.000 S 
ATOM     15  O   UNL     1      -1.132  10.453  18.300  0.00  0.00    +0.000 OA
ATOM     16  O   UNL     1       0.796  11.967  18.908  0.00  0.00    +0.000 OA
BRANCH  14  18
ATOM     17  C   UNL     1      -0.076  12.111  21.534  0.00  0.00    +0.000 C 
ATOM     18  C   UNL     1      -0.670  10.908  20.821  0.00  0.00    +0.000 C 
ENDBRANCH  14  18
ENDBRANCH   1  14
BRANCH   9  19
ATOM     19  C   UNL     1       3.878   4.983  19.894  0.00  0.00    +0.000 C 
BRANCH  19  20
ATOM     20  C   UNL     1       2.783   4.030  20.338  0.00  0.00    +0.000 C 
BRANCH  20  21
ATOM     21  O   UNL     1       2.396   3.121  19.319  0.00  0.00    +0.000 OA
BRANCH  21  22
ATOM     22  C   UNL     1       1.052   3.383  18.922  0.00  0.00    +0.000 C 
ATOM     23  F   UNL     1       0.383   2.247  18.617  0.00  0.00    +0.000 F 
ATOM     24  F   UNL     1       0.409   4.000  19.928  0.00  0.00    +0.000 F 
ATOM     25  F   UNL     1       1.064   4.176  17.839  0.00  0.00    +0.000 F 
ENDBRANCH  21  22
ENDBRANCH  20  21
ENDBRANCH  19  20
ENDBRANCH   9  19
TORSDOF 7
ENDMDL
MODEL 4
REMARK VINA RESULT:      -7.2      0.404      1.229
REMARK  Name = 
REMARK  11 active torsions:
REMARK  status: ('A' for Active; 'I' for Inactive)
REMARK    1  A    between atoms: C_1  and  C_2
REMARK    2  A    between atoms: C_2  and  S_3
REMARK    3  A    between atoms: S_3  and  C_6
REMARK    4  A    between atoms: C_13  and  C_14
REMARK    5  A    between atoms: C_14  and  C_15
REMARK    6  A    between atoms: C_14  and  C_16
REMARK    7  A    between atoms: C_14  and  C_17
REMARK    8  A    between atoms: N_18  and  C_19
REMARK    9  A    between atoms: C_19  and  C_20
REMARK   10  A    between atoms: C_20  and  O_21
REMARK   11  A    between atoms: O_21  and  C_22
REMARK                            x       y       z     vdW  Elec       q    Type
REMARK                         _______ _______ _______ _____ _____    ______ ____
ROOT
ATOM      1  C   UNL     1       1.451   8.839  19.374  0.00  0.00    +0.000 A 
ATOM      2  C   UNL     1       1.483   7.934  20.423  0.00  0.00    +0.000 A 
ATOM      3  C   UNL     1       2.265   6.795  20.346  0.00  0.00    +0.000 A 
ATOM      4  C   UNL     1       3.021   6.555  19.182  0.00  0.00    +0.000 A 
ATOM      5  C   UNL     1       2.997   7.450  18.116  0.00  0.00    +0.000 A 
ATOM      6  C   UNL     1       2.199   8.618  18.202  0.00  0.00    +0.000 A 
ATOM      7  N   UNL     1       3.808   7.001  17.098  0.00  0.00    +0.000 NA
ATOM      8  C   UNL     1       4.330   5.843  17.484  0.00  0.00    +0.000 A 
ATOM      9  N   UNL     1       3.874   5.539  18.775  0.00  0.00    +0.000 N 
ENDROOT
BRANCH   8  10
ATOM     10  C   UNL     1       5.344   5.031  16.641  0.00  0.00    +0.000 C 
ATOM     11  C   UNL     1       6.728   5.087  17.312  0.00  0.00    +0.000 C 
ATOM     12  C   UNL     1       4.935   3.565  16.429  0.00  0.00    +0.000 C 
ATOM     13  C   UNL     1       5.507   5.618  15.216  0.00  0.00    +0.000 C 
ENDBRANCH   8  10
BRANCH   1  14
ATOM     14  S   UNL     1       0.355  10.222  19.542  0.00  0.00    +0.000 S 
ATOM     15  O   UNL     1       1.169  11.425  19.492  0.00  0.00    +0.000 OA
ATOM     16  O   UNL     1      -0.482   9.950  20.707  0.00  0.00    +0.000 OA
BRANCH  14  18
ATOM     17  C   UNL     1      -1.706  11.328  18.185  0.00  0.00    +0.000 C 
ATOM     18  C   UNL     1      -0.668  10.222  18.096  0.00  0.00    +0.000 C 
ENDBRANCH  14  18
ENDBRANCH   1  14
BRANCH   9  19
ATOM     19  C   UNL     1       4.228   4.356  19.549  0.00  0.00    +0.000 C 
BRANCH  19  20
ATOM     20  C   UNL     1       3.115   3.411  19.964  0.00  0.00    +0.000 C 
BRANCH  20  21
ATOM     21  O   UNL     1       2.488   2.778  18.860  0.00  0.00    +0.000 OA
BRANCH  21  22
ATOM     22  C   UNL     1       1.143   3.234  18.742  0.00  0.00    +0.000 C 
ATOM     23  F   UNL     1       0.284   2.219  18.491  0.00  0.00    +0.000 F 
ATOM     24  F   UNL     1       0.777   3.828  19.891  0.00  0.00    +0.000 F 
ATOM     25  F   UNL     1       1.068   4.116  17.733  0.00  0.00    +0.000 F 
ENDBRANCH  21  22
ENDBRANCH  20  21
ENDBRANCH  19  20
ENDBRANCH   9  19
TORSDOF 7
ENDMDL
MODEL 5
REMARK VINA RESULT:      -7.2      1.018      1.534
REMARK  Name = 
REMARK  11 active torsions:
REMARK  status: ('A' for Active; 'I' for Inactive)
REMARK    1  A    between atoms: C_1  and  C_2
REMARK    2  A    between atoms: C_2  and  S_3
REMARK    3  A    between atoms: S_3  and  C_6
REMARK    4  A    between atoms: C_13  and  C_14
REMARK    5  A    between atoms: C_14  and  C_15
REMARK    6  A    between atoms: C_14  and  C_16
REMARK    7  A    between atoms: C_14  and  C_17
REMARK    8  A    between atoms: N_18  and  C_19
REMARK    9  A    between atoms: C_19  and  C_20
REMARK   10  A    between atoms: C_20  and  O_21
REMARK   11  A    between atoms: O_21  and  C_22
REMARK                            x       y       z     vdW  Elec       q    Type
REMARK                         _______ _______ _______ _____ _____    ______ ____
ROOT
ATOM      1  C   UNL     1       1.309   9.010  19.264  0.00  0.00    +0.000 A 
ATOM      2  C   UNL     1       1.345   8.150  20.350  0.00  0.00    +0.000 A 
ATOM      3  C   UNL     1       2.147   7.023  20.327  0.00  0.00    +0.000 A 
ATOM      4  C   UNL     1       2.920   6.748  19.182  0.00  0.00    +0.000 A 
ATOM      5  C   UNL     1       2.892   7.598  18.080  0.00  0.00    +0.000 A 
ATOM      6  C   UNL     1       2.073   8.754  18.109  0.00  0.00    +0.000 A 
ATOM      7  N   UNL     1       3.721   7.122  17.090  0.00  0.00    +0.000 NA
ATOM      8  C   UNL     1       4.259   5.990  17.529  0.00  0.00    +0.000 A 
ATOM      9  N   UNL     1       3.794   5.731  18.827  0.00  0.00    +0.000 N 
ENDROOT
BRANCH   8  10
ATOM     10  C   UNL     1       5.296   5.162  16.730  0.00  0.00    +0.000 C 
ATOM     11  C   UNL     1       6.650   5.195  17.461  0.00  0.00    +0.000 C 
ATOM     12  C   UNL     1       4.873   3.702  16.499  0.00  0.00    +0.000 C 
ATOM     13  C   UNL     1       5.530   5.746  15.314  0.00  0.00    +0.000 C 
ENDBRANCH   8  10
BRANCH   1  14
ATOM     14  S   UNL     1       0.187  10.380  19.363  0.00  0.00    +0.000 S 
ATOM     15  O   UNL     1      -0.360  10.390  20.710  0.00  0.00    +0.000 OA
ATOM     16  O   UNL     1      -0.702  10.272  18.210  0.00  0.00    +0.000 OA
BRANCH  14  18
ATOM     17  C   UNL     1       1.408  12.484  20.543  0.00  0.00    +0.000 C 
ATOM     18  C   UNL     1       1.173  11.841  19.187  0.00  0.00    +0.000 C 
ENDBRANCH  14  18
ENDBRANCH   1  14
BRANCH   9  19
ATOM     19  C   UNL     1       4.160   4.587  19.651  0.00  0.00    +0.000 C 
BRANCH  19  20
ATOM     20  C   UNL     1       3.063   3.624  20.069  0.00  0.00    +0.000 C 
BRANCH  20  21
ATOM     21  O   UNL     1       2.483   2.939  18.970  0.00  0.00    +0.000 OA
BRANCH  21  22
ATOM     22  C   UNL     1       1.147   3.395  18.768  0.00  0.00    +0.000 C 
ATOM     23  F   UNL     1       0.662   4.038  19.856  0.00  0.00    +0.000 F 
ATOM     24  F   UNL     1       1.124   4.242  17.726  0.00  0.00    +0.000 F 
ATOM     25  F   UNL     1       0.360   2.338  18.511  0.00  0.00    +0.000 F 
ENDBRANCH  21  22
ENDBRANCH  20  21
ENDBRANCH  19  20
ENDBRANCH   9  19
TORSDOF 7
ENDMDL
MODEL 6
REMARK VINA RESULT:      -7.1      1.047      1.502
REMARK  Name = 
REMARK  11 active torsions:
REMARK  status: ('A' for Active; 'I' for Inactive)
REMARK    1  A    between atoms: C_1  and  C_2
REMARK    2  A    between atoms: C_2  and  S_3
REMARK    3  A    between atoms: S_3  and  C_6
REMARK    4  A    between atoms: C_13  and  C_14
REMARK    5  A    between atoms: C_14  and  C_15
REMARK    6  A    between atoms: C_14  and  C_16
REMARK    7  A    between atoms: C_14  and  C_17
REMARK    8  A    between atoms: N_18  and  C_19
REMARK    9  A    between atoms: C_19  and  C_20
REMARK   10  A    between atoms: C_20  and  O_21
REMARK   11  A    between atoms: O_21  and  C_22
REMARK                            x       y       z     vdW  Elec       q    Type
REMARK                         _______ _______ _______ _____ _____    ______ ____
ROOT
ATOM      1  C   UNL     1       1.492   9.051  18.959  0.00  0.00    +0.000 A 
ATOM      2  C   UNL     1       1.465   8.214  20.064  0.00  0.00    +0.000 A 
ATOM      3  C   UNL     1       2.231   7.062  20.091  0.00  0.00    +0.000 A 
ATOM      4  C   UNL     1       3.032   6.739  18.979  0.00  0.00    +0.000 A 
ATOM      5  C   UNL     1       3.067   7.566  17.859  0.00  0.00    +0.000 A 
ATOM      6  C   UNL     1       2.285   8.746  17.837  0.00  0.00    +0.000 A 
ATOM      7  N   UNL     1       3.913   7.042  16.907  0.00  0.00    +0.000 NA
ATOM      8  C   UNL     1       4.401   5.904  17.387  0.00  0.00    +0.000 A 
ATOM      9  N   UNL     1       3.885   5.688  18.674  0.00  0.00    +0.000 N 
ENDROOT
BRANCH   8  10
ATOM     10  C   UNL     1       5.436   5.027  16.641  0.00  0.00    +0.000 C 
ATOM     11  C   UNL     1       5.611   5.553  15.206  0.00  0.00    +0.000 C 
ATOM     12  C   UNL     1       6.806   4.966  17.336  0.00  0.00    +0.000 C 
ATOM     13  C   UNL     1       4.969   3.554  16.532  0.00  0.00    +0.000 C 
ENDBRANCH   8  10
BRANCH   1  14
ATOM     14  S   UNL     1       0.411  10.456  18.993  0.00  0.00    +0.000 S 
ATOM     15  O   UNL     1      -0.556  10.280  17.922  0.00  0.00    +0.000 OA
ATOM     16  O   UNL     1       1.268  11.638  19.020  0.00  0.00    +0.000 OA
BRANCH  14  18
ATOM     17  C   UNL     1      -0.055  11.491  21.447  0.00  0.00    +0.000 C 
ATOM     18  C   UNL     1      -0.477  10.362  20.522  0.00  0.00    +0.000 C 
ENDBRANCH  14  18
ENDBRANCH   1  14
BRANCH   9  19
ATOM     19  C   UNL     1       4.188   4.552  19.535  0.00  0.00    +0.000 C 
BRANCH  19  20
ATOM     20  C   UNL     1       3.029   3.734  20.076  0.00  0.00    +0.000 C 
BRANCH  20  21
ATOM     21  O   UNL     1       2.436   2.899  19.094  0.00  0.00    +0.000 OA
BRANCH  21  22
ATOM     22  C   UNL     1       1.103   3.333  18.833  0.00  0.00    +0.000 C 
ATOM     23  F   UNL     1       0.578   4.012  19.879  0.00  0.00    +0.000 F 
ATOM     24  F   UNL     1       1.106   4.139  17.758  0.00  0.00    +0.000 F 
ATOM     25  F   UNL     1       0.335   2.259  18.591  0.00  0.00    +0.000 F 
ENDBRANCH  21  22
ENDBRANCH  20  21
ENDBRANCH  19  20
ENDBRANCH   9  19
TORSDOF 7
ENDMDL
MODEL 7
REMARK VINA RESULT:      -7.1      2.713      4.032
REMARK  Name = 
REMARK  11 active torsions:
REMARK  status: ('A' for Active; 'I' for Inactive)
REMARK    1  A    between atoms: C_1  and  C_2
REMARK    2  A    between atoms: C_2  and  S_3
REMARK    3  A    between atoms: S_3  and  C_6
REMARK    4  A    between atoms: C_13  and  C_14
REMARK    5  A    between atoms: C_14  and  C_15
REMARK    6  A    between atoms: C_14  and  C_16
REMARK    7  A    between atoms: C_14  and  C_17
REMARK    8  A    between atoms: N_18  and  C_19
REMARK    9  A    between atoms: C_19  and  C_20
REMARK   10  A    between atoms: C_20  and  O_21
REMARK   11  A    between atoms: O_21  and  C_22
REMARK                            x       y       z     vdW  Elec       q    Type
REMARK                         _______ _______ _______ _____ _____    ______ ____
ROOT
ATOM      1  C   UNL     1       1.413   9.073  19.698  0.00  0.00    +0.000 A 
ATOM      2  C   UNL     1       1.988   9.039  18.438  0.00  0.00    +0.000 A 
ATOM      3  C   UNL     1       2.533   7.866  17.945  0.00  0.00    +0.000 A 
ATOM      4  C   UNL     1       2.508   6.705  18.743  0.00  0.00    +0.000 A 
ATOM      5  C   UNL     1       1.939   6.723  20.013  0.00  0.00    +0.000 A 
ATOM      6  C   UNL     1       1.379   7.925  20.511  0.00  0.00    +0.000 A 
ATOM      7  N   UNL     1       2.037   5.479  20.596  0.00  0.00    +0.000 NA
ATOM      8  C   UNL     1       2.664   4.683  19.738  0.00  0.00    +0.000 A 
ATOM      9  N   UNL     1       2.962   5.405  18.572  0.00  0.00    +0.000 N 
ENDROOT
BRANCH   8  10
ATOM     10  C   UNL     1       2.929   3.179  19.993  0.00  0.00    +0.000 C 
ATOM     11  C   UNL     1       2.076   2.338  19.027  0.00  0.00    +0.000 C 
ATOM     12  C   UNL     1       4.407   2.781  19.852  0.00  0.00    +0.000 C 
ATOM     13  C   UNL     1       2.531   2.762  21.431  0.00  0.00    +0.000 C 
ENDBRANCH   8  10
BRANCH   1  14
ATOM     14  S   UNL     1       0.819  10.645  20.266  0.00  0.00    +0.000 S 
ATOM     15  O   UNL     1       1.464  11.665  19.456  0.00  0.00    +0.000 OA
ATOM     16  O   UNL     1       0.980  10.649  21.716  0.00  0.00    +0.000 OA
BRANCH  14  18
ATOM     17  C   UNL     1      -1.130  11.275  18.501  0.00  0.00    +0.000 C 
ATOM     18  C   UNL     1      -0.910  10.688  19.885  0.00  0.00    +0.000 C 
ENDBRANCH  14  18
ENDBRANCH   1  14
BRANCH   9  19
ATOM     19  C   UNL     1       3.640   4.881  17.394  0.00  0.00    +0.000 C 
BRANCH  19  20
ATOM     20  C   UNL     1       5.082   5.292  17.154  0.00  0.00    +0.000 C 
BRANCH  20  21
ATOM     21  O   UNL     1       5.439   5.274  15.781  0.00  0.00    +0.000 OA
BRANCH  21  22
ATOM     22  C   UNL     1       6.532   4.382  15.578  0.00  0.00    +0.000 C 
ATOM     23  F   UNL     1       7.295   4.255  16.689  0.00  0.00    +0.000 F 
ATOM     24  F   UNL     1       6.055   3.170  15.248  0.00  0.00    +0.000 F 
ATOM     25  F   UNL     1       7.301   4.852  14.583  0.00  0.00    +0.000 F 
ENDBRANCH  21  22
ENDBRANCH  20  21
ENDBRANCH  19  20
ENDBRANCH   9  19
TORSDOF 7
ENDMDL
MODEL 8
REMARK VINA RESULT:      -7.1      2.693      3.984
REMARK  Name = 
REMARK  11 active torsions:
REMARK  status: ('A' for Active; 'I' for Inactive)
REMARK    1  A    between atoms: C_1  and  C_2
REMARK    2  A    between atoms: C_2  and  S_3
REMARK    3  A    between atoms: S_3  and  C_6
REMARK    4  A    between atoms: C_13  and  C_14
REMARK    5  A    between atoms: C_14  and  C_15
REMARK    6  A    between atoms: C_14  and  C_16
REMARK    7  A    between atoms: C_14  and  C_17
REMARK    8  A    between atoms: N_18  and  C_19
REMARK    9  A    between atoms: C_19  and  C_20
REMARK   10  A    between atoms: C_20  and  O_21
REMARK   11  A    between atoms: O_21  and  C_22
REMARK                            x       y       z     vdW  Elec       q    Type
REMARK                         _______ _______ _______ _____ _____    ______ ____
ROOT
ATOM      1  C   UNL     1       1.464   8.981  19.640  0.00  0.00    +0.000 A 
ATOM      2  C   UNL     1       2.026   8.889  18.378  0.00  0.00    +0.000 A 
ATOM      3  C   UNL     1       2.534   7.685  17.921  0.00  0.00    +0.000 A 
ATOM      4  C   UNL     1       2.485   6.553  18.758  0.00  0.00    +0.000 A 
ATOM      5  C   UNL     1       1.929   6.629  20.031  0.00  0.00    +0.000 A 
ATOM      6  C   UNL     1       1.406   7.862  20.493  0.00  0.00    +0.000 A 
ATOM      7  N   UNL     1       1.999   5.404  20.655  0.00  0.00    +0.000 NA
ATOM      8  C   UNL     1       2.596   4.563  19.820  0.00  0.00    +0.000 A 
ATOM      9  N   UNL     1       2.903   5.236  18.628  0.00  0.00    +0.000 N 
ENDROOT
BRANCH   8  10
ATOM     10  C   UNL     1       2.823   3.061  20.124  0.00  0.00    +0.000 C 
ATOM     11  C   UNL     1       2.383   2.760  21.568  0.00  0.00    +0.000 C 
ATOM     12  C   UNL     1       2.090   2.119  19.156  0.00  0.00    +0.000 C 
ATOM     13  C   UNL     1       4.319   2.673  20.015  0.00  0.00    +0.000 C 
ENDBRANCH   8  10
BRANCH   1  14
ATOM     14  S   UNL     1       0.918  10.587  20.159  0.00  0.00    +0.000 S 
ATOM     15  O   UNL     1       1.503  11.555  19.246  0.00  0.00    +0.000 OA
ATOM     16  O   UNL     1       1.186  10.673  21.591  0.00  0.00    +0.000 OA
BRANCH  14  18
ATOM     17  C   UNL     1      -1.151  10.952  18.457  0.00  0.00    +0.000 C 
ATOM     18  C   UNL     1      -0.835  10.620  19.906  0.00  0.00    +0.000 C 
ENDBRANCH  14  18
ENDBRANCH   1  14
BRANCH   9  19
ATOM     19  C   UNL     1       3.555   4.654  17.463  0.00  0.00    +0.000 C 
BRANCH  19  20
ATOM     20  C   UNL     1       4.990   5.055  17.169  0.00  0.00    +0.000 C 
BRANCH  20  21
ATOM     21  O   UNL     1       5.721   4.038  16.501  0.00  0.00    +0.000 OA
BRANCH  21  22
ATOM     22  C   UNL     1       6.120   4.499  15.212  0.00  0.00    +0.000 C 
ATOM     23  F   UNL     1       5.443   5.610  14.839  0.00  0.00    +0.000 F 
ATOM     24  F   UNL     1       7.433   4.787  15.236  0.00  0.00    +0.000 F 
ATOM     25  F   UNL     1       5.885   3.533  14.311  0.00  0.00    +0.000 F 
ENDBRANCH  21  22
ENDBRANCH  20  21
ENDBRANCH  19  20
ENDBRANCH   9  19
TORSDOF 7
ENDMDL
MODEL 9
REMARK VINA RESULT:      -7.0      0.843      1.386
REMARK  Name = 
REMARK  11 active torsions:
REMARK  status: ('A' for Active; 'I' for Inactive)
REMARK    1  A    between atoms: C_1  and  C_2
REMARK    2  A    between atoms: C_2  and  S_3
REMARK    3  A    between atoms: S_3  and  C_6
REMARK    4  A    between atoms: C_13  and  C_14
REMARK    5  A    between atoms: C_14  and  C_15
REMARK    6  A    between atoms: C_14  and  C_16
REMARK    7  A    between atoms: C_14  and  C_17
REMARK    8  A    between atoms: N_18  and  C_19
REMARK    9  A    between atoms: C_19  and  C_20
REMARK   10  A    between atoms: C_20  and  O_21
REMARK   11  A    between atoms: O_21  and  C_22
REMARK                            x       y       z     vdW  Elec       q    Type
REMARK                         _______ _______ _______ _____ _____    ______ ____
ROOT
ATOM      1  C   UNL     1       1.012   9.454  19.433  0.00  0.00    +0.000 A 
ATOM      2  C   UNL     1       0.993   8.594  20.519  0.00  0.00    +0.000 A 
ATOM      3  C   UNL     1       1.757   7.440  20.516  0.00  0.00    +0.000 A 
ATOM      4  C   UNL     1       2.548   7.140  19.390  0.00  0.00    +0.000 A 
ATOM      5  C   UNL     1       2.575   7.990  18.287  0.00  0.00    +0.000 A 
ATOM      6  C   UNL     1       1.795   9.172  18.297  0.00  0.00    +0.000 A 
ATOM      7  N   UNL     1       3.411   7.485  17.317  0.00  0.00    +0.000 NA
ATOM      8  C   UNL     1       3.901   6.336  17.769  0.00  0.00    +0.000 A 
ATOM      9  N   UNL     1       3.397   6.094  19.055  0.00  0.00    +0.000 N 
ENDROOT
BRANCH   8  10
ATOM     10  C   UNL     1       4.928   5.474  16.995  0.00  0.00    +0.000 C 
ATOM     11  C   UNL     1       6.238   5.393  17.800  0.00  0.00    +0.000 C 
ATOM     12  C   UNL     1       4.430   4.053  16.682  0.00  0.00    +0.000 C 
ATOM     13  C   UNL     1       5.279   6.094  15.619  0.00  0.00    +0.000 C 
ENDBRANCH   8  10
BRANCH   1  14
ATOM     14  S   UNL     1      -0.066  10.860  19.506  0.00  0.00    +0.000 S 
ATOM     15  O   UNL     1       0.448  11.844  18.567  0.00  0.00    +0.000 OA
ATOM     16  O   UNL     1      -0.210  11.199  20.918  0.00  0.00    +0.000 OA
BRANCH  14  18
ATOM     17  C   UNL     1      -1.795  10.717  17.433  0.00  0.00    +0.000 C 
ATOM     18  C   UNL     1      -1.634  10.315  18.889  0.00  0.00    +0.000 C 
ENDBRANCH  14  18
ENDBRANCH   1  14
BRANCH   9  19
ATOM     19  C   UNL     1       3.704   4.939  19.888  0.00  0.00    +0.000 C 
BRANCH  19  20
ATOM     20  C   UNL     1       2.630   3.882  20.074  0.00  0.00    +0.000 C 
BRANCH  20  21
ATOM     21  O   UNL     1       1.768   3.769  18.953  0.00  0.00    +0.000 OA
BRANCH  21  22
ATOM     22  C   UNL     1       1.480   2.395  18.702  0.00  0.00    +0.000 C 
ATOM     23  F   UNL     1       2.067   1.955  17.564  0.00  0.00    +0.000 F 
ATOM     24  F   UNL     1       1.934   1.656  19.729  0.00  0.00    +0.000 F 
ATOM     25  F   UNL     1       0.152   2.242  18.584  0.00  0.00    +0.000 F 
ENDBRANCH  21  22
ENDBRANCH  20  21
ENDBRANCH  19  20
ENDBRANCH   9  19
TORSDOF 7
ENDMDL
