MODEL 1
REMARK VINA RESULT:      -7.8      0.000      0.000
REMARK  Name = 
REMARK  7 active torsions:
REMARK  status: ('A' for Active; 'I' for Inactive)
REMARK    1  A    between atoms: C_1  and  N_2
REMARK    2  A    between atoms: C_5  and  N_6
REMARK    3  A    between atoms: N_6  and  C_7
REMARK    4  A    between atoms: N_6  and  C_8
REMARK    5  A    between atoms: C_8  and  C_9
REMARK    6  A    between atoms: N_11  and  C_12
REMARK    7  A    between atoms: C_17  and  N_18
REMARK                            x       y       z     vdW  Elec       q    Type
REMARK                         _______ _______ _______ _____ _____    ______ ____
ROOT
ATOM      1  C   UNL     1       2.103   8.381  18.346  0.00  0.00    +0.000 C 
ATOM      2  O   UNL     1       2.144   8.879  17.224  0.00  0.00    +0.000 OA
ATOM      3  N   UNL     1       2.722   7.198  18.709  0.00  0.00    +0.000 N 
ATOM      4  H   UNL     1       2.336   6.728  19.506  0.00  0.00    +0.000 HD
ENDROOT
BRANCH   3   5
ATOM      5  C   UNL     1       3.466   6.405  17.826  0.00  0.00    +0.000 A 
ATOM      6  C   UNL     1       4.338   7.081  16.955  0.00  0.00    +0.000 A 
ATOM      7  C   UNL     1       5.232   6.375  16.154  0.00  0.00    +0.000 A 
ATOM      8  C   UNL     1       5.233   4.989  16.194  0.00  0.00    +0.000 A 
ATOM      9  C   UNL     1       4.351   4.322  17.049  0.00  0.00    +0.000 A 
ATOM     10  C   UNL     1       3.453   5.001  17.899  0.00  0.00    +0.000 A 
BRANCH  10  11
ATOM     11  N   UNL     1       2.654   4.221  18.734  0.00  0.00    +0.000 N 
ATOM     12  C   UNL     1       1.922   3.019  18.328  0.00  0.00    +0.000 C 
ATOM     13  C   UNL     1       0.670   2.885  19.209  0.00  0.00    +0.000 C 
ATOM     14  O   UNL     1       0.986   2.863  20.608  0.00  0.00    +0.000 OA
ATOM     15  C   UNL     1       1.703   4.057  20.975  0.00  0.00    +0.000 C 
ATOM     16  C   UNL     1       3.006   4.186  20.172  0.00  0.00    +0.000 C 
ENDBRANCH  10  11
ENDBRANCH   3   5
BRANCH   1  17
ATOM     17  C   UNL     1       1.261   8.984  19.492  0.00  0.00    +0.000 C 
BRANCH  17  18
ATOM     18  N   UNL     1       0.718  10.337  19.184  0.00  0.00    +0.000 NA
ATOM     19  C   UNL     1       1.108  11.327  20.198  0.00  0.00    +0.000 C 
BRANCH  18  24
ATOM     20  C   UNL     1      -4.614  11.554  17.411  0.00  0.00    +0.000 C 
ATOM     21  N   UNL     1      -3.177  11.411  17.650  0.00  0.00    +0.000 NA
ATOM     22  C   UNL     1      -2.855  11.813  19.018  0.00  0.00    +0.000 C 
ATOM     23  C   UNL     1      -1.355  11.735  19.272  0.00  0.00    +0.000 C 
ATOM     24  C   UNL     1      -0.768  10.335  18.995  0.00  0.00    +0.000 C 
ATOM     25  C   UNL     1      -1.221   9.895  17.584  0.00  0.00    +0.000 C 
ATOM     26  C   UNL     1      -2.734  10.043  17.392  0.00  0.00    +0.000 C 
ENDBRANCH  18  24
ENDBRANCH  17  18
ENDBRANCH   1  17
TORSDOF 5
ENDMDL
MODEL 2
REMARK VINA RESULT:      -7.8      0.455      1.056
REMARK  Name = 
REMARK  7 active torsions:
REMARK  status: ('A' for Active; 'I' for Inactive)
REMARK    1  A    between atoms: C_1  and  N_2
REMARK    2  A    between atoms: C_5  and  N_6
REMARK    3  A    between atoms: N_6  and  C_7
REMARK    4  A    between atoms: N_6  and  C_8
REMARK    5  A    between atoms: C_8  and  C_9
REMARK    6  A    between atoms: N_11  and  C_12
REMARK    7  A    between atoms: C_17  and  N_18
REMARK                            x       y       z     vdW  Elec       q    Type
REMARK                         _______ _______ _______ _____ _____    ______ ____
ROOT
ATOM      1  C   UNL     1       2.029   8.525  18.372  0.00  0.00    +0.000 C 
ATOM      2  O   UNL     1       2.086   8.911  17.208  0.00  0.00    +0.000 OA
ATOM      3  N   UNL     1       2.634   7.379  18.855  0.00  0.00    +0.000 N 
ATOM      4  H   UNL     1       2.236   6.992  19.691  0.00  0.00    +0.000 HD
ENDROOT
BRANCH   3   5
ATOM      5  C   UNL     1       3.380   6.497  18.062  0.00  0.00    +0.000 A 
ATOM      6  C   UNL     1       4.243   7.078  17.117  0.00  0.00    +0.000 A 
ATOM      7  C   UNL     1       5.138   6.293  16.395  0.00  0.00    +0.000 A 
ATOM      8  C   UNL     1       5.148   4.920  16.588  0.00  0.00    +0.000 A 
ATOM      9  C   UNL     1       4.274   4.346  17.516  0.00  0.00    +0.000 A 
ATOM     10  C   UNL     1       3.375   5.109  18.290  0.00  0.00    +0.000 A 
BRANCH  10  11
ATOM     11  N   UNL     1       2.585   4.422  19.210  0.00  0.00    +0.000 N 
ATOM     12  C   UNL     1       2.547   4.675  20.652  0.00  0.00    +0.000 C 
ATOM     13  C   UNL     1       2.199   3.363  21.372  0.00  0.00    +0.000 C 
ATOM     14  O   UNL     1       0.970   2.791  20.904  0.00  0.00    +0.000 OA
ATOM     15  C   UNL     1       1.041   2.553  19.485  0.00  0.00    +0.000 C 
ATOM     16  C   UNL     1       1.307   3.858  18.720  0.00  0.00    +0.000 C 
ENDBRANCH  10  11
ENDBRANCH   3   5
BRANCH   1  17
ATOM     17  C   UNL     1       1.181   9.244  19.445  0.00  0.00    +0.000 C 
BRANCH  17  18
ATOM     18  N   UNL     1       0.593  10.529  18.976  0.00  0.00    +0.000 NA
ATOM     19  C   UNL     1       0.982  11.656  19.836  0.00  0.00    +0.000 C 
BRANCH  18  24
ATOM     20  C   UNL     1      -4.829  11.459  17.304  0.00  0.00    +0.000 C 
ATOM     21  N   UNL     1      -3.382  11.378  17.506  0.00  0.00    +0.000 NA
ATOM     22  C   UNL     1      -3.033  11.873  18.836  0.00  0.00    +0.000 C 
ATOM     23  C   UNL     1      -1.525  11.861  19.046  0.00  0.00    +0.000 C 
ATOM     24  C   UNL     1      -0.898  10.466  18.835  0.00  0.00    +0.000 C 
ATOM     25  C   UNL     1      -1.376   9.927  17.468  0.00  0.00    +0.000 C 
ATOM     26  C   UNL     1      -2.899  10.013  17.316  0.00  0.00    +0.000 C 
ENDBRANCH  18  24
ENDBRANCH  17  18
ENDBRANCH   1  17
TORSDOF 5
ENDMDL
MODEL 3
REMARK VINA RESULT:      -7.6      2.310      2.862
REMARK  Name = 
REMARK  7 active torsions:
REMARK  status: ('A' for Active; 'I' for Inactive)
REMARK    1  A    between atoms: C_1  and  N_2
REMARK    2  A    between atoms: C_5  and  N_6
REMARK    3  A    between atoms: N_6  and  C_7
REMARK    4  A    between atoms: N_6  and  C_8
REMARK    5  A    between atoms: C_8  and  C_9
REMARK    6  A    between atoms: N_11  and  C_12
REMARK    7  A    between atoms: C_17  and  N_18
REMARK                            x       y       z     vdW  Elec       q    Type
REMARK                         _______ _______ _______ _____ _____    ______ ____
ROOT
ATOM      1  C   UNL     1       2.675   6.479  18.229  0.00  0.00    +0.000 C 
ATOM      2  O   UNL     1       1.796   5.868  17.629  0.00  0.00    +0.000 OA
ATOM      3  N   UNL     1       4.030   6.364  17.977  0.00  0.00    +0.000 N 
ATOM      4  H   UNL     1       4.640   6.617  18.732  0.00  0.00    +0.000 HD
ENDROOT
BRANCH   3   5
ATOM      5  C   UNL     1       4.572   5.513  17.005  0.00  0.00    +0.000 A 
ATOM      6  C   UNL     1       5.377   6.114  16.021  0.00  0.00    +0.000 A 
ATOM      7  C   UNL     1       6.086   5.335  15.109  0.00  0.00    +0.000 A 
ATOM      8  C   UNL     1       5.965   3.955  15.155  0.00  0.00    +0.000 A 
ATOM      9  C   UNL     1       5.148   3.364  16.123  0.00  0.00    +0.000 A 
ATOM     10  C   UNL     1       4.439   4.115  17.084  0.00  0.00    +0.000 A 
BRANCH  10  11
ATOM     11  N   UNL     1       3.692   3.405  18.023  0.00  0.00    +0.000 N 
ATOM     12  C   UNL     1       2.701   2.372  17.712  0.00  0.00    +0.000 C 
ATOM     13  C   UNL     1       1.635   2.365  18.819  0.00  0.00    +0.000 C 
ATOM     14  O   UNL     1       2.202   2.178  20.123  0.00  0.00    +0.000 OA
ATOM     15  C   UNL     1       3.170   3.209  20.398  0.00  0.00    +0.000 C 
ATOM     16  C   UNL     1       4.299   3.196  19.357  0.00  0.00    +0.000 C 
ENDBRANCH  10  11
ENDBRANCH   3   5
BRANCH   1  17
ATOM     17  C   UNL     1       2.373   7.405  19.429  0.00  0.00    +0.000 C 
BRANCH  17  18
ATOM     18  N   UNL     1       1.492   8.555  19.085  0.00  0.00    +0.000 NA
ATOM     19  C   UNL     1       2.074   9.393  18.027  0.00  0.00    +0.000 C 
BRANCH  18  24
ATOM     20  C   UNL     1      -1.409  11.446  23.121  0.00  0.00    +0.000 C 
ATOM     21  N   UNL     1      -0.923  10.607  22.024  0.00  0.00    +0.000 NA
ATOM     22  C   UNL     1      -0.205  11.425  21.049  0.00  0.00    +0.000 C 
ATOM     23  C   UNL     1       0.254  10.586  19.864  0.00  0.00    +0.000 C 
ATOM     24  C   UNL     1       1.135   9.388  20.278  0.00  0.00    +0.000 C 
ATOM     25  C   UNL     1       0.394   8.609  21.389  0.00  0.00    +0.000 C 
ATOM     26  C   UNL     1      -0.074   9.528  22.523  0.00  0.00    +0.000 C 
ENDBRANCH  18  24
ENDBRANCH  17  18
ENDBRANCH   1  17
TORSDOF 5
ENDMDL
MODEL 4
REMARK VINA RESULT:      -7.6      2.453      4.362
REMARK  Name = 
REMARK  7 active torsions:
REMARK  status: ('A' for Active; 'I' for Inactive)
REMARK    1  A    between atoms: C_1  and  N_2
REMARK    2  A    between atoms: C_5  and  N_6
REMARK    3  A    between atoms: N_6  and  C_7
REMARK    4  A    between atoms: N_6  and  C_8
REMARK    5  A    between atoms: C_8  and  C_9
REMARK    6  A    between atoms: N_11  and  C_12
REMARK    7  A    between atoms: C_17  and  N_18
REMARK                            x       y       z     vdW  Elec       q    Type
REMARK                         _______ _______ _______ _____ _____    ______ ____
ROOT
ATOM      1  C   UNL     1       2.298   6.857  19.224  0.00  0.00    +0.000 C 
ATOM      2  O   UNL     1       2.194   6.437  20.373  0.00  0.00    +0.000 OA
ATOM      3  N   UNL     1       2.509   6.065  18.109  0.00  0.00    +0.000 N 
ATOM      4  H   UNL     1       2.922   6.522  17.318  0.00  0.00    +0.000 HD
ENDROOT
BRANCH   3   5
ATOM      5  C   UNL     1       2.648   4.672  18.158  0.00  0.00    +0.000 A 
ATOM      6  C   UNL     1       1.502   3.937  18.511  0.00  0.00    +0.000 A 
ATOM      7  C   UNL     1       1.498   2.546  18.433  0.00  0.00    +0.000 A 
ATOM      8  C   UNL     1       2.649   1.884  18.037  0.00  0.00    +0.000 A 
ATOM      9  C   UNL     1       3.791   2.618  17.705  0.00  0.00    +0.000 A 
ATOM     10  C   UNL     1       3.826   4.028  17.740  0.00  0.00    +0.000 A 
BRANCH  10  11
ATOM     11  N   UNL     1       5.013   4.645  17.345  0.00  0.00    +0.000 N 
ATOM     12  C   UNL     1       6.001   5.240  18.248  0.00  0.00    +0.000 C 
ATOM     13  C   UNL     1       6.711   6.387  17.512  0.00  0.00    +0.000 C 
ATOM     14  O   UNL     1       7.311   5.958  16.282  0.00  0.00    +0.000 OA
ATOM     15  C   UNL     1       6.315   5.380  15.417  0.00  0.00    +0.000 C 
ATOM     16  C   UNL     1       5.636   4.176  16.087  0.00  0.00    +0.000 C 
ENDBRANCH  10  11
ENDBRANCH   3   5
BRANCH   1  17
ATOM     17  C   UNL     1       2.296   8.365  18.887  0.00  0.00    +0.000 C 
BRANCH  17  18
ATOM     18  N   UNL     1       0.947   8.990  18.966  0.00  0.00    +0.000 NA
ATOM     19  C   UNL     1       0.634   9.770  17.760  0.00  0.00    +0.000 C 
BRANCH  18  24
ATOM     20  C   UNL     1      -1.307  12.218  23.156  0.00  0.00    +0.000 C 
ATOM     21  N   UNL     1      -1.001  11.346  22.021  0.00  0.00    +0.000 NA
ATOM     22  C   UNL     1      -0.151  12.051  21.063  0.00  0.00    +0.000 C 
ATOM     23  C   UNL     1       0.128  11.187  19.840  0.00  0.00    +0.000 C 
ATOM     24  C   UNL     1       0.768   9.828  20.195  0.00  0.00    +0.000 C 
ATOM     25  C   UNL     1      -0.096   9.161  21.289  0.00  0.00    +0.000 C 
ATOM     26  C   UNL     1      -0.369  10.106  22.464  0.00  0.00    +0.000 C 
ENDBRANCH  18  24
ENDBRANCH  17  18
ENDBRANCH   1  17
TORSDOF 5
ENDMDL
MODEL 5
REMARK VINA RESULT:      -7.5      2.421      4.526
REMARK  Name = 
REMARK  7 active torsions:
REMARK  status: ('A' for Active; 'I' for Inactive)
REMARK    1  A    between atoms: C_1  and  N_2
REMARK    2  A    between atoms: C_5  and  N_6
REMARK    3  A    between atoms: N_6  and  C_7
REMARK    4  A    between atoms: N_6  and  C_8
REMARK    5  A    between atoms: C_8  and  C_9
REMARK    6  A    between atoms: N_11  and  C_12
REMARK    7  A    between atoms: C_17  and  N_18
REMARK                            x       y       z     vdW  Elec       q    Type
REMARK                         _______ _______ _______ _____ _____    ______ ____
ROOT
ATOM      1  C   UNL     1       2.359   7.237  18.707  0.00  0.00    +0.000 C 
ATOM      2  O   UNL     1       2.395   6.976  19.906  0.00  0.00    +0.000 OA
ATOM      3  N   UNL     1       2.458   6.302  17.692  0.00  0.00    +0.000 N 
ATOM      4  H   UNL     1       2.768   6.650  16.804  0.00  0.00    +0.000 HD
ENDROOT
BRANCH   3   5
ATOM      5  C   UNL     1       2.632   4.929  17.911  0.00  0.00    +0.000 A 
ATOM      6  C   UNL     1       1.484   4.197  18.259  0.00  0.00    +0.000 A 
ATOM      7  C   UNL     1       1.525   2.807  18.342  0.00  0.00    +0.000 A 
ATOM      8  C   UNL     1       2.722   2.147  18.112  0.00  0.00    +0.000 A 
ATOM      9  C   UNL     1       3.865   2.882  17.785  0.00  0.00    +0.000 A 
ATOM     10  C   UNL     1       3.858   4.287  17.660  0.00  0.00    +0.000 A 
BRANCH  10  11
ATOM     11  N   UNL     1       5.054   4.899  17.287  0.00  0.00    +0.000 N 
ATOM     12  C   UNL     1       5.880   5.745  18.153  0.00  0.00    +0.000 C 
ATOM     13  C   UNL     1       6.624   6.765  17.277  0.00  0.00    +0.000 C 
ATOM     14  O   UNL     1       7.405   6.138  16.250  0.00  0.00    +0.000 OA
ATOM     15  C   UNL     1       6.564   5.317  15.418  0.00  0.00    +0.000 C 
ATOM     16  C   UNL     1       5.864   4.229  16.244  0.00  0.00    +0.000 C 
ENDBRANCH  10  11
ENDBRANCH   3   5
BRANCH   1  17
ATOM     17  C   UNL     1       2.285   8.685  18.173  0.00  0.00    +0.000 C 
BRANCH  17  18
ATOM     18  N   UNL     1       1.135   9.461  18.715  0.00  0.00    +0.000 NA
ATOM     19  C   UNL     1      -0.003   9.474  17.784  0.00  0.00    +0.000 C 
BRANCH  18  24
ATOM     20  C   UNL     1       1.780  15.173  18.805  0.00  0.00    +0.000 C 
ATOM     21  N   UNL     1       1.434  13.770  18.574  0.00  0.00    +0.000 NA
ATOM     22  C   UNL     1       2.639  12.999  18.278  0.00  0.00    +0.000 C 
ATOM     23  C   UNL     1       2.298  11.547  17.969  0.00  0.00    +0.000 C 
ATOM     24  C   UNL     1       1.512  10.858  19.104  0.00  0.00    +0.000 C 
ATOM     25  C   UNL     1       0.306  11.755  19.467  0.00  0.00    +0.000 C 
ATOM     26  C   UNL     1       0.725  13.207  19.720  0.00  0.00    +0.000 C 
ENDBRANCH  18  24
ENDBRANCH  17  18
ENDBRANCH   1  17
TORSDOF 5
ENDMDL
MODEL 6
REMARK VINA RESULT:      -7.4      2.507      4.261
REMARK  Name = 
REMARK  7 active torsions:
REMARK  status: ('A' for Active; 'I' for Inactive)
REMARK    1  A    between atoms: C_1  and  N_2
REMARK    2  A    between atoms: C_5  and  N_6
REMARK    3  A    between atoms: N_6  and  C_7
REMARK    4  A    between atoms: N_6  and  C_8
REMARK    5  A    between atoms: C_8  and  C_9
REMARK    6  A    between atoms: N_11  and  C_12
REMARK    7  A    between atoms: C_17  and  N_18
REMARK                            x       y       z     vdW  Elec       q    Type
REMARK                         _______ _______ _______ _____ _____    ______ ____
ROOT
ATOM      1  C   UNL     1       2.079   6.649  19.910  0.00  0.00    +0.000 C 
ATOM      2  O   UNL     1       1.714   6.003  20.888  0.00  0.00    +0.000 OA
ATOM      3  N   UNL     1       2.527   6.098  18.723  0.00  0.00    +0.000 N 
ATOM      4  H   UNL     1       3.113   6.687  18.160  0.00  0.00    +0.000 HD
ENDROOT
BRANCH   3   5
ATOM      5  C   UNL     1       2.638   4.720  18.495  0.00  0.00    +0.000 A 
ATOM      6  C   UNL     1       1.487   3.950  18.731  0.00  0.00    +0.000 A 
ATOM      7  C   UNL     1       1.450   2.601  18.385  0.00  0.00    +0.000 A 
ATOM      8  C   UNL     1       2.577   2.010  17.833  0.00  0.00    +0.000 A 
ATOM      9  C   UNL     1       3.725   2.777  17.618  0.00  0.00    +0.000 A 
ATOM     10  C   UNL     1       3.791   4.152  17.926  0.00  0.00    +0.000 A 
BRANCH  10  11
ATOM     11  N   UNL     1       4.981   4.815  17.625  0.00  0.00    +0.000 N 
ATOM     12  C   UNL     1       5.180   5.733  16.500  0.00  0.00    +0.000 C 
ATOM     13  C   UNL     1       6.653   5.669  16.069  0.00  0.00    +0.000 C 
ATOM     14  O   UNL     1       7.552   5.954  17.149  0.00  0.00    +0.000 OA
ATOM     15  C   UNL     1       7.332   5.035  18.236  0.00  0.00    +0.000 C 
ATOM     16  C   UNL     1       5.889   5.127  18.752  0.00  0.00    +0.000 C 
ENDBRANCH  10  11
ENDBRANCH   3   5
BRANCH   1  17
ATOM     17  C   UNL     1       2.168   8.191  19.918  0.00  0.00    +0.000 C 
BRANCH  17  18
ATOM     18  N   UNL     1       1.165   8.850  19.035  0.00  0.00    +0.000 NA
ATOM     19  C   UNL     1       1.798   9.502  17.880  0.00  0.00    +0.000 C 
BRANCH  18  24
ATOM     20  C   UNL     1      -0.785  12.821  22.707  0.00  0.00    +0.000 C 
ATOM     21  N   UNL     1      -0.035  11.884  21.869  0.00  0.00    +0.000 NA
ATOM     22  C   UNL     1      -0.508  10.520  22.099  0.00  0.00    +0.000 C 
ATOM     23  C   UNL     1       0.302   9.517  21.287  0.00  0.00    +0.000 C 
ATOM     24  C   UNL     1       0.292   9.818  19.773  0.00  0.00    +0.000 C 
ATOM     25  C   UNL     1       0.689  11.298  19.575  0.00  0.00    +0.000 C 
ATOM     26  C   UNL     1      -0.139  12.240  20.456  0.00  0.00    +0.000 C 
ENDBRANCH  18  24
ENDBRANCH  17  18
ENDBRANCH   1  17
TORSDOF 5
ENDMDL
MODEL 7
REMARK VINA RESULT:      -7.3      1.759      2.332
REMARK  Name = 
REMARK  7 active torsions:
REMARK  status: ('A' for Active; 'I' for Inactive)
REMARK    1  A    between atoms: C_1  and  N_2
REMARK    2  A    between atoms: C_5  and  N_6
REMARK    3  A    between atoms: N_6  and  C_7
REMARK    4  A    between atoms: N_6  and  C_8
REMARK    5  A    between atoms: C_8  and  C_9
REMARK    6  A    between atoms: N_11  and  C_12
REMARK    7  A    between atoms: C_17  and  N_18
REMARK                            x       y       z     vdW  Elec       q    Type
REMARK                         _______ _______ _______ _____ _____    ______ ____
ROOT
ATOM      1  C   UNL     1       2.411   8.078  18.258  0.00  0.00    +0.000 C 
ATOM      2  O   UNL     1       2.334   8.493  17.106  0.00  0.00    +0.000 OA
ATOM      3  N   UNL     1       3.087   6.934  18.643  0.00  0.00    +0.000 N 
ATOM      4  H   UNL     1       2.790   6.518  19.505  0.00  0.00    +0.000 HD
ENDROOT
BRANCH   3   5
ATOM      5  C   UNL     1       3.761   6.090  17.750  0.00  0.00    +0.000 A 
ATOM      6  C   UNL     1       4.626   6.708  16.831  0.00  0.00    +0.000 A 
ATOM      7  C   UNL     1       5.456   5.945  16.013  0.00  0.00    +0.000 A 
ATOM      8  C   UNL     1       5.398   4.562  16.085  0.00  0.00    +0.000 A 
ATOM      9  C   UNL     1       4.521   3.953  16.988  0.00  0.00    +0.000 A 
ATOM     10  C   UNL     1       3.688   4.689  17.856  0.00  0.00    +0.000 A 
BRANCH  10  11
ATOM     11  N   UNL     1       2.890   3.964  18.739  0.00  0.00    +0.000 N 
ATOM     12  C   UNL     1       1.450   3.740  18.592  0.00  0.00    +0.000 C 
ATOM     13  C   UNL     1       0.831   3.586  19.991  0.00  0.00    +0.000 C 
ATOM     14  O   UNL     1       1.453   2.542  20.752  0.00  0.00    +0.000 OA
ATOM     15  C   UNL     1       2.866   2.792  20.879  0.00  0.00    +0.000 C 
ATOM     16  C   UNL     1       3.538   2.872  19.501  0.00  0.00    +0.000 C 
ENDBRANCH  10  11
ENDBRANCH   3   5
BRANCH   1  17
ATOM     17  C   UNL     1       1.669   8.751  19.435  0.00  0.00    +0.000 C 
BRANCH  17  18
ATOM     18  N   UNL     1       0.820   9.902  19.023  0.00  0.00    +0.000 NA
ATOM     19  C   UNL     1       1.623  11.095  18.720  0.00  0.00    +0.000 C 
BRANCH  18  24
ATOM     20  C   UNL     1      -2.135  12.258  23.356  0.00  0.00    +0.000 C 
ATOM     21  N   UNL     1      -1.209  11.876  22.289  0.00  0.00    +0.000 NA
ATOM     22  C   UNL     1      -0.702  10.526  22.526  0.00  0.00    +0.000 C 
ATOM     23  C   UNL     1       0.315  10.130  21.463  0.00  0.00    +0.000 C 
ATOM     24  C   UNL     1      -0.244  10.226  20.028  0.00  0.00    +0.000 C 
ATOM     25  C   UNL     1      -0.870  11.628  19.849  0.00  0.00    +0.000 C 
ATOM     26  C   UNL     1      -1.848  11.970  20.979  0.00  0.00    +0.000 C 
ENDBRANCH  18  24
ENDBRANCH  17  18
ENDBRANCH   1  17
TORSDOF 5
ENDMDL
MODEL 8
REMARK VINA RESULT:      -7.3      2.330      4.266
REMARK  Name = 
REMARK  7 active torsions:
REMARK  status: ('A' for Active; 'I' for Inactive)
REMARK    1  A    between atoms: C_1  and  N_2
REMARK    2  A    between atoms: C_5  and  N_6
REMARK    3  A    between atoms: N_6  and  C_7
REMARK    4  A    between atoms: N_6  and  C_8
REMARK    5  A    between atoms: C_8  and  C_9
REMARK    6  A    between atoms: N_11  and  C_12
REMARK    7  A    between atoms: C_17  and  N_18
REMARK                            x       y       z     vdW  Elec       q    Type
REMARK                         _______ _______ _______ _____ _____    ______ ____
ROOT
ATOM      1  C   UNL     1       2.370   6.784  18.978  0.00  0.00    +0.000 C 
ATOM      2  O   UNL     1       2.026   6.546  17.824  0.00  0.00    +0.000 OA
ATOM      3  N   UNL     1       2.852   5.841  19.869  0.00  0.00    +0.000 N 
ATOM      4  H   UNL     1       2.758   6.068  20.841  0.00  0.00    +0.000 HD
ENDROOT
BRANCH   3   5
ATOM      5  C   UNL     1       2.991   4.481  19.565  0.00  0.00    +0.000 A 
ATOM      6  C   UNL     1       2.033   3.612  20.114  0.00  0.00    +0.000 A 
ATOM      7  C   UNL     1       1.994   2.269  19.742  0.00  0.00    +0.000 A 
ATOM      8  C   UNL     1       2.936   1.784  18.848  0.00  0.00    +0.000 A 
ATOM      9  C   UNL     1       3.898   2.649  18.319  0.00  0.00    +0.000 A 
ATOM     10  C   UNL     1       3.951   4.020  18.645  0.00  0.00    +0.000 A 
BRANCH  10  11
ATOM     11  N   UNL     1       4.934   4.786  18.018  0.00  0.00    +0.000 N 
ATOM     12  C   UNL     1       6.277   5.039  18.546  0.00  0.00    +0.000 C 
ATOM     13  C   UNL     1       6.757   6.405  18.030  0.00  0.00    +0.000 C 
ATOM     14  O   UNL     1       6.727   6.491  16.599  0.00  0.00    +0.000 OA
ATOM     15  C   UNL     1       5.394   6.238  16.113  0.00  0.00    +0.000 C 
ATOM     16  C   UNL     1       4.907   4.846  16.539  0.00  0.00    +0.000 C 
ENDBRANCH  10  11
ENDBRANCH   3   5
BRANCH   1  17
ATOM     17  C   UNL     1       2.220   8.181  19.619  0.00  0.00    +0.000 C 
BRANCH  17  18
ATOM     18  N   UNL     1       1.233   9.052  18.923  0.00  0.00    +0.000 NA
ATOM     19  C   UNL     1       1.892  10.078  18.102  0.00  0.00    +0.000 C 
BRANCH  18  24
ATOM     20  C   UNL     1      -1.209  12.378  22.927  0.00  0.00    +0.000 C 
ATOM     21  N   UNL     1      -0.373  11.713  21.926  0.00  0.00    +0.000 NA
ATOM     22  C   UNL     1      -0.149  10.320  22.308  0.00  0.00    +0.000 C 
ATOM     23  C   UNL     1       0.773   9.623  21.316  0.00  0.00    +0.000 C 
ATOM     24  C   UNL     1       0.251   9.682  19.864  0.00  0.00    +0.000 C 
ATOM     25  C   UNL     1      -0.079  11.155  19.532  0.00  0.00    +0.000 C 
ATOM     26  C   UNL     1      -0.974  11.798  20.598  0.00  0.00    +0.000 C 
ENDBRANCH  18  24
ENDBRANCH  17  18
ENDBRANCH   1  17
TORSDOF 5
ENDMDL
MODEL 9
REMARK VINA RESULT:      -7.3      2.419      4.270
REMARK  Name = 
REMARK  7 active torsions:
REMARK  status: ('A' for Active; 'I' for Inactive)
REMARK    1  A    between atoms: C_1  and  N_2
REMARK    2  A    between atoms: C_5  and  N_6
REMARK    3  A    between atoms: N_6  and  C_7
REMARK    4  A    between atoms: N_6  and  C_8
REMARK    5  A    between atoms: C_8  and  C_9
REMARK    6  A    between atoms: N_11  and  C_12
REMARK    7  A    between atoms: C_17  and  N_18
REMARK                            x       y       z     vdW  Elec       q    Type
REMARK                         _______ _______ _______ _____ _____    ______ ____
ROOT
ATOM      1  C   UNL     1       2.342   7.075  19.031  0.00  0.00    +0.000 C 
ATOM      2  O   UNL     1       2.492   6.751  20.205  0.00  0.00    +0.000 OA
ATOM      3  N   UNL     1       2.348   6.197  17.962  0.00  0.00    +0.000 N 
ATOM      4  H   UNL     1       2.572   6.596  17.069  0.00  0.00    +0.000 HD
ENDROOT
BRANCH   3   5
ATOM      5  C   UNL     1       2.546   4.816  18.088  0.00  0.00    +0.000 A 
ATOM      6  C   UNL     1       1.413   4.043  18.392  0.00  0.00    +0.000 A 
ATOM      7  C   UNL     1       1.478   2.651  18.382  0.00  0.00    +0.000 A 
ATOM      8  C   UNL     1       2.685   2.029  18.103  0.00  0.00    +0.000 A 
ATOM      9  C   UNL     1       3.813   2.804  17.820  0.00  0.00    +0.000 A 
ATOM     10  C   UNL     1       3.781   4.213  17.788  0.00  0.00    +0.000 A 
BRANCH  10  11
ATOM     11  N   UNL     1       4.965   4.869  17.452  0.00  0.00    +0.000 N 
ATOM     12  C   UNL     1       5.238   5.521  16.169  0.00  0.00    +0.000 C 
ATOM     13  C   UNL     1       6.750   5.460  15.899  0.00  0.00    +0.000 C 
ATOM     14  O   UNL     1       7.519   6.042  16.961  0.00  0.00    +0.000 OA
ATOM     15  C   UNL     1       7.228   5.379  18.206  0.00  0.00    +0.000 C 
ATOM     16  C   UNL     1       5.737   5.487  18.554  0.00  0.00    +0.000 C 
ENDBRANCH  10  11
ENDBRANCH   3   5
BRANCH   1  17
ATOM     17  C   UNL     1       2.213   8.549  18.586  0.00  0.00    +0.000 C 
BRANCH  17  18
ATOM     18  N   UNL     1       0.892   9.155  18.909  0.00  0.00    +0.000 NA
ATOM     19  C   UNL     1       0.229   9.693  17.713  0.00  0.00    +0.000 C 
BRANCH  18  24
ATOM     20  C   UNL     1       0.101  13.908  22.046  0.00  0.00    +0.000 C 
ATOM     21  N   UNL     1       0.075  12.785  21.108  0.00  0.00    +0.000 NA
ATOM     22  C   UNL     1       1.347  12.699  20.394  0.00  0.00    +0.000 C 
ATOM     23  C   UNL     1       1.322  11.578  19.364  0.00  0.00    +0.000 C 
ATOM     24  C   UNL     1       0.981  10.203  19.977  0.00  0.00    +0.000 C 
ATOM     25  C   UNL     1      -0.309  10.357  20.814  0.00  0.00    +0.000 C 
ATOM     26  C   UNL     1      -0.222  11.531  21.795  0.00  0.00    +0.000 C 
ENDBRANCH  18  24
ENDBRANCH  17  18
ENDBRANCH   1  17
TORSDOF 5
ENDMDL
