MODEL 1
REMARK VINA RESULT:      -7.0      0.000      0.000
REMARK  Name = 
REMARK  11 active torsions:
REMARK  status: ('A' for Active; 'I' for Inactive)
REMARK    1  A    between atoms: C_1  and  C_2
REMARK    2  A    between atoms: C_2  and  C_3
REMARK    3  A    between atoms: C_3  and  C_4
REMARK    4  A    between atoms: C_4  and  O_6
REMARK    5  A    between atoms: O_6  and  C_7
REMARK    6  A    between atoms: C_7  and  C_8
REMARK    7  A    between atoms: C_8  and  C_9
REMARK    8  A    between atoms: C_8  and  C_10
REMARK    9  A    between atoms: C_13  and  C_15
REMARK   10  A    between atoms: C_15  and  C_16
REMARK   11  A    between atoms: C_16  and  C_17
REMARK                            x       y       z     vdW  Elec       q    Type
REMARK                         _______ _______ _______ _____ _____    ______ ____
ROOT
ATOM      1  C   UNL     1       5.518   5.464  18.834  0.00  0.00    +0.000 C 
ATOM      2  C   UNL     1       4.211   5.863  18.089  0.00  0.00    +0.000 C 
ATOM      3  N   UNL     1       3.626   4.615  18.555  0.00  0.00    +0.000 N 
ATOM      4  C   UNL     1       2.396   4.077  18.213  0.00  0.00    +0.000 C 
ATOM      5  O   UNL     1       1.590   4.700  17.525  0.00  0.00    +0.000 OA
ATOM      6  C   UNL     1       4.777   4.135  19.123  0.00  0.00    +0.000 C 
ATOM      7  O   UNL     1       5.043   3.090  19.668  0.00  0.00    +0.000 OA
ENDROOT
BRANCH   1   8
ATOM      8  C   UNL     1       6.828   5.338  18.042  0.00  0.00    +0.000 C 
ATOM      9  C   UNL     1       7.307   6.732  17.628  0.00  0.00    +0.000 C 
BRANCH   8  10
ATOM     10  C   UNL     1       6.611   4.484  16.782  0.00  0.00    +0.000 C 
BRANCH  10  11
ATOM     11  O   UNL     1       7.593   4.796  15.780  0.00  0.00    +0.000 OA
BRANCH  11  12
ATOM     12  C   UNL     1       7.138   4.835  14.495  0.00  0.00    +0.000 C 
ATOM     13  O   UNL     1       7.595   5.546  13.612  0.00  0.00    +0.000 OA
BRANCH  12  14
ATOM     14  C   UNL     1       6.005   3.851  14.322  0.00  0.00    +0.000 C 
BRANCH  14  16
ATOM     15  C   UNL     1       6.011   2.793  12.010  0.00  0.00    +0.000 C 
ATOM     16  C   UNL     1       5.427   3.877  12.908  0.00  0.00    +0.000 C 
ENDBRANCH  14  16
ENDBRANCH  12  14
ENDBRANCH  11  12
ENDBRANCH  10  11
ENDBRANCH   8  10
ENDBRANCH   1   8
BRANCH   4  17
ATOM     17  C   UNL     1       2.112   2.691  18.768  0.00  0.00    +0.000 C 
BRANCH  17  18
ATOM     18  C   UNL     1       1.011   2.712  19.825  0.00  0.00    +0.000 C 
ATOM     19  C   UNL     1       1.534   3.236  21.153  0.00  0.00    +0.000 C 
ENDBRANCH  17  18
ENDBRANCH   4  17
TORSDOF 8
ENDMDL
MODEL 2
REMARK VINA RESULT:      -6.8      1.238      1.315
REMARK  Name = 
REMARK  11 active torsions:
REMARK  status: ('A' for Active; 'I' for Inactive)
REMARK    1  A    between atoms: C_1  and  C_2
REMARK    2  A    between atoms: C_2  and  C_3
REMARK    3  A    between atoms: C_3  and  C_4
REMARK    4  A    between atoms: C_4  and  O_6
REMARK    5  A    between atoms: O_6  and  C_7
REMARK    6  A    between atoms: C_7  and  C_8
REMARK    7  A    between atoms: C_8  and  C_9
REMARK    8  A    between atoms: C_8  and  C_10
REMARK    9  A    between atoms: C_13  and  C_15
REMARK   10  A    between atoms: C_15  and  C_16
REMARK   11  A    between atoms: C_16  and  C_17
REMARK                            x       y       z     vdW  Elec       q    Type
REMARK                         _______ _______ _______ _____ _____    ______ ____
ROOT
ATOM      1  C   UNL     1       4.887   5.285  17.351  0.00  0.00    +0.000 C 
ATOM      2  C   UNL     1       4.034   4.150  16.712  0.00  0.00    +0.000 C 
ATOM      3  N   UNL     1       3.147   4.240  17.862  0.00  0.00    +0.000 N 
ATOM      4  C   UNL     1       2.079   3.415  18.174  0.00  0.00    +0.000 C 
ATOM      5  O   UNL     1       1.694   2.541  17.400  0.00  0.00    +0.000 OA
ATOM      6  C   UNL     1       3.913   5.146  18.548  0.00  0.00    +0.000 C 
ATOM      7  O   UNL     1       3.801   5.645  19.642  0.00  0.00    +0.000 OA
ENDROOT
BRANCH   1   8
ATOM      8  C   UNL     1       6.369   5.028  17.664  0.00  0.00    +0.000 C 
ATOM      9  C   UNL     1       7.041   6.349  18.051  0.00  0.00    +0.000 C 
BRANCH   8  10
ATOM     10  C   UNL     1       7.081   4.440  16.436  0.00  0.00    +0.000 C 
BRANCH  10  11
ATOM     11  O   UNL     1       7.494   5.483  15.538  0.00  0.00    +0.000 OA
BRANCH  11  12
ATOM     12  C   UNL     1       7.426   5.184  14.209  0.00  0.00    +0.000 C 
ATOM     13  O   UNL     1       8.150   5.659  13.347  0.00  0.00    +0.000 OA
BRANCH  12  14
ATOM     14  C   UNL     1       6.341   4.160  13.969  0.00  0.00    +0.000 C 
BRANCH  14  16
ATOM     15  C   UNL     1       4.973   3.225  12.040  0.00  0.00    +0.000 C 
ATOM     16  C   UNL     1       6.357   3.624  12.539  0.00  0.00    +0.000 C 
ENDBRANCH  14  16
ENDBRANCH  12  14
ENDBRANCH  11  12
ENDBRANCH  10  11
ENDBRANCH   8  10
ENDBRANCH   1   8
BRANCH   4  17
ATOM     17  C   UNL     1       1.413   3.685  19.513  0.00  0.00    +0.000 C 
BRANCH  17  18
ATOM     18  C   UNL     1       1.777   2.632  20.556  0.00  0.00    +0.000 C 
ATOM     19  C   UNL     1       2.120   3.275  21.890  0.00  0.00    +0.000 C 
ENDBRANCH  17  18
ENDBRANCH   4  17
TORSDOF 8
ENDMDL
MODEL 3
REMARK VINA RESULT:      -6.5      1.417      2.172
REMARK  Name = 
REMARK  11 active torsions:
REMARK  status: ('A' for Active; 'I' for Inactive)
REMARK    1  A    between atoms: C_1  and  C_2
REMARK    2  A    between atoms: C_2  and  C_3
REMARK    3  A    between atoms: C_3  and  C_4
REMARK    4  A    between atoms: C_4  and  O_6
REMARK    5  A    between atoms: O_6  and  C_7
REMARK    6  A    between atoms: C_7  and  C_8
REMARK    7  A    between atoms: C_8  and  C_9
REMARK    8  A    between atoms: C_8  and  C_10
REMARK    9  A    between atoms: C_13  and  C_15
REMARK   10  A    between atoms: C_15  and  C_16
REMARK   11  A    between atoms: C_16  and  C_17
REMARK                            x       y       z     vdW  Elec       q    Type
REMARK                         _______ _______ _______ _____ _____    ______ ____
ROOT
ATOM      1  C   UNL     1       4.881   4.076  17.565  0.00  0.00    +0.000 C 
ATOM      2  C   UNL     1       5.083   3.662  19.051  0.00  0.00    +0.000 C 
ATOM      3  N   UNL     1       3.728   3.130  19.033  0.00  0.00    +0.000 N 
ATOM      4  C   UNL     1       3.001   2.629  20.100  0.00  0.00    +0.000 C 
ATOM      5  O   UNL     1       3.507   2.478  21.209  0.00  0.00    +0.000 OA
ATOM      6  C   UNL     1       3.429   3.579  17.772  0.00  0.00    +0.000 C 
ATOM      7  O   UNL     1       2.420   3.534  17.110  0.00  0.00    +0.000 OA
ENDROOT
BRANCH   1   8
ATOM      8  C   UNL     1       5.030   5.552  17.167  0.00  0.00    +0.000 C 
ATOM      9  C   UNL     1       3.750   6.307  17.535  0.00  0.00    +0.000 C 
BRANCH   8  10
ATOM     10  C   UNL     1       5.272   5.676  15.654  0.00  0.00    +0.000 C 
BRANCH  10  11
ATOM     11  O   UNL     1       6.678   5.745  15.367  0.00  0.00    +0.000 OA
BRANCH  11  12
ATOM     12  C   UNL     1       7.084   5.112  14.229  0.00  0.00    +0.000 C 
ATOM     13  O   UNL     1       8.044   5.443  13.548  0.00  0.00    +0.000 OA
BRANCH  12  14
ATOM     14  C   UNL     1       6.187   3.929  13.953  0.00  0.00    +0.000 C 
BRANCH  14  16
ATOM     15  C   UNL     1       4.865   3.283  11.879  0.00  0.00    +0.000 C 
ATOM     16  C   UNL     1       6.245   3.486  12.493  0.00  0.00    +0.000 C 
ENDBRANCH  14  16
ENDBRANCH  12  14
ENDBRANCH  11  12
ENDBRANCH  10  11
ENDBRANCH   8  10
ENDBRANCH   1   8
BRANCH   4  17
ATOM     17  C   UNL     1       1.559   2.260  19.792  0.00  0.00    +0.000 C 
BRANCH  17  18
ATOM     18  C   UNL     1       0.592   3.386  20.147  0.00  0.00    +0.000 C 
ATOM     19  C   UNL     1       1.338   4.630  20.600  0.00  0.00    +0.000 C 
ENDBRANCH  17  18
ENDBRANCH   4  17
TORSDOF 8
ENDMDL
MODEL 4
REMARK VINA RESULT:      -6.5      1.751      6.367
REMARK  Name = 
REMARK  11 active torsions:
REMARK  status: ('A' for Active; 'I' for Inactive)
REMARK    1  A    between atoms: C_1  and  C_2
REMARK    2  A    between atoms: C_2  and  C_3
REMARK    3  A    between atoms: C_3  and  C_4
REMARK    4  A    between atoms: C_4  and  O_6
REMARK    5  A    between atoms: O_6  and  C_7
REMARK    6  A    between atoms: C_7  and  C_8
REMARK    7  A    between atoms: C_8  and  C_9
REMARK    8  A    between atoms: C_8  and  C_10
REMARK    9  A    between atoms: C_13  and  C_15
REMARK   10  A    between atoms: C_15  and  C_16
REMARK   11  A    between atoms: C_16  and  C_17
REMARK                            x       y       z     vdW  Elec       q    Type
REMARK                         _______ _______ _______ _____ _____    ______ ____
ROOT
ATOM      1  C   UNL     1       4.764   6.965  17.459  0.00  0.00    +0.000 C 
ATOM      2  C   UNL     1       5.807   5.915  17.940  0.00  0.00    +0.000 C 
ATOM      3  N   UNL     1       6.207   5.752  16.550  0.00  0.00    +0.000 N 
ATOM      4  C   UNL     1       7.095   4.827  16.029  0.00  0.00    +0.000 C 
ATOM      5  O   UNL     1       7.750   4.082  16.755  0.00  0.00    +0.000 OA
ATOM      6  C   UNL     1       5.230   6.565  16.038  0.00  0.00    +0.000 C 
ATOM      7  O   UNL     1       4.925   6.858  14.906  0.00  0.00    +0.000 OA
ENDROOT
BRANCH   1   8
ATOM      8  C   UNL     1       3.274   6.741  17.760  0.00  0.00    +0.000 C 
ATOM      9  C   UNL     1       2.638   8.067  18.188  0.00  0.00    +0.000 C 
BRANCH   8  10
ATOM     10  C   UNL     1       3.106   5.712  18.890  0.00  0.00    +0.000 C 
BRANCH  10  11
ATOM     11  O   UNL     1       1.884   4.973  18.727  0.00  0.00    +0.000 OA
BRANCH  11  12
ATOM     12  C   UNL     1       2.015   3.718  18.208  0.00  0.00    +0.000 C 
ATOM     13  O   UNL     1       1.966   3.445  17.018  0.00  0.00    +0.000 OA
BRANCH  12  14
ATOM     14  C   UNL     1       2.253   2.726  19.321  0.00  0.00    +0.000 C 
BRANCH  14  16
ATOM     15  C   UNL     1       1.717   2.608  21.804  0.00  0.00    +0.000 C 
ATOM     16  C   UNL     1       1.167   2.787  20.394  0.00  0.00    +0.000 C 
ENDBRANCH  14  16
ENDBRANCH  12  14
ENDBRANCH  11  12
ENDBRANCH  10  11
ENDBRANCH   8  10
ENDBRANCH   1   8
BRANCH   4  17
ATOM     17  C   UNL     1       7.218   4.821  14.514  0.00  0.00    +0.000 C 
BRANCH  17  18
ATOM     18  C   UNL     1       6.256   3.828  13.866  0.00  0.00    +0.000 C 
ATOM     19  C   UNL     1       6.491   3.732  12.367  0.00  0.00    +0.000 C 
ENDBRANCH  17  18
ENDBRANCH   4  17
TORSDOF 8
ENDMDL
MODEL 5
REMARK VINA RESULT:      -6.4      1.435      2.259
REMARK  Name = 
REMARK  11 active torsions:
REMARK  status: ('A' for Active; 'I' for Inactive)
REMARK    1  A    between atoms: C_1  and  C_2
REMARK    2  A    between atoms: C_2  and  C_3
REMARK    3  A    between atoms: C_3  and  C_4
REMARK    4  A    between atoms: C_4  and  O_6
REMARK    5  A    between atoms: O_6  and  C_7
REMARK    6  A    between atoms: C_7  and  C_8
REMARK    7  A    between atoms: C_8  and  C_9
REMARK    8  A    between atoms: C_8  and  C_10
REMARK    9  A    between atoms: C_13  and  C_15
REMARK   10  A    between atoms: C_15  and  C_16
REMARK   11  A    between atoms: C_16  and  C_17
REMARK                            x       y       z     vdW  Elec       q    Type
REMARK                         _______ _______ _______ _____ _____    ______ ____
ROOT
ATOM      1  C   UNL     1       3.998   4.850  16.885  0.00  0.00    +0.000 C 
ATOM      2  C   UNL     1       4.428   3.445  17.396  0.00  0.00    +0.000 C 
ATOM      3  N   UNL     1       3.085   3.287  17.934  0.00  0.00    +0.000 N 
ATOM      4  C   UNL     1       2.606   2.258  18.728  0.00  0.00    +0.000 C 
ATOM      5  O   UNL     1       3.288   1.265  18.975  0.00  0.00    +0.000 OA
ATOM      6  C   UNL     1       2.673   4.559  17.632  0.00  0.00    +0.000 C 
ATOM      7  O   UNL     1       1.645   5.156  17.847  0.00  0.00    +0.000 OA
ENDROOT
BRANCH   1   8
ATOM      8  C   UNL     1       4.770   6.092  17.357  0.00  0.00    +0.000 C 
ATOM      9  C   UNL     1       3.780   7.222  17.654  0.00  0.00    +0.000 C 
BRANCH   8  10
ATOM     10  C   UNL     1       5.754   6.555  16.270  0.00  0.00    +0.000 C 
BRANCH  10  11
ATOM     11  O   UNL     1       5.583   5.788  15.068  0.00  0.00    +0.000 OA
BRANCH  11  12
ATOM     12  C   UNL     1       6.671   5.073  14.660  0.00  0.00    +0.000 C 
ATOM     13  O   UNL     1       7.831   5.444  14.761  0.00  0.00    +0.000 OA
BRANCH  12  14
ATOM     14  C   UNL     1       6.227   3.746  14.090  0.00  0.00    +0.000 C 
BRANCH  14  16
ATOM     15  C   UNL     1       5.095   3.154  11.892  0.00  0.00    +0.000 C 
ATOM     16  C   UNL     1       6.347   3.700  12.568  0.00  0.00    +0.000 C 
ENDBRANCH  14  16
ENDBRANCH  12  14
ENDBRANCH  11  12
ENDBRANCH  10  11
ENDBRANCH   8  10
ENDBRANCH   1   8
BRANCH   4  17
ATOM     17  C   UNL     1       1.186   2.433  19.240  0.00  0.00    +0.000 C 
BRANCH  17  18
ATOM     18  C   UNL     1       1.132   3.309  20.488  0.00  0.00    +0.000 C 
ATOM     19  C   UNL     1       1.577   2.538  21.721  0.00  0.00    +0.000 C 
ENDBRANCH  17  18
ENDBRANCH   4  17
TORSDOF 8
ENDMDL
MODEL 6
REMARK VINA RESULT:      -6.4      0.873      1.037
REMARK  Name = 
REMARK  11 active torsions:
REMARK  status: ('A' for Active; 'I' for Inactive)
REMARK    1  A    between atoms: C_1  and  C_2
REMARK    2  A    between atoms: C_2  and  C_3
REMARK    3  A    between atoms: C_3  and  C_4
REMARK    4  A    between atoms: C_4  and  O_6
REMARK    5  A    between atoms: O_6  and  C_7
REMARK    6  A    between atoms: C_7  and  C_8
REMARK    7  A    between atoms: C_8  and  C_9
REMARK    8  A    between atoms: C_8  and  C_10
REMARK    9  A    between atoms: C_13  and  C_15
REMARK   10  A    between atoms: C_15  and  C_16
REMARK   11  A    between atoms: C_16  and  C_17
REMARK                            x       y       z     vdW  Elec       q    Type
REMARK                         _______ _______ _______ _____ _____    ______ ____
ROOT
ATOM      1  C   UNL     1       5.852   5.452  19.245  0.00  0.00    +0.000 C 
ATOM      2  C   UNL     1       4.596   6.027  18.528  0.00  0.00    +0.000 C 
ATOM      3  N   UNL     1       3.942   4.748  18.759  0.00  0.00    +0.000 N 
ATOM      4  C   UNL     1       2.708   4.331  18.287  0.00  0.00    +0.000 C 
ATOM      5  O   UNL     1       1.959   5.095  17.682  0.00  0.00    +0.000 OA
ATOM      6  C   UNL     1       5.046   4.129  19.283  0.00  0.00    +0.000 C 
ATOM      7  O   UNL     1       5.246   2.998  19.658  0.00  0.00    +0.000 OA
ENDROOT
BRANCH   1   8
ATOM      8  C   UNL     1       7.190   5.395  18.493  0.00  0.00    +0.000 C 
ATOM      9  C   UNL     1       7.526   6.787  17.950  0.00  0.00    +0.000 C 
BRANCH   8  10
ATOM     10  C   UNL     1       7.104   4.404  17.322  0.00  0.00    +0.000 C 
BRANCH  10  11
ATOM     11  O   UNL     1       6.794   5.088  16.097  0.00  0.00    +0.000 OA
BRANCH  11  12
ATOM     12  C   UNL     1       5.900   4.464  15.277  0.00  0.00    +0.000 C 
ATOM     13  O   UNL     1       4.718   4.288  15.535  0.00  0.00    +0.000 OA
BRANCH  12  14
ATOM     14  C   UNL     1       6.583   4.047  13.997  0.00  0.00    +0.000 C 
BRANCH  14  16
ATOM     15  C   UNL     1       6.204   2.783  11.823  0.00  0.00    +0.000 C 
ATOM     16  C   UNL     1       5.585   3.656  12.908  0.00  0.00    +0.000 C 
ENDBRANCH  14  16
ENDBRANCH  12  14
ENDBRANCH  11  12
ENDBRANCH  10  11
ENDBRANCH   8  10
ENDBRANCH   1   8
BRANCH   4  17
ATOM     17  C   UNL     1       2.344   2.888  18.594  0.00  0.00    +0.000 C 
BRANCH  17  18
ATOM     18  C   UNL     1       1.045   2.782  19.388  0.00  0.00    +0.000 C 
ATOM     19  C   UNL     1       1.172   3.455  20.745  0.00  0.00    +0.000 C 
ENDBRANCH  17  18
ENDBRANCH   4  17
TORSDOF 8
ENDMDL
MODEL 7
REMARK VINA RESULT:      -6.3      0.969      1.148
REMARK  Name = 
REMARK  11 active torsions:
REMARK  status: ('A' for Active; 'I' for Inactive)
REMARK    1  A    between atoms: C_1  and  C_2
REMARK    2  A    between atoms: C_2  and  C_3
REMARK    3  A    between atoms: C_3  and  C_4
REMARK    4  A    between atoms: C_4  and  O_6
REMARK    5  A    between atoms: O_6  and  C_7
REMARK    6  A    between atoms: C_7  and  C_8
REMARK    7  A    between atoms: C_8  and  C_9
REMARK    8  A    between atoms: C_8  and  C_10
REMARK    9  A    between atoms: C_13  and  C_15
REMARK   10  A    between atoms: C_15  and  C_16
REMARK   11  A    between atoms: C_16  and  C_17
REMARK                            x       y       z     vdW  Elec       q    Type
REMARK                         _______ _______ _______ _____ _____    ______ ____
ROOT
ATOM      1  C   UNL     1       4.787   5.978  18.231  0.00  0.00    +0.000 C 
ATOM      2  C   UNL     1       3.324   5.938  17.704  0.00  0.00    +0.000 C 
ATOM      3  N   UNL     1       3.195   4.622  18.313  0.00  0.00    +0.000 N 
ATOM      4  C   UNL     1       2.132   3.741  18.207  0.00  0.00    +0.000 C 
ATOM      5  O   UNL     1       1.087   4.057  17.642  0.00  0.00    +0.000 OA
ATOM      6  C   UNL     1       4.508   4.527  18.696  0.00  0.00    +0.000 C 
ATOM      7  O   UNL     1       5.139   3.646  19.230  0.00  0.00    +0.000 OA
ENDROOT
BRANCH   1   8
ATOM      8  C   UNL     1       5.943   6.146  17.233  0.00  0.00    +0.000 C 
ATOM      9  C   UNL     1       6.778   7.369  17.626  0.00  0.00    +0.000 C 
BRANCH   8  10
ATOM     10  C   UNL     1       5.397   6.344  15.810  0.00  0.00    +0.000 C 
BRANCH  10  11
ATOM     11  O   UNL     1       6.356   5.910  14.832  0.00  0.00    +0.000 OA
BRANCH  11  12
ATOM     12  C   UNL     1       6.915   4.685  15.052  0.00  0.00    +0.000 C 
ATOM     13  O   UNL     1       7.850   4.468  15.809  0.00  0.00    +0.000 OA
BRANCH  12  14
ATOM     14  C   UNL     1       6.190   3.638  14.240  0.00  0.00    +0.000 C 
BRANCH  14  16
ATOM     15  C   UNL     1       5.517   2.907  11.900  0.00  0.00    +0.000 C 
ATOM     16  C   UNL     1       6.409   3.813  12.739  0.00  0.00    +0.000 C 
ENDBRANCH  14  16
ENDBRANCH  12  14
ENDBRANCH  11  12
ENDBRANCH  10  11
ENDBRANCH   8  10
ENDBRANCH   1   8
BRANCH   4  17
ATOM     17  C   UNL     1       2.341   2.383  18.858  0.00  0.00    +0.000 C 
BRANCH  17  18
ATOM     18  C   UNL     1       1.511   2.224  20.129  0.00  0.00    +0.000 C 
ATOM     19  C   UNL     1       1.731   3.390  21.079  0.00  0.00    +0.000 C 
ENDBRANCH  17  18
ENDBRANCH   4  17
TORSDOF 8
ENDMDL
MODEL 8
REMARK VINA RESULT:      -6.3      1.460      2.265
REMARK  Name = 
REMARK  11 active torsions:
REMARK  status: ('A' for Active; 'I' for Inactive)
REMARK    1  A    between atoms: C_1  and  C_2
REMARK    2  A    between atoms: C_2  and  C_3
REMARK    3  A    between atoms: C_3  and  C_4
REMARK    4  A    between atoms: C_4  and  O_6
REMARK    5  A    between atoms: O_6  and  C_7
REMARK    6  A    between atoms: C_7  and  C_8
REMARK    7  A    between atoms: C_8  and  C_9
REMARK    8  A    between atoms: C_8  and  C_10
REMARK    9  A    between atoms: C_13  and  C_15
REMARK   10  A    between atoms: C_15  and  C_16
REMARK   11  A    between atoms: C_16  and  C_17
REMARK                            x       y       z     vdW  Elec       q    Type
REMARK                         _______ _______ _______ _____ _____    ______ ____
ROOT
ATOM      1  C   UNL     1       4.593   4.558  16.778  0.00  0.00    +0.000 C 
ATOM      2  C   UNL     1       4.985   3.464  17.813  0.00  0.00    +0.000 C 
ATOM      3  N   UNL     1       3.833   3.871  18.603  0.00  0.00    +0.000 N 
ATOM      4  C   UNL     1       3.478   3.436  19.869  0.00  0.00    +0.000 C 
ATOM      5  O   UNL     1       4.085   2.527  20.431  0.00  0.00    +0.000 OA
ATOM      6  C   UNL     1       3.500   4.937  17.808  0.00  0.00    +0.000 C 
ATOM      7  O   UNL     1       2.645   5.785  17.898  0.00  0.00    +0.000 OA
ENDROOT
BRANCH   1   8
ATOM      8  C   UNL     1       5.600   5.667  16.436  0.00  0.00    +0.000 C 
ATOM      9  C   UNL     1       4.932   6.691  15.514  0.00  0.00    +0.000 C 
BRANCH   8  10
ATOM     10  C   UNL     1       6.828   5.074  15.727  0.00  0.00    +0.000 C 
BRANCH  10  11
ATOM     11  O   UNL     1       6.474   4.571  14.429  0.00  0.00    +0.000 OA
BRANCH  11  12
ATOM     12  C   UNL     1       7.320   4.902  13.412  0.00  0.00    +0.000 C 
ATOM     13  O   UNL     1       8.298   5.627  13.523  0.00  0.00    +0.000 OA
BRANCH  12  14
ATOM     14  C   UNL     1       6.884   4.217  12.139  0.00  0.00    +0.000 C 
BRANCH  14  16
ATOM     15  C   UNL     1       4.570   3.287  11.641  0.00  0.00    +0.000 C 
ATOM     16  C   UNL     1       5.879   3.096  12.399  0.00  0.00    +0.000 C 
ENDBRANCH  14  16
ENDBRANCH  12  14
ENDBRANCH  11  12
ENDBRANCH  10  11
ENDBRANCH   8  10
ENDBRANCH   1   8
BRANCH   4  17
ATOM     17  C   UNL     1       2.283   4.139  20.491  0.00  0.00    +0.000 C 
BRANCH  17  18
ATOM     18  C   UNL     1       1.065   3.224  20.581  0.00  0.00    +0.000 C 
ATOM     19  C   UNL     1       0.610   2.776  19.202  0.00  0.00    +0.000 C 
ENDBRANCH  17  18
ENDBRANCH   4  17
TORSDOF 8
ENDMDL
MODEL 9
REMARK VINA RESULT:      -6.3      0.944      1.258
REMARK  Name = 
REMARK  11 active torsions:
REMARK  status: ('A' for Active; 'I' for Inactive)
REMARK    1  A    between atoms: C_1  and  C_2
REMARK    2  A    between atoms: C_2  and  C_3
REMARK    3  A    between atoms: C_3  and  C_4
REMARK    4  A    between atoms: C_4  and  O_6
REMARK    5  A    between atoms: O_6  and  C_7
REMARK    6  A    between atoms: C_7  and  C_8
REMARK    7  A    between atoms: C_8  and  C_9
REMARK    8  A    between atoms: C_8  and  C_10
REMARK    9  A    between atoms: C_13  and  C_15
REMARK   10  A    between atoms: C_15  and  C_16
REMARK   11  A    between atoms: C_16  and  C_17
REMARK                            x       y       z     vdW  Elec       q    Type
REMARK                         _______ _______ _______ _____ _____    ______ ____
ROOT
ATOM      1  C   UNL     1       5.154   5.375  19.071  0.00  0.00    +0.000 C 
ATOM      2  C   UNL     1       3.877   5.719  18.251  0.00  0.00    +0.000 C 
ATOM      3  N   UNL     1       3.397   4.374  18.533  0.00  0.00    +0.000 N 
ATOM      4  C   UNL     1       2.267   3.754  18.025  0.00  0.00    +0.000 C 
ATOM      5  O   UNL     1       1.456   4.364  17.330  0.00  0.00    +0.000 OA
ATOM      6  C   UNL     1       4.544   3.954  19.155  0.00  0.00    +0.000 C 
ATOM      7  O   UNL     1       4.878   2.888  19.615  0.00  0.00    +0.000 OA
ENDROOT
BRANCH   1   8
ATOM      8  C   UNL     1       6.531   5.471  18.397  0.00  0.00    +0.000 C 
ATOM      9  C   UNL     1       7.585   5.833  19.446  0.00  0.00    +0.000 C 
BRANCH   8  10
ATOM     10  C   UNL     1       6.517   6.549  17.302  0.00  0.00    +0.000 C 
BRANCH  10  11
ATOM     11  O   UNL     1       6.681   5.958  16.003  0.00  0.00    +0.000 OA
BRANCH  11  12
ATOM     12  C   UNL     1       7.030   4.639  15.990  0.00  0.00    +0.000 C 
ATOM     13  O   UNL     1       8.023   4.173  16.529  0.00  0.00    +0.000 OA
BRANCH  12  14
ATOM     14  C   UNL     1       5.993   3.842  15.235  0.00  0.00    +0.000 C 
BRANCH  14  16
ATOM     15  C   UNL     1       5.852   3.388  12.737  0.00  0.00    +0.000 C 
ATOM     16  C   UNL     1       5.713   4.421  13.849  0.00  0.00    +0.000 C 
ENDBRANCH  14  16
ENDBRANCH  12  14
ENDBRANCH  11  12
ENDBRANCH  10  11
ENDBRANCH   8  10
ENDBRANCH   1   8
BRANCH   4  17
ATOM     17  C   UNL     1       2.094   2.294  18.409  0.00  0.00    +0.000 C 
BRANCH  17  18
ATOM     18  C   UNL     1       1.565   2.136  19.831  0.00  0.00    +0.000 C 
ATOM     19  C   UNL     1       0.908   3.416  20.320  0.00  0.00    +0.000 C 
ENDBRANCH  17  18
ENDBRANCH   4  17
TORSDOF 8
ENDMDL
