MODEL 1
REMARK VINA RESULT:      -8.8      0.000      0.000
REMARK  Name = 
REMARK  4 active torsions:
REMARK  status: ('A' for Active; 'I' for Inactive)
REMARK    1  A    between atoms: C_1  and  O_2
REMARK    2  A    between atoms: O_2  and  C_3
REMARK    3  A    between atoms: C_7  and  N_8
REMARK    4  A    between atoms: N_18  and  C_19
REMARK                            x       y       z     vdW  Elec       q    Type
REMARK                         _______ _______ _______ _____ _____    ______ ____
ROOT
ATOM      1  N   UNL     1       4.362   6.230  18.035  0.00  0.00    +0.000 N 
ATOM      2  C   UNL     1       3.679   5.497  19.056  0.00  0.00    +0.000 A 
ATOM      3  N   UNL     1       4.138   4.251  19.362  0.00  0.00    +0.000 NA
ATOM      4  C   UNL     1       3.437   3.670  20.361  0.00  0.00    +0.000 A 
ATOM      5  N   UNL     1       3.654   2.462  20.885  0.00  0.00    +0.000 NA
ATOM      6  O   UNL     1       2.679   2.328  21.872  0.00  0.00    +0.000 OA
ATOM      7  N   UNL     1       1.861   3.455  21.957  0.00  0.00    +0.000 NA
ATOM      8  C   UNL     1       2.328   4.284  21.026  0.00  0.00    +0.000 A 
ATOM      9  N   UNL     1       1.859   5.525  20.733  0.00  0.00    +0.000 NA
ATOM     10  C   UNL     1       2.562   6.119  19.728  0.00  0.00    +0.000 A 
ATOM     11  N   UNL     1       2.185   7.432  19.337  0.00  0.00    +0.000 N 
ATOM     12  H   UNL     1       4.705   7.100  18.432  0.00  0.00    +0.000 HD
ATOM     13  H   UNL     1       1.947   7.470  18.347  0.00  0.00    +0.000 HD
ENDROOT
BRANCH  11  14
ATOM     14  C   UNL     1       1.468   8.364  20.122  0.00  0.00    +0.000 A 
ATOM     15  C   UNL     1       1.484   8.296  21.523  0.00  0.00    +0.000 A 
ATOM     16  C   UNL     1       0.895   9.297  22.299  0.00  0.00    +0.000 A 
ATOM     17  C   UNL     1       0.263  10.377  21.687  0.00  0.00    +0.000 A 
ATOM     18  C   UNL     1       0.196  10.441  20.297  0.00  0.00    +0.000 A 
ATOM     19  C   UNL     1       0.799   9.443  19.530  0.00  0.00    +0.000 A 
ATOM     20  F   UNL     1       0.733   9.526  18.191  0.00  0.00    +0.000 F 
ENDBRANCH  11  14
BRANCH   1  25
ATOM     21  C   UNL     1       5.689   4.586  14.959  0.00  0.00    +0.000 A 
ATOM     22  C   UNL     1       7.018   4.381  15.324  0.00  0.00    +0.000 A 
ATOM     23  C   UNL     1       7.490   4.829  16.558  0.00  0.00    +0.000 A 
ATOM     24  C   UNL     1       6.618   5.460  17.457  0.00  0.00    +0.000 A 
ATOM     25  C   UNL     1       5.273   5.641  17.124  0.00  0.00    +0.000 A 
ATOM     26  C   UNL     1       4.841   5.240  15.849  0.00  0.00    +0.000 A 
BRANCH  21  28
ATOM     27  C   UNL     1       6.395   3.692  12.876  0.00  0.00    +0.000 C 
ATOM     28  O   UNL     1       5.331   4.103  13.730  0.00  0.00    +0.000 OA
ENDBRANCH  21  28
ENDBRANCH   1  25
TORSDOF 3
ENDMDL
MODEL 2
REMARK VINA RESULT:      -8.6      2.325      7.233
REMARK  Name = 
REMARK  4 active torsions:
REMARK  status: ('A' for Active; 'I' for Inactive)
REMARK    1  A    between atoms: C_1  and  O_2
REMARK    2  A    between atoms: O_2  and  C_3
REMARK    3  A    between atoms: C_7  and  N_8
REMARK    4  A    between atoms: N_18  and  C_19
REMARK                            x       y       z     vdW  Elec       q    Type
REMARK                         _______ _______ _______ _____ _____    ______ ____
ROOT
ATOM      1  N   UNL     1       2.511   7.569  18.644  0.00  0.00    +0.000 N 
ATOM      2  C   UNL     1       2.816   6.265  19.147  0.00  0.00    +0.000 A 
ATOM      3  N   UNL     1       2.036   5.769  20.147  0.00  0.00    +0.000 NA
ATOM      4  C   UNL     1       2.399   4.519  20.516  0.00  0.00    +0.000 A 
ATOM      5  N   UNL     1       1.820   3.771  21.458  0.00  0.00    +0.000 NA
ATOM      6  O   UNL     1       2.550   2.583  21.458  0.00  0.00    +0.000 OA
ATOM      7  N   UNL     1       3.578   2.599  20.516  0.00  0.00    +0.000 NA
ATOM      8  C   UNL     1       3.485   3.793  19.933  0.00  0.00    +0.000 A 
ATOM      9  N   UNL     1       4.272   4.274  18.936  0.00  0.00    +0.000 NA
ATOM     10  C   UNL     1       3.912   5.533  18.555  0.00  0.00    +0.000 A 
ATOM     11  N   UNL     1       4.643   6.145  17.503  0.00  0.00    +0.000 N 
ATOM     12  H   UNL     1       2.313   7.497  17.650  0.00  0.00    +0.000 HD
ATOM     13  H   UNL     1       5.053   7.029  17.802  0.00  0.00    +0.000 HD
ENDROOT
BRANCH  11  14
ATOM     14  C   UNL     1       5.407   5.479  16.518  0.00  0.00    +0.000 A 
ATOM     15  C   UNL     1       4.791   4.709  15.521  0.00  0.00    +0.000 A 
ATOM     16  C   UNL     1       5.532   4.168  14.467  0.00  0.00    +0.000 A 
ATOM     17  C   UNL     1       6.909   4.374  14.400  0.00  0.00    +0.000 A 
ATOM     18  C   UNL     1       7.548   5.098  15.406  0.00  0.00    +0.000 A 
ATOM     19  C   UNL     1       6.797   5.645  16.447  0.00  0.00    +0.000 A 
ATOM     20  F   UNL     1       7.428   6.348  17.401  0.00  0.00    +0.000 F 
ENDBRANCH  11  14
BRANCH   1  25
ATOM     21  C   UNL     1       0.656   9.284  21.391  0.00  0.00    +0.000 A 
ATOM     22  C   UNL     1      -0.082  10.218  20.666  0.00  0.00    +0.000 A 
ATOM     23  C   UNL     1       0.070  10.319  19.282  0.00  0.00    +0.000 A 
ATOM     24  C   UNL     1       0.942   9.455  18.605  0.00  0.00    +0.000 A 
ATOM     25  C   UNL     1       1.662   8.486  19.311  0.00  0.00    +0.000 A 
ATOM     26  C   UNL     1       1.541   8.451  20.710  0.00  0.00    +0.000 A 
BRANCH  21  28
ATOM     27  C   UNL     1      -0.693  10.016  23.202  0.00  0.00    +0.000 C 
ATOM     28  O   UNL     1       0.427   9.266  22.740  0.00  0.00    +0.000 OA
ENDBRANCH  21  28
ENDBRANCH   1  25
TORSDOF 3
ENDMDL
MODEL 3
REMARK VINA RESULT:      -8.6      2.536      7.010
REMARK  Name = 
REMARK  4 active torsions:
REMARK  status: ('A' for Active; 'I' for Inactive)
REMARK    1  A    between atoms: C_1  and  O_2
REMARK    2  A    between atoms: O_2  and  C_3
REMARK    3  A    between atoms: C_7  and  N_8
REMARK    4  A    between atoms: N_18  and  C_19
REMARK                            x       y       z     vdW  Elec       q    Type
REMARK                         _______ _______ _______ _____ _____    ______ ____
ROOT
ATOM      1  N   UNL     1       2.344   7.555  19.453  0.00  0.00    +0.000 N 
ATOM      2  C   UNL     1       2.529   6.171  19.763  0.00  0.00    +0.000 A 
ATOM      3  N   UNL     1       1.625   5.576  20.590  0.00  0.00    +0.000 NA
ATOM      4  C   UNL     1       1.884   4.263  20.783  0.00  0.00    +0.000 A 
ATOM      5  N   UNL     1       1.173   3.415  21.531  0.00  0.00    +0.000 NA
ATOM      6  O   UNL     1       1.839   2.197  21.406  0.00  0.00    +0.000 OA
ATOM      7  N   UNL     1       2.959   2.293  20.581  0.00  0.00    +0.000 NA
ATOM      8  C   UNL     1       2.988   3.567  20.195  0.00  0.00    +0.000 A 
ATOM      9  N   UNL     1       3.897   4.146  19.368  0.00  0.00    +0.000 NA
ATOM     10  C   UNL     1       3.642   5.470  19.167  0.00  0.00    +0.000 A 
ATOM     11  N   UNL     1       4.510   6.191  18.302  0.00  0.00    +0.000 N 
ATOM     12  H   UNL     1       2.248   7.654  18.446  0.00  0.00    +0.000 HD
ATOM     13  H   UNL     1       4.930   6.987  18.779  0.00  0.00    +0.000 HD
ENDROOT
BRANCH  11  14
ATOM     14  C   UNL     1       5.338   5.638  17.299  0.00  0.00    +0.000 A 
ATOM     15  C   UNL     1       4.956   5.662  15.950  0.00  0.00    +0.000 A 
ATOM     16  C   UNL     1       5.834   5.246  14.945  0.00  0.00    +0.000 A 
ATOM     17  C   UNL     1       7.106   4.783  15.274  0.00  0.00    +0.000 A 
ATOM     18  C   UNL     1       7.489   4.708  16.612  0.00  0.00    +0.000 A 
ATOM     19  C   UNL     1       6.610   5.138  17.607  0.00  0.00    +0.000 A 
ATOM     20  F   UNL     1       7.000   5.068  18.890  0.00  0.00    +0.000 F 
ENDBRANCH  11  14
BRANCH   1  25
ATOM     21  C   UNL     1      -0.207  10.181  20.175  0.00  0.00    +0.000 A 
ATOM     22  C   UNL     1      -0.186  10.192  21.569  0.00  0.00    +0.000 A 
ATOM     23  C   UNL     1       0.627   9.301  22.270  0.00  0.00    +0.000 A 
ATOM     24  C   UNL     1       1.457   8.410  21.575  0.00  0.00    +0.000 A 
ATOM     25  C   UNL     1       1.477   8.410  20.177  0.00  0.00    +0.000 A 
ATOM     26  C   UNL     1       0.600   9.271  19.497  0.00  0.00    +0.000 A 
BRANCH  21  28
ATOM     27  C   UNL     1      -1.323  10.901  18.207  0.00  0.00    +0.000 C 
ATOM     28  O   UNL     1      -1.035  11.100  19.588  0.00  0.00    +0.000 OA
ENDBRANCH  21  28
ENDBRANCH   1  25
TORSDOF 3
ENDMDL
MODEL 4
REMARK VINA RESULT:      -8.3      2.300      6.871
REMARK  Name = 
REMARK  4 active torsions:
REMARK  status: ('A' for Active; 'I' for Inactive)
REMARK    1  A    between atoms: C_1  and  O_2
REMARK    2  A    between atoms: O_2  and  C_3
REMARK    3  A    between atoms: C_7  and  N_8
REMARK    4  A    between atoms: N_18  and  C_19
REMARK                            x       y       z     vdW  Elec       q    Type
REMARK                         _______ _______ _______ _____ _____    ______ ____
ROOT
ATOM      1  N   UNL     1       2.364   7.695  19.498  0.00  0.00    +0.000 N 
ATOM      2  C   UNL     1       2.548   6.300  19.753  0.00  0.00    +0.000 A 
ATOM      3  N   UNL     1       1.604   5.658  20.497  0.00  0.00    +0.000 NA
ATOM      4  C   UNL     1       1.867   4.339  20.644  0.00  0.00    +0.000 A 
ATOM      5  N   UNL     1       1.125   3.451  21.308  0.00  0.00    +0.000 NA
ATOM      6  O   UNL     1       1.811   2.246  21.167  0.00  0.00    +0.000 OA
ATOM      7  N   UNL     1       2.976   2.392  20.414  0.00  0.00    +0.000 NA
ATOM      8  C   UNL     1       3.012   3.682  20.090  0.00  0.00    +0.000 A 
ATOM      9  N   UNL     1       3.961   4.308  19.347  0.00  0.00    +0.000 NA
ATOM     10  C   UNL     1       3.703   5.638  19.192  0.00  0.00    +0.000 A 
ATOM     11  N   UNL     1       4.610   6.406  18.415  0.00  0.00    +0.000 N 
ATOM     12  H   UNL     1       2.326   7.840  18.492  0.00  0.00    +0.000 HD
ATOM     13  H   UNL     1       4.992   7.183  18.952  0.00  0.00    +0.000 HD
ENDROOT
BRANCH  11  14
ATOM     14  C   UNL     1       5.502   5.909  17.438  0.00  0.00    +0.000 A 
ATOM     15  C   UNL     1       6.559   5.056  17.788  0.00  0.00    +0.000 A 
ATOM     16  C   UNL     1       7.352   4.452  16.809  0.00  0.00    +0.000 A 
ATOM     17  C   UNL     1       7.114   4.705  15.459  0.00  0.00    +0.000 A 
ATOM     18  C   UNL     1       6.098   5.586  15.091  0.00  0.00    +0.000 A 
ATOM     19  C   UNL     1       5.302   6.174  16.076  0.00  0.00    +0.000 A 
ATOM     20  F   UNL     1       4.322   7.012  15.702  0.00  0.00    +0.000 F 
ENDBRANCH  11  14
BRANCH   1  25
ATOM     21  C   UNL     1      -0.331  10.185  20.179  0.00  0.00    +0.000 A 
ATOM     22  C   UNL     1      -0.323  10.206  21.572  0.00  0.00    +0.000 A 
ATOM     23  C   UNL     1       0.530   9.364  22.287  0.00  0.00    +0.000 A 
ATOM     24  C   UNL     1       1.413   8.514  21.606  0.00  0.00    +0.000 A 
ATOM     25  C   UNL     1       1.446   8.507  20.208  0.00  0.00    +0.000 A 
ATOM     26  C   UNL     1       0.530   9.315  19.514  0.00  0.00    +0.000 A 
BRANCH  21  28
ATOM     27  C   UNL     1      -1.511  10.796  18.211  0.00  0.00    +0.000 C 
ATOM     28  O   UNL     1      -1.201  11.053  19.578  0.00  0.00    +0.000 OA
ENDBRANCH  21  28
ENDBRANCH   1  25
TORSDOF 3
ENDMDL
MODEL 5
REMARK VINA RESULT:      -8.2      3.973      4.998
REMARK  Name = 
REMARK  4 active torsions:
REMARK  status: ('A' for Active; 'I' for Inactive)
REMARK    1  A    between atoms: C_1  and  O_2
REMARK    2  A    between atoms: O_2  and  C_3
REMARK    3  A    between atoms: C_7  and  N_8
REMARK    4  A    between atoms: N_18  and  C_19
REMARK                            x       y       z     vdW  Elec       q    Type
REMARK                         _______ _______ _______ _____ _____    ______ ____
ROOT
ATOM      1  N   UNL     1       5.120   3.956  15.585  0.00  0.00    +0.000 N 
ATOM      2  C   UNL     1       5.725   4.396  16.803  0.00  0.00    +0.000 A 
ATOM      3  N   UNL     1       6.835   5.181  16.717  0.00  0.00    +0.000 NA
ATOM      4  C   UNL     1       7.297   5.561  17.930  0.00  0.00    +0.000 A 
ATOM      5  N   UNL     1       8.358   6.336  18.167  0.00  0.00    +0.000 NA
ATOM      6  O   UNL     1       8.416   6.433  19.556  0.00  0.00    +0.000 OA
ATOM      7  N   UNL     1       7.390   5.719  20.175  0.00  0.00    +0.000 NA
ATOM      8  C   UNL     1       6.699   5.181  19.173  0.00  0.00    +0.000 A 
ATOM      9  N   UNL     1       5.592   4.400  19.275  0.00  0.00    +0.000 NA
ATOM     10  C   UNL     1       5.118   4.014  18.057  0.00  0.00    +0.000 A 
ATOM     11  N   UNL     1       3.947   3.209  18.023  0.00  0.00    +0.000 N 
ATOM     12  H   UNL     1       4.159   4.287  15.559  0.00  0.00    +0.000 HD
ATOM     13  H   UNL     1       4.117   2.329  17.537  0.00  0.00    +0.000 HD
ENDROOT
BRANCH  11  14
ATOM     14  C   UNL     1       2.973   3.107  19.042  0.00  0.00    +0.000 A 
ATOM     15  C   UNL     1       3.283   2.541  20.287  0.00  0.00    +0.000 A 
ATOM     16  C   UNL     1       2.365   2.569  21.340  0.00  0.00    +0.000 A 
ATOM     17  C   UNL     1       1.111   3.150  21.161  0.00  0.00    +0.000 A 
ATOM     18  C   UNL     1       0.766   3.678  19.918  0.00  0.00    +0.000 A 
ATOM     19  C   UNL     1       1.694   3.657  18.876  0.00  0.00    +0.000 A 
ATOM     20  F   UNL     1       1.348   4.180  17.689  0.00  0.00    +0.000 F 
ENDBRANCH  11  14
BRANCH   1  25
ATOM     21  C   UNL     1       6.028   3.149  12.057  0.00  0.00    +0.000 A 
ATOM     22  C   UNL     1       7.068   4.052  11.840  0.00  0.00    +0.000 A 
ATOM     23  C   UNL     1       7.433   4.960  12.834  0.00  0.00    +0.000 A 
ATOM     24  C   UNL     1       6.780   4.947  14.074  0.00  0.00    +0.000 A 
ATOM     25  C   UNL     1       5.760   4.023  14.324  0.00  0.00    +0.000 A 
ATOM     26  C   UNL     1       5.367   3.166  13.282  0.00  0.00    +0.000 A 
BRANCH  21  28
ATOM     27  C   UNL     1       6.327   0.997  11.097  0.00  0.00    +0.000 C 
ATOM     28  O   UNL     1       5.755   2.300  11.018  0.00  0.00    +0.000 OA
ENDBRANCH  21  28
ENDBRANCH   1  25
TORSDOF 3
ENDMDL
MODEL 6
REMARK VINA RESULT:      -8.2      1.001      1.242
REMARK  Name = 
REMARK  4 active torsions:
REMARK  status: ('A' for Active; 'I' for Inactive)
REMARK    1  A    between atoms: C_1  and  O_2
REMARK    2  A    between atoms: O_2  and  C_3
REMARK    3  A    between atoms: C_7  and  N_8
REMARK    4  A    between atoms: N_18  and  C_19
REMARK                            x       y       z     vdW  Elec       q    Type
REMARK                         _______ _______ _______ _____ _____    ______ ____
ROOT
ATOM      1  N   UNL     1       4.156   5.867  17.598  0.00  0.00    +0.000 N 
ATOM      2  C   UNL     1       3.577   5.249  18.750  0.00  0.00    +0.000 A 
ATOM      3  N   UNL     1       4.032   4.017  19.110  0.00  0.00    +0.000 NA
ATOM      4  C   UNL     1       3.437   3.549  20.230  0.00  0.00    +0.000 A 
ATOM      5  N   UNL     1       3.679   2.381  20.830  0.00  0.00    +0.000 NA
ATOM      6  O   UNL     1       2.823   2.369  21.930  0.00  0.00    +0.000 OA
ATOM      7  N   UNL     1       2.054   3.529  22.009  0.00  0.00    +0.000 NA
ATOM      8  C   UNL     1       2.432   4.259  20.961  0.00  0.00    +0.000 A 
ATOM      9  N   UNL     1       1.968   5.488  20.616  0.00  0.00    +0.000 NA
ATOM     10  C   UNL     1       2.565   5.968  19.489  0.00  0.00    +0.000 A 
ATOM     11  N   UNL     1       2.183   7.258  19.030  0.00  0.00    +0.000 N 
ATOM     12  H   UNL     1       4.568   6.753  17.875  0.00  0.00    +0.000 HD
ATOM     13  H   UNL     1       1.832   7.222  18.074  0.00  0.00    +0.000 HD
ENDROOT
BRANCH  11  14
ATOM     14  C   UNL     1       1.591   8.279  19.807  0.00  0.00    +0.000 A 
ATOM     15  C   UNL     1       1.532   8.185  21.205  0.00  0.00    +0.000 A 
ATOM     16  C   UNL     1       1.077   9.254  21.981  0.00  0.00    +0.000 A 
ATOM     17  C   UNL     1       0.655  10.433  21.370  0.00  0.00    +0.000 A 
ATOM     18  C   UNL     1       0.662  10.531  19.980  0.00  0.00    +0.000 A 
ATOM     19  C   UNL     1       1.131   9.463  19.214  0.00  0.00    +0.000 A 
ATOM     20  F   UNL     1       1.139   9.579  17.876  0.00  0.00    +0.000 F 
ENDBRANCH  11  14
BRANCH   1  25
ATOM     21  C   UNL     1       6.839   5.133  15.111  0.00  0.00    +0.000 A 
ATOM     22  C   UNL     1       6.458   3.864  14.679  0.00  0.00    +0.000 A 
ATOM     23  C   UNL     1       5.351   3.229  15.243  0.00  0.00    +0.000 A 
ATOM     24  C   UNL     1       4.591   3.880  16.225  0.00  0.00    +0.000 A 
ATOM     25  C   UNL     1       4.936   5.169  16.644  0.00  0.00    +0.000 A 
ATOM     26  C   UNL     1       6.094   5.757  16.108  0.00  0.00    +0.000 A 
BRANCH  21  28
ATOM     27  C   UNL     1       8.069   5.393  13.096  0.00  0.00    +0.000 C 
ATOM     28  O   UNL     1       7.936   5.666  14.489  0.00  0.00    +0.000 OA
ENDBRANCH  21  28
ENDBRANCH   1  25
TORSDOF 3
ENDMDL
MODEL 7
REMARK VINA RESULT:      -8.1      2.139      7.156
REMARK  Name = 
REMARK  4 active torsions:
REMARK  status: ('A' for Active; 'I' for Inactive)
REMARK    1  A    between atoms: C_1  and  O_2
REMARK    2  A    between atoms: O_2  and  C_3
REMARK    3  A    between atoms: C_7  and  N_8
REMARK    4  A    between atoms: N_18  and  C_19
REMARK                            x       y       z     vdW  Elec       q    Type
REMARK                         _______ _______ _______ _____ _____    ______ ____
ROOT
ATOM      1  N   UNL     1       2.389   7.836  18.870  0.00  0.00    +0.000 N 
ATOM      2  C   UNL     1       2.617   6.493  19.306  0.00  0.00    +0.000 A 
ATOM      3  N   UNL     1       1.687   5.921  20.120  0.00  0.00    +0.000 NA
ATOM      4  C   UNL     1       1.992   4.642  20.438  0.00  0.00    +0.000 A 
ATOM      5  N   UNL     1       1.272   3.822  21.207  0.00  0.00    +0.000 NA
ATOM      6  O   UNL     1       1.999   2.634  21.228  0.00  0.00    +0.000 OA
ATOM      7  N   UNL     1       3.167   2.720  20.471  0.00  0.00    +0.000 NA
ATOM      8  C   UNL     1       3.164   3.958  19.982  0.00  0.00    +0.000 A 
ATOM      9  N   UNL     1       4.100   4.515  19.170  0.00  0.00    +0.000 NA
ATOM     10  C   UNL     1       3.799   5.804  18.843  0.00  0.00    +0.000 A 
ATOM     11  N   UNL     1       4.689   6.496  17.978  0.00  0.00    +0.000 N 
ATOM     12  H   UNL     1       2.358   7.849  17.854  0.00  0.00    +0.000 HD
ATOM     13  H   UNL     1       5.039   7.349  18.413  0.00  0.00    +0.000 HD
ENDROOT
BRANCH  11  14
ATOM     14  C   UNL     1       5.608   5.908  17.080  0.00  0.00    +0.000 A 
ATOM     15  C   UNL     1       6.621   5.052  17.536  0.00  0.00    +0.000 A 
ATOM     16  C   UNL     1       7.438   4.360  16.638  0.00  0.00    +0.000 A 
ATOM     17  C   UNL     1       7.267   4.525  15.265  0.00  0.00    +0.000 A 
ATOM     18  C   UNL     1       6.297   5.406  14.791  0.00  0.00    +0.000 A 
ATOM     19  C   UNL     1       5.477   6.083  15.695  0.00  0.00    +0.000 A 
ATOM     20  F   UNL     1       4.540   6.920  15.220  0.00  0.00    +0.000 F 
ENDBRANCH  11  14
BRANCH   1  25
ATOM     21  C   UNL     1       0.224   9.438  21.453  0.00  0.00    +0.000 A 
ATOM     22  C   UNL     1      -0.508  10.326  20.668  0.00  0.00    +0.000 A 
ATOM     23  C   UNL     1      -0.253  10.436  19.300  0.00  0.00    +0.000 A 
ATOM     24  C   UNL     1       0.719   9.625  18.698  0.00  0.00    +0.000 A 
ATOM     25  C   UNL     1       1.438   8.701  19.463  0.00  0.00    +0.000 A 
ATOM     26  C   UNL     1       1.208   8.659  20.849  0.00  0.00    +0.000 A 
BRANCH  21  28
ATOM     27  C   UNL     1      -0.984  10.434  23.238  0.00  0.00    +0.000 C 
ATOM     28  O   UNL     1      -0.110   9.406  22.780  0.00  0.00    +0.000 OA
ENDBRANCH  21  28
ENDBRANCH   1  25
TORSDOF 3
ENDMDL
MODEL 8
REMARK VINA RESULT:      -8.1      1.258      1.266
REMARK  Name = 
REMARK  4 active torsions:
REMARK  status: ('A' for Active; 'I' for Inactive)
REMARK    1  A    between atoms: C_1  and  O_2
REMARK    2  A    between atoms: O_2  and  C_3
REMARK    3  A    between atoms: C_7  and  N_8
REMARK    4  A    between atoms: N_18  and  C_19
REMARK                            x       y       z     vdW  Elec       q    Type
REMARK                         _______ _______ _______ _____ _____    ______ ____
ROOT
ATOM      1  N   UNL     1       4.460   6.055  17.190  0.00  0.00    +0.000 N 
ATOM      2  C   UNL     1       3.517   5.259  17.911  0.00  0.00    +0.000 A 
ATOM      3  N   UNL     1       3.702   3.909  17.927  0.00  0.00    +0.000 NA
ATOM      4  C   UNL     1       2.769   3.266  18.666  0.00  0.00    +0.000 A 
ATOM      5  N   UNL     1       2.693   1.950  18.876  0.00  0.00    +0.000 NA
ATOM      6  O   UNL     1       1.574   1.791  19.691  0.00  0.00    +0.000 OA
ATOM      7  N   UNL     1       0.960   3.009  19.984  0.00  0.00    +0.000 NA
ATOM      8  C   UNL     1       1.697   3.920  19.353  0.00  0.00    +0.000 A 
ATOM      9  N   UNL     1       1.500   5.264  19.347  0.00  0.00    +0.000 NA
ATOM     10  C   UNL     1       2.437   5.921  18.606  0.00  0.00    +0.000 A 
ATOM     11  N   UNL     1       2.357   7.337  18.535  0.00  0.00    +0.000 N 
ATOM     12  H   UNL     1       4.887   6.718  17.833  0.00  0.00    +0.000 HD
ATOM     13  H   UNL     1       2.279   7.656  17.570  0.00  0.00    +0.000 HD
ENDROOT
BRANCH  11  14
ATOM     14  C   UNL     1       1.704   8.185  19.459  0.00  0.00    +0.000 A 
ATOM     15  C   UNL     1       1.666   7.874  20.826  0.00  0.00    +0.000 A 
ATOM     16  C   UNL     1       1.147   8.778  21.757  0.00  0.00    +0.000 A 
ATOM     17  C   UNL     1       0.640  10.005  21.333  0.00  0.00    +0.000 A 
ATOM     18  C   UNL     1       0.625  10.314  19.974  0.00  0.00    +0.000 A 
ATOM     19  C   UNL     1       1.158   9.411  19.054  0.00  0.00    +0.000 A 
ATOM     20  F   UNL     1       1.146   9.730  17.750  0.00  0.00    +0.000 F 
ENDBRANCH  11  14
BRANCH   1  25
ATOM     21  C   UNL     1       5.792   4.343  14.154  0.00  0.00    +0.000 A 
ATOM     22  C   UNL     1       7.160   4.369  14.416  0.00  0.00    +0.000 A 
ATOM     23  C   UNL     1       7.648   4.996  15.563  0.00  0.00    +0.000 A 
ATOM     24  C   UNL     1       6.759   5.573  16.481  0.00  0.00    +0.000 A 
ATOM     25  C   UNL     1       5.380   5.524  16.254  0.00  0.00    +0.000 A 
ATOM     26  C   UNL     1       4.921   4.946  15.058  0.00  0.00    +0.000 A 
BRANCH  21  28
ATOM     27  C   UNL     1       6.474   3.320  12.122  0.00  0.00    +0.000 C 
ATOM     28  O   UNL     1       5.421   3.699  13.004  0.00  0.00    +0.000 OA
ENDBRANCH  21  28
ENDBRANCH   1  25
TORSDOF 3
ENDMDL
MODEL 9
REMARK VINA RESULT:      -8.0      2.848      7.121
REMARK  Name = 
REMARK  4 active torsions:
REMARK  status: ('A' for Active; 'I' for Inactive)
REMARK    1  A    between atoms: C_1  and  O_2
REMARK    2  A    between atoms: O_2  and  C_3
REMARK    3  A    between atoms: C_7  and  N_8
REMARK    4  A    between atoms: N_18  and  C_19
REMARK                            x       y       z     vdW  Elec       q    Type
REMARK                         _______ _______ _______ _____ _____    ______ ____
ROOT
ATOM      1  N   UNL     1       2.738   7.216  18.234  0.00  0.00    +0.000 N 
ATOM      2  C   UNL     1       2.745   5.794  18.391  0.00  0.00    +0.000 A 
ATOM      3  N   UNL     1       1.763   5.232  19.148  0.00  0.00    +0.000 NA
ATOM      4  C   UNL     1       1.853   3.883  19.196  0.00  0.00    +0.000 A 
ATOM      5  N   UNL     1       1.033   3.055  19.848  0.00  0.00    +0.000 NA
ATOM      6  O   UNL     1       1.542   1.784  19.590  0.00  0.00    +0.000 OA
ATOM      7  N   UNL     1       2.676   1.827  18.779  0.00  0.00    +0.000 NA
ATOM      8  C   UNL     1       2.869   3.122  18.535  0.00  0.00    +0.000 A 
ATOM      9  N   UNL     1       3.854   3.668  17.776  0.00  0.00    +0.000 NA
ATOM     10  C   UNL     1       3.769   5.027  17.720  0.00  0.00    +0.000 A 
ATOM     11  N   UNL     1       4.731   5.723  16.939  0.00  0.00    +0.000 N 
ATOM     12  H   UNL     1       2.668   7.435  17.244  0.00  0.00    +0.000 HD
ATOM     13  H   UNL     1       5.241   6.404  17.500  0.00  0.00    +0.000 HD
ENDROOT
BRANCH  11  14
ATOM     14  C   UNL     1       5.496   5.183  15.880  0.00  0.00    +0.000 A 
ATOM     15  C   UNL     1       4.890   4.461  14.842  0.00  0.00    +0.000 A 
ATOM     16  C   UNL     1       5.623   4.051  13.726  0.00  0.00    +0.000 A 
ATOM     17  C   UNL     1       6.983   4.341  13.636  0.00  0.00    +0.000 A 
ATOM     18  C   UNL     1       7.615   5.017  14.678  0.00  0.00    +0.000 A 
ATOM     19  C   UNL     1       6.872   5.434  15.782  0.00  0.00    +0.000 A 
ATOM     20  F   UNL     1       7.496   6.094  16.772  0.00  0.00    +0.000 F 
ENDBRANCH  11  14
BRANCH   1  25
ATOM     21  C   UNL     1       0.650  10.131  19.267  0.00  0.00    +0.000 A 
ATOM     22  C   UNL     1       0.539   9.902  20.637  0.00  0.00    +0.000 A 
ATOM     23  C   UNL     1       1.105   8.763  21.212  0.00  0.00    +0.000 A 
ATOM     24  C   UNL     1       1.823   7.857  20.418  0.00  0.00    +0.000 A 
ATOM     25  C   UNL     1       1.976   8.089  19.048  0.00  0.00    +0.000 A 
ATOM     26  C   UNL     1       1.339   9.208  18.485  0.00  0.00    +0.000 A 
BRANCH  21  28
ATOM     27  C   UNL     1      -1.344  11.226  18.587  0.00  0.00    +0.000 C 
ATOM     28  O   UNL     1       0.062  11.279  18.809  0.00  0.00    +0.000 OA
ENDBRANCH  21  28
ENDBRANCH   1  25
TORSDOF 3
ENDMDL
