MODEL 1
REMARK VINA RESULT:      -9.0      0.000      0.000
REMARK  Name = 
REMARK  4 active torsions:
REMARK  status: ('A' for Active; 'I' for Inactive)
REMARK    1  A    between atoms: C_1  and  C_2
REMARK    2  A    between atoms: C_9  and  C_10
REMARK    3  A    between atoms: N_20  and  C_21
REMARK    4  A    between atoms: C_21  and  C_22
REMARK                            x       y       z     vdW  Elec       q    Type
REMARK                         _______ _______ _______ _____ _____    ______ ____
ROOT
ATOM      1  C   UNL     1       1.207  10.531  17.991  0.00  0.00    +0.000 C 
ATOM      2  C   UNL     1       1.259   9.441  19.012  0.00  0.00    +0.000 A 
ATOM      3  C   UNL     1       0.453   9.611  20.173  0.00  0.00    +0.000 A 
ATOM      4  C   UNL     1       0.455   8.710  21.210  0.00  0.00    +0.000 A 
ATOM      5  C   UNL     1       1.309   7.643  21.117  0.00  0.00    +0.000 A 
ATOM      6  C   UNL     1       2.023   7.373  19.945  0.00  0.00    +0.000 A 
ATOM      7  C   UNL     1       2.027   8.261  18.878  0.00  0.00    +0.000 A 
ATOM      8  N   UNL     1       2.845   7.797  17.860  0.00  0.00    +0.000 NA
ATOM      9  C   UNL     1       3.300   6.618  18.261  0.00  0.00    +0.000 A 
ATOM     10  N   UNL     1       2.828   6.335  19.545  0.00  0.00    +0.000 N 
ENDROOT
BRANCH   9  11
ATOM     11  C   UNL     1       4.301   5.793  17.545  0.00  0.00    +0.000 A 
ATOM     12  C   UNL     1       3.738   4.828  16.661  0.00  0.00    +0.000 A 
ATOM     13  C   UNL     1       4.564   4.130  15.811  0.00  0.00    +0.000 A 
ATOM     14  C   UNL     1       5.902   4.077  16.153  0.00  0.00    +0.000 A 
ATOM     15  C   UNL     1       6.457   4.871  17.176  0.00  0.00    +0.000 A 
ATOM     16  C   UNL     1       7.702   4.590  17.728  0.00  0.00    +0.000 A 
ATOM     17  C   UNL     1       8.201   5.359  18.796  0.00  0.00    +0.000 A 
ATOM     18  C   UNL     1       8.154   6.729  18.670  0.00  0.00    +0.000 A 
ATOM     19  C   UNL     1       6.789   6.855  18.426  0.00  0.00    +0.000 A 
ATOM     20  C   UNL     1       5.778   5.922  17.730  0.00  0.00    +0.000 A 
ENDBRANCH   9  11
BRANCH  10  21
ATOM     21  C   UNL     1       3.235   5.155  20.289  0.00  0.00    +0.000 C 
BRANCH  21  22
ATOM     22  C   UNL     1       2.720   3.863  19.750  0.00  0.00    +0.000 A 
ATOM     23  C   UNL     1       1.340   3.607  19.727  0.00  0.00    +0.000 A 
ATOM     24  F   UNL     1       0.485   4.472  20.297  0.00  0.00    +0.000 F 
ATOM     25  C   UNL     1       0.877   2.360  19.365  0.00  0.00    +0.000 A 
ATOM     26  C   UNL     1       1.732   1.515  18.675  0.00  0.00    +0.000 A 
ATOM     27  C   UNL     1       3.109   1.735  18.719  0.00  0.00    +0.000 A 
ATOM     28  C   UNL     1       3.598   2.885  19.307  0.00  0.00    +0.000 A 
ATOM     29  F   UNL     1       4.917   3.056  19.449  0.00  0.00    +0.000 F 
ENDBRANCH  21  22
ENDBRANCH  10  21
TORSDOF 3
ENDMDL
MODEL 2
REMARK VINA RESULT:      -8.6      0.100      1.533
REMARK  Name = 
REMARK  4 active torsions:
REMARK  status: ('A' for Active; 'I' for Inactive)
REMARK    1  A    between atoms: C_1  and  C_2
REMARK    2  A    between atoms: C_9  and  C_10
REMARK    3  A    between atoms: N_20  and  C_21
REMARK    4  A    between atoms: C_21  and  C_22
REMARK                            x       y       z     vdW  Elec       q    Type
REMARK                         _______ _______ _______ _____ _____    ______ ____
ROOT
ATOM      1  C   UNL     1       1.186  10.508  18.012  0.00  0.00    +0.000 C 
ATOM      2  C   UNL     1       1.256   9.421  19.035  0.00  0.00    +0.000 A 
ATOM      3  C   UNL     1       0.462   9.589  20.205  0.00  0.00    +0.000 A 
ATOM      4  C   UNL     1       0.482   8.691  21.244  0.00  0.00    +0.000 A 
ATOM      5  C   UNL     1       1.341   7.628  21.144  0.00  0.00    +0.000 A 
ATOM      6  C   UNL     1       2.042   7.359  19.964  0.00  0.00    +0.000 A 
ATOM      7  C   UNL     1       2.029   8.245  18.894  0.00  0.00    +0.000 A 
ATOM      8  N   UNL     1       2.838   7.783  17.868  0.00  0.00    +0.000 NA
ATOM      9  C   UNL     1       3.305   6.607  18.267  0.00  0.00    +0.000 A 
ATOM     10  N   UNL     1       2.849   6.325  19.557  0.00  0.00    +0.000 N 
ENDROOT
BRANCH   9  11
ATOM     11  C   UNL     1       4.301   5.786  17.541  0.00  0.00    +0.000 A 
ATOM     12  C   UNL     1       3.734   4.823  16.659  0.00  0.00    +0.000 A 
ATOM     13  C   UNL     1       4.555   4.128  15.801  0.00  0.00    +0.000 A 
ATOM     14  C   UNL     1       5.895   4.077  16.133  0.00  0.00    +0.000 A 
ATOM     15  C   UNL     1       6.457   4.870  17.154  0.00  0.00    +0.000 A 
ATOM     16  C   UNL     1       7.706   4.591  17.695  0.00  0.00    +0.000 A 
ATOM     17  C   UNL     1       8.211   5.358  18.761  0.00  0.00    +0.000 A 
ATOM     18  C   UNL     1       8.162   6.729  18.640  0.00  0.00    +0.000 A 
ATOM     19  C   UNL     1       6.794   6.852  18.406  0.00  0.00    +0.000 A 
ATOM     20  C   UNL     1       5.780   5.918  17.715  0.00  0.00    +0.000 A 
ENDBRANCH   9  11
BRANCH  10  21
ATOM     21  C   UNL     1       3.271   5.149  20.299  0.00  0.00    +0.000 C 
BRANCH  21  22
ATOM     22  C   UNL     1       2.756   3.853  19.770  0.00  0.00    +0.000 A 
ATOM     23  C   UNL     1       3.651   2.863  19.332  0.00  0.00    +0.000 A 
ATOM     24  F   UNL     1       4.968   3.123  19.277  0.00  0.00    +0.000 F 
ATOM     25  C   UNL     1       3.174   1.729  18.711  0.00  0.00    +0.000 A 
ATOM     26  C   UNL     1       1.835   1.407  18.868  0.00  0.00    +0.000 A 
ATOM     27  C   UNL     1       0.928   2.389  19.265  0.00  0.00    +0.000 A 
ATOM     28  C   UNL     1       1.392   3.628  19.663  0.00  0.00    +0.000 A 
ATOM     29  F   UNL     1       0.528   4.609  19.945  0.00  0.00    +0.000 F 
ENDBRANCH  21  22
ENDBRANCH  10  21
TORSDOF 3
ENDMDL
MODEL 3
REMARK VINA RESULT:      -7.9      1.263      1.531
REMARK  Name = 
REMARK  4 active torsions:
REMARK  status: ('A' for Active; 'I' for Inactive)
REMARK    1  A    between atoms: C_1  and  C_2
REMARK    2  A    between atoms: C_9  and  C_10
REMARK    3  A    between atoms: N_20  and  C_21
REMARK    4  A    between atoms: C_21  and  C_22
REMARK                            x       y       z     vdW  Elec       q    Type
REMARK                         _______ _______ _______ _____ _____    ______ ____
ROOT
ATOM      1  C   UNL     1       1.383  10.844  17.918  0.00  0.00    +0.000 C 
ATOM      2  C   UNL     1       1.469   9.623  18.776  0.00  0.00    +0.000 A 
ATOM      3  C   UNL     1       0.611   9.575  19.910  0.00  0.00    +0.000 A 
ATOM      4  C   UNL     1       0.634   8.536  20.808  0.00  0.00    +0.000 A 
ATOM      5  C   UNL     1       1.560   7.547  20.605  0.00  0.00    +0.000 A 
ATOM      6  C   UNL     1       2.333   7.492  19.441  0.00  0.00    +0.000 A 
ATOM      7  C   UNL     1       2.318   8.523  18.511  0.00  0.00    +0.000 A 
ATOM      8  N   UNL     1       3.203   8.261  17.477  0.00  0.00    +0.000 NA
ATOM      9  C   UNL     1       3.720   7.065  17.729  0.00  0.00    +0.000 A 
ATOM     10  N   UNL     1       3.220   6.573  18.936  0.00  0.00    +0.000 N 
ENDROOT
BRANCH   9  11
ATOM     11  C   UNL     1       4.799   6.414  16.950  0.00  0.00    +0.000 A 
ATOM     12  C   UNL     1       4.433   6.071  15.617  0.00  0.00    +0.000 A 
ATOM     13  C   UNL     1       5.399   5.627  14.745  0.00  0.00    +0.000 A 
ATOM     14  C   UNL     1       6.558   5.128  15.308  0.00  0.00    +0.000 A 
ATOM     15  C   UNL     1       6.858   5.265  16.679  0.00  0.00    +0.000 A 
ATOM     16  C   UNL     1       7.842   4.499  17.293  0.00  0.00    +0.000 A 
ATOM     17  C   UNL     1       8.072   4.607  18.677  0.00  0.00    +0.000 A 
ATOM     18  C   UNL     1       8.208   5.872  19.204  0.00  0.00    +0.000 A 
ATOM     19  C   UNL     1       7.001   6.400  18.752  0.00  0.00    +0.000 A 
ATOM     20  C   UNL     1       6.156   6.109  17.495  0.00  0.00    +0.000 A 
ENDBRANCH   9  11
BRANCH  10  21
ATOM     21  C   UNL     1       3.676   5.325  19.524  0.00  0.00    +0.000 C 
BRANCH  21  22
ATOM     22  C   UNL     1       2.638   4.257  19.618  0.00  0.00    +0.000 A 
ATOM     23  C   UNL     1       2.182   3.613  18.457  0.00  0.00    +0.000 A 
ATOM     24  F   UNL     1       2.589   4.034  17.248  0.00  0.00    +0.000 F 
ATOM     25  C   UNL     1       1.123   2.733  18.529  0.00  0.00    +0.000 A 
ATOM     26  C   UNL     1       0.781   2.214  19.768  0.00  0.00    +0.000 A 
ATOM     27  C   UNL     1       1.196   2.865  20.930  0.00  0.00    +0.000 A 
ATOM     28  C   UNL     1       2.082   3.921  20.843  0.00  0.00    +0.000 A 
ATOM     29  F   UNL     1       2.404   4.619  21.937  0.00  0.00    +0.000 F 
ENDBRANCH  21  22
ENDBRANCH  10  21
TORSDOF 3
ENDMDL
MODEL 4
REMARK VINA RESULT:      -7.8      1.676      4.811
REMARK  Name = 
REMARK  4 active torsions:
REMARK  status: ('A' for Active; 'I' for Inactive)
REMARK    1  A    between atoms: C_1  and  C_2
REMARK    2  A    between atoms: C_9  and  C_10
REMARK    3  A    between atoms: N_20  and  C_21
REMARK    4  A    between atoms: C_21  and  C_22
REMARK                            x       y       z     vdW  Elec       q    Type
REMARK                         _______ _______ _______ _____ _____    ______ ____
ROOT
ATOM      1  C   UNL     1      -0.023   9.835  20.940  0.00  0.00    +0.000 C 
ATOM      2  C   UNL     1       0.944   9.462  19.864  0.00  0.00    +0.000 A 
ATOM      3  C   UNL     1       1.332  10.495  18.964  0.00  0.00    +0.000 A 
ATOM      4  C   UNL     1       2.168  10.268  17.899  0.00  0.00    +0.000 A 
ATOM      5  C   UNL     1       2.593   8.983  17.692  0.00  0.00    +0.000 A 
ATOM      6  C   UNL     1       2.340   7.967  18.619  0.00  0.00    +0.000 A 
ATOM      7  C   UNL     1       1.508   8.173  19.711  0.00  0.00    +0.000 A 
ATOM      8  N   UNL     1       1.372   7.008  20.448  0.00  0.00    +0.000 NA
ATOM      9  C   UNL     1       2.147   6.107  19.860  0.00  0.00    +0.000 A 
ATOM     10  N   UNL     1       2.742   6.658  18.723  0.00  0.00    +0.000 N 
ENDROOT
BRANCH   9  11
ATOM     11  C   UNL     1       2.239   4.676  20.234  0.00  0.00    +0.000 A 
ATOM     12  C   UNL     1       2.250   4.439  21.638  0.00  0.00    +0.000 A 
ATOM     13  C   UNL     1       2.152   3.149  22.105  0.00  0.00    +0.000 A 
ATOM     14  C   UNL     1       2.486   2.143  21.218  0.00  0.00    +0.000 A 
ATOM     15  C   UNL     1       2.693   2.379  19.844  0.00  0.00    +0.000 A 
ATOM     16  C   UNL     1       3.331   1.451  19.029  0.00  0.00    +0.000 A 
ATOM     17  C   UNL     1       3.587   1.743  17.676  0.00  0.00    +0.000 A 
ATOM     18  C   UNL     1       2.545   2.238  16.924  0.00  0.00    +0.000 A 
ATOM     19  C   UNL     1       2.231   3.332  17.725  0.00  0.00    +0.000 A 
ATOM     20  C   UNL     1       2.338   3.558  19.247  0.00  0.00    +0.000 A 
ENDBRANCH   9  11
BRANCH  10  21
ATOM     21  C   UNL     1       3.570   5.882  17.816  0.00  0.00    +0.000 C 
BRANCH  21  22
ATOM     22  C   UNL     1       5.039   6.091  17.971  0.00  0.00    +0.000 A 
ATOM     23  C   UNL     1       5.732   6.928  17.082  0.00  0.00    +0.000 A 
ATOM     24  F   UNL     1       5.099   7.450  16.017  0.00  0.00    +0.000 F 
ATOM     25  C   UNL     1       7.107   7.004  17.137  0.00  0.00    +0.000 A 
ATOM     26  C   UNL     1       7.744   6.568  18.288  0.00  0.00    +0.000 A 
ATOM     27  C   UNL     1       7.082   5.706  19.162  0.00  0.00    +0.000 A 
ATOM     28  C   UNL     1       5.744   5.429  18.966  0.00  0.00    +0.000 A 
ATOM     29  F   UNL     1       5.126   4.524  19.733  0.00  0.00    +0.000 F 
ENDBRANCH  21  22
ENDBRANCH  10  21
TORSDOF 3
ENDMDL
MODEL 5
REMARK VINA RESULT:      -7.7      0.847      2.158
REMARK  Name = 
REMARK  4 active torsions:
REMARK  status: ('A' for Active; 'I' for Inactive)
REMARK    1  A    between atoms: C_1  and  C_2
REMARK    2  A    between atoms: C_9  and  C_10
REMARK    3  A    between atoms: N_20  and  C_21
REMARK    4  A    between atoms: C_21  and  C_22
REMARK                            x       y       z     vdW  Elec       q    Type
REMARK                         _______ _______ _______ _____ _____    ______ ____
ROOT
ATOM      1  C   UNL     1       2.134  10.499  17.552  0.00  0.00    +0.000 C 
ATOM      2  C   UNL     1       1.880   9.371  18.499  0.00  0.00    +0.000 A 
ATOM      3  C   UNL     1       0.733   9.481  19.334  0.00  0.00    +0.000 A 
ATOM      4  C   UNL     1       0.422   8.541  20.285  0.00  0.00    +0.000 A 
ATOM      5  C   UNL     1       1.290   7.493  20.446  0.00  0.00    +0.000 A 
ATOM      6  C   UNL     1       2.356   7.282  19.567  0.00  0.00    +0.000 A 
ATOM      7  C   UNL     1       2.685   8.211  18.588  0.00  0.00    +0.000 A 
ATOM      8  N   UNL     1       3.806   7.802  17.883  0.00  0.00    +0.000 NA
ATOM      9  C   UNL     1       4.139   6.616  18.375  0.00  0.00    +0.000 A 
ATOM     10  N   UNL     1       3.280   6.275  19.422  0.00  0.00    +0.000 N 
ENDROOT
BRANCH   9  11
ATOM     11  C   UNL     1       5.343   5.838  18.003  0.00  0.00    +0.000 A 
ATOM     12  C   UNL     1       6.386   5.876  18.972  0.00  0.00    +0.000 A 
ATOM     13  C   UNL     1       7.477   5.051  18.821  0.00  0.00    +0.000 A 
ATOM     14  C   UNL     1       7.713   4.564  17.550  0.00  0.00    +0.000 A 
ATOM     15  C   UNL     1       6.782   4.697  16.500  0.00  0.00    +0.000 A 
ATOM     16  C   UNL     1       7.144   4.501  15.172  0.00  0.00    +0.000 A 
ATOM     17  C   UNL     1       6.211   4.708  14.139  0.00  0.00    +0.000 A 
ATOM     18  C   UNL     1       4.972   4.123  14.272  0.00  0.00    +0.000 A 
ATOM     19  C   UNL     1       4.632   4.670  15.507  0.00  0.00    +0.000 A 
ATOM     20  C   UNL     1       5.490   5.087  16.719  0.00  0.00    +0.000 A 
ENDBRANCH   9  11
BRANCH  10  21
ATOM     21  C   UNL     1       3.454   5.075  20.222  0.00  0.00    +0.000 C 
BRANCH  21  22
ATOM     22  C   UNL     1       2.816   3.847  19.662  0.00  0.00    +0.000 A 
ATOM     23  C   UNL     1       1.426   3.675  19.743  0.00  0.00    +0.000 A 
ATOM     24  F   UNL     1       0.676   4.556  20.427  0.00  0.00    +0.000 F 
ATOM     25  C   UNL     1       0.856   2.480  19.358  0.00  0.00    +0.000 A 
ATOM     26  C   UNL     1       1.597   1.627  18.555  0.00  0.00    +0.000 A 
ATOM     27  C   UNL     1       2.984   1.762  18.495  0.00  0.00    +0.000 A 
ATOM     28  C   UNL     1       3.592   2.846  19.097  0.00  0.00    +0.000 A 
ATOM     29  F   UNL     1       4.926   2.931  19.136  0.00  0.00    +0.000 F 
ENDBRANCH  21  22
ENDBRANCH  10  21
TORSDOF 3
ENDMDL
MODEL 6
REMARK VINA RESULT:      -7.6      1.790      6.228
REMARK  Name = 
REMARK  4 active torsions:
REMARK  status: ('A' for Active; 'I' for Inactive)
REMARK    1  A    between atoms: C_1  and  C_2
REMARK    2  A    between atoms: C_9  and  C_10
REMARK    3  A    between atoms: N_20  and  C_21
REMARK    4  A    between atoms: C_21  and  C_22
REMARK                            x       y       z     vdW  Elec       q    Type
REMARK                         _______ _______ _______ _____ _____    ______ ____
ROOT
ATOM      1  C   UNL     1       1.355   2.693  21.918  0.00  0.00    +0.000 C 
ATOM      2  C   UNL     1       2.494   3.075  21.030  0.00  0.00    +0.000 A 
ATOM      3  C   UNL     1       3.496   2.088  20.811  0.00  0.00    +0.000 A 
ATOM      4  C   UNL     1       4.622   2.332  20.064  0.00  0.00    +0.000 A 
ATOM      5  C   UNL     1       4.783   3.596  19.560  0.00  0.00    +0.000 A 
ATOM      6  C   UNL     1       3.769   4.555  19.645  0.00  0.00    +0.000 A 
ATOM      7  C   UNL     1       2.615   4.328  20.384  0.00  0.00    +0.000 A 
ATOM      8  N   UNL     1       1.791   5.442  20.358  0.00  0.00    +0.000 NA
ATOM      9  C   UNL     1       2.392   6.327  19.574  0.00  0.00    +0.000 A 
ATOM     10  N   UNL     1       3.617   5.821  19.134  0.00  0.00    +0.000 N 
ENDROOT
BRANCH   9  11
ATOM     11  C   UNL     1       1.934   7.715  19.334  0.00  0.00    +0.000 A 
ATOM     12  C   UNL     1       2.408   8.286  18.119  0.00  0.00    +0.000 A 
ATOM     13  C   UNL     1       1.907   9.498  17.703  0.00  0.00    +0.000 A 
ATOM     14  C   UNL     1       1.317  10.289  18.670  0.00  0.00    +0.000 A 
ATOM     15  C   UNL     1       1.023   9.815  19.965  0.00  0.00    +0.000 A 
ATOM     16  C   UNL     1       0.736  10.681  21.014  0.00  0.00    +0.000 A 
ATOM     17  C   UNL     1       0.515  10.183  22.311  0.00  0.00    +0.000 A 
ATOM     18  C   UNL     1      -0.365   9.133  22.450  0.00  0.00    +0.000 A 
ATOM     19  C   UNL     1       0.247   8.250  21.564  0.00  0.00    +0.000 A 
ATOM     20  C   UNL     1       1.067   8.484  20.279  0.00  0.00    +0.000 A 
ENDBRANCH   9  11
BRANCH  10  21
ATOM     21  C   UNL     1       4.548   6.601  18.336  0.00  0.00    +0.000 C 
BRANCH  21  22
ATOM     22  C   UNL     1       5.301   5.824  17.309  0.00  0.00    +0.000 A 
ATOM     23  C   UNL     1       4.621   4.952  16.444  0.00  0.00    +0.000 A 
ATOM     24  F   UNL     1       3.307   4.724  16.613  0.00  0.00    +0.000 F 
ATOM     25  C   UNL     1       5.331   4.129  15.597  0.00  0.00    +0.000 A 
ATOM     26  C   UNL     1       6.657   4.438  15.338  0.00  0.00    +0.000 A 
ATOM     27  C   UNL     1       7.357   5.273  16.209  0.00  0.00    +0.000 A 
ATOM     28  C   UNL     1       6.682   5.919  17.226  0.00  0.00    +0.000 A 
ATOM     29  F   UNL     1       7.358   6.637  18.129  0.00  0.00    +0.000 F 
ENDBRANCH  21  22
ENDBRANCH  10  21
TORSDOF 3
ENDMDL
MODEL 7
REMARK VINA RESULT:      -7.4      1.815      6.339
REMARK  Name = 
REMARK  4 active torsions:
REMARK  status: ('A' for Active; 'I' for Inactive)
REMARK    1  A    between atoms: C_1  and  C_2
REMARK    2  A    between atoms: C_9  and  C_10
REMARK    3  A    between atoms: N_20  and  C_21
REMARK    4  A    between atoms: C_21  and  C_22
REMARK                            x       y       z     vdW  Elec       q    Type
REMARK                         _______ _______ _______ _____ _____    ______ ____
ROOT
ATOM      1  C   UNL     1       1.309   2.639  21.905  0.00  0.00    +0.000 C 
ATOM      2  C   UNL     1       2.474   3.018  21.050  0.00  0.00    +0.000 A 
ATOM      3  C   UNL     1       3.481   2.030  20.863  0.00  0.00    +0.000 A 
ATOM      4  C   UNL     1       4.628   2.273  20.148  0.00  0.00    +0.000 A 
ATOM      5  C   UNL     1       4.805   3.535  19.647  0.00  0.00    +0.000 A 
ATOM      6  C   UNL     1       3.789   4.495  19.700  0.00  0.00    +0.000 A 
ATOM      7  C   UNL     1       2.614   4.270  20.405  0.00  0.00    +0.000 A 
ATOM      8  N   UNL     1       1.792   5.384  20.353  0.00  0.00    +0.000 NA
ATOM      9  C   UNL     1       2.416   6.267  19.584  0.00  0.00    +0.000 A 
ATOM     10  N   UNL     1       3.652   5.759  19.181  0.00  0.00    +0.000 N 
ENDROOT
BRANCH   9  11
ATOM     11  C   UNL     1       1.964   7.654  19.328  0.00  0.00    +0.000 A 
ATOM     12  C   UNL     1       2.443   8.209  18.107  0.00  0.00    +0.000 A 
ATOM     13  C   UNL     1       1.949   9.418  17.676  0.00  0.00    +0.000 A 
ATOM     14  C   UNL     1       1.362  10.224  18.633  0.00  0.00    +0.000 A 
ATOM     15  C   UNL     1       1.064   9.766  19.933  0.00  0.00    +0.000 A 
ATOM     16  C   UNL     1       0.781  10.645  20.972  0.00  0.00    +0.000 A 
ATOM     17  C   UNL     1       0.556  10.163  22.275  0.00  0.00    +0.000 A 
ATOM     18  C   UNL     1      -0.330   9.120  22.424  0.00  0.00    +0.000 A 
ATOM     19  C   UNL     1       0.278   8.224  21.549  0.00  0.00    +0.000 A 
ATOM     20  C   UNL     1       1.101   8.439  20.262  0.00  0.00    +0.000 A 
ENDBRANCH   9  11
BRANCH  10  21
ATOM     21  C   UNL     1       4.606   6.537  18.409  0.00  0.00    +0.000 C 
BRANCH  21  22
ATOM     22  C   UNL     1       5.300   5.784  17.323  0.00  0.00    +0.000 A 
ATOM     23  C   UNL     1       6.667   5.991  17.083  0.00  0.00    +0.000 A 
ATOM     24  F   UNL     1       7.331   6.950  17.749  0.00  0.00    +0.000 F 
ATOM     25  C   UNL     1       7.270   5.406  15.990  0.00  0.00    +0.000 A 
ATOM     26  C   UNL     1       6.631   4.340  15.378  0.00  0.00    +0.000 A 
ATOM     27  C   UNL     1       5.264   4.145  15.577  0.00  0.00    +0.000 A 
ATOM     28  C   UNL     1       4.594   4.908  16.512  0.00  0.00    +0.000 A 
ATOM     29  F   UNL     1       3.266   4.804  16.637  0.00  0.00    +0.000 F 
ENDBRANCH  21  22
ENDBRANCH  10  21
TORSDOF 3
ENDMDL
MODEL 8
REMARK VINA RESULT:      -7.4      1.452      5.644
REMARK  Name = 
REMARK  4 active torsions:
REMARK  status: ('A' for Active; 'I' for Inactive)
REMARK    1  A    between atoms: C_1  and  C_2
REMARK    2  A    between atoms: C_9  and  C_10
REMARK    3  A    between atoms: N_20  and  C_21
REMARK    4  A    between atoms: C_21  and  C_22
REMARK                            x       y       z     vdW  Elec       q    Type
REMARK                         _______ _______ _______ _____ _____    ______ ____
ROOT
ATOM      1  C   UNL     1       7.367   7.912  17.405  0.00  0.00    +0.000 C 
ATOM      2  C   UNL     1       6.392   6.780  17.418  0.00  0.00    +0.000 A 
ATOM      3  C   UNL     1       6.912   5.482  17.150  0.00  0.00    +0.000 A 
ATOM      4  C   UNL     1       6.112   4.369  17.076  0.00  0.00    +0.000 A 
ATOM      5  C   UNL     1       4.762   4.550  17.225  0.00  0.00    +0.000 A 
ATOM      6  C   UNL     1       4.225   5.781  17.612  0.00  0.00    +0.000 A 
ATOM      7  C   UNL     1       5.014   6.920  17.706  0.00  0.00    +0.000 A 
ATOM      8  N   UNL     1       4.245   8.020  18.054  0.00  0.00    +0.000 NA
ATOM      9  C   UNL     1       3.011   7.567  18.226  0.00  0.00    +0.000 A 
ATOM     10  N   UNL     1       2.960   6.200  17.946  0.00  0.00    +0.000 N 
ENDROOT
BRANCH   9  11
ATOM     11  C   UNL     1       1.819   8.403  18.501  0.00  0.00    +0.000 A 
ATOM     12  C   UNL     1       1.168   8.894  17.333  0.00  0.00    +0.000 A 
ATOM     13  C   UNL     1      -0.046   9.529  17.455  0.00  0.00    +0.000 A 
ATOM     14  C   UNL     1      -0.356  10.038  18.702  0.00  0.00    +0.000 A 
ATOM     15  C   UNL     1       0.399   9.740  19.854  0.00  0.00    +0.000 A 
ATOM     16  C   UNL     1       0.286  10.491  21.018  0.00  0.00    +0.000 A 
ATOM     17  C   UNL     1       1.103  10.213  22.130  0.00  0.00    +0.000 A 
ATOM     18  C   UNL     1       1.191   8.903  22.544  0.00  0.00    +0.000 A 
ATOM     19  C   UNL     1       1.609   8.347  21.338  0.00  0.00    +0.000 A 
ATOM     20  C   UNL     1       1.331   8.738  19.873  0.00  0.00    +0.000 A 
ENDBRANCH   9  11
BRANCH  10  21
ATOM     21  C   UNL     1       1.720   5.442  17.954  0.00  0.00    +0.000 C 
BRANCH  21  22
ATOM     22  C   UNL     1       1.695   4.287  18.899  0.00  0.00    +0.000 A 
ATOM     23  C   UNL     1       1.946   2.988  18.432  0.00  0.00    +0.000 A 
ATOM     24  F   UNL     1       2.093   2.761  17.116  0.00  0.00    +0.000 F 
ATOM     25  C   UNL     1       1.779   1.909  19.274  0.00  0.00    +0.000 A 
ATOM     26  C   UNL     1       1.742   2.140  20.640  0.00  0.00    +0.000 A 
ATOM     27  C   UNL     1       1.457   3.419  21.119  0.00  0.00    +0.000 A 
ATOM     28  C   UNL     1       1.380   4.478  20.236  0.00  0.00    +0.000 A 
ATOM     29  F   UNL     1       1.004   5.686  20.669  0.00  0.00    +0.000 F 
ENDBRANCH  21  22
ENDBRANCH  10  21
TORSDOF 3
ENDMDL
MODEL 9
REMARK VINA RESULT:      -7.4      1.696      4.800
REMARK  Name = 
REMARK  4 active torsions:
REMARK  status: ('A' for Active; 'I' for Inactive)
REMARK    1  A    between atoms: C_1  and  C_2
REMARK    2  A    between atoms: C_9  and  C_10
REMARK    3  A    between atoms: N_20  and  C_21
REMARK    4  A    between atoms: C_21  and  C_22
REMARK                            x       y       z     vdW  Elec       q    Type
REMARK                         _______ _______ _______ _____ _____    ______ ____
ROOT
ATOM      1  C   UNL     1      -0.005   9.826  21.013  0.00  0.00    +0.000 C 
ATOM      2  C   UNL     1       0.936   9.449  19.915  0.00  0.00    +0.000 A 
ATOM      3  C   UNL     1       1.308  10.479  19.007  0.00  0.00    +0.000 A 
ATOM      4  C   UNL     1       2.119  10.249  17.923  0.00  0.00    +0.000 A 
ATOM      5  C   UNL     1       2.534   8.962  17.707  0.00  0.00    +0.000 A 
ATOM      6  C   UNL     1       2.296   7.947  18.640  0.00  0.00    +0.000 A 
ATOM      7  C   UNL     1       1.490   8.157  19.750  0.00  0.00    +0.000 A 
ATOM      8  N   UNL     1       1.365   6.992  20.490  0.00  0.00    +0.000 NA
ATOM      9  C   UNL     1       2.122   6.087  19.885  0.00  0.00    +0.000 A 
ATOM     10  N   UNL     1       2.694   6.636  18.735  0.00  0.00    +0.000 N 
ENDROOT
BRANCH   9  11
ATOM     11  C   UNL     1       2.216   4.657  20.257  0.00  0.00    +0.000 A 
ATOM     12  C   UNL     1       2.213   4.416  21.660  0.00  0.00    +0.000 A 
ATOM     13  C   UNL     1       2.115   3.125  22.123  0.00  0.00    +0.000 A 
ATOM     14  C   UNL     1       2.462   2.122  21.238  0.00  0.00    +0.000 A 
ATOM     15  C   UNL     1       2.683   2.362  19.866  0.00  0.00    +0.000 A 
ATOM     16  C   UNL     1       3.333   1.438  19.057  0.00  0.00    +0.000 A 
ATOM     17  C   UNL     1       3.602   1.734  17.707  0.00  0.00    +0.000 A 
ATOM     18  C   UNL     1       2.567   2.227  16.945  0.00  0.00    +0.000 A 
ATOM     19  C   UNL     1       2.240   3.318  17.745  0.00  0.00    +0.000 A 
ATOM     20  C   UNL     1       2.330   3.541  19.269  0.00  0.00    +0.000 A 
ENDBRANCH   9  11
BRANCH  10  21
ATOM     21  C   UNL     1       3.499   5.856  17.810  0.00  0.00    +0.000 C 
BRANCH  21  22
ATOM     22  C   UNL     1       4.972   6.051  17.939  0.00  0.00    +0.000 A 
ATOM     23  C   UNL     1       5.680   5.416  18.972  0.00  0.00    +0.000 A 
ATOM     24  F   UNL     1       5.019   4.727  19.918  0.00  0.00    +0.000 F 
ATOM     25  C   UNL     1       7.011   5.711  19.178  0.00  0.00    +0.000 A 
ATOM     26  C   UNL     1       7.716   6.320  18.152  0.00  0.00    +0.000 A 
ATOM     27  C   UNL     1       7.027   6.987  17.138  0.00  0.00    +0.000 A 
ATOM     28  C   UNL     1       5.651   6.892  17.071  0.00  0.00    +0.000 A 
ATOM     29  F   UNL     1       4.973   7.610  16.169  0.00  0.00    +0.000 F 
ENDBRANCH  21  22
ENDBRANCH  10  21
TORSDOF 3
ENDMDL
