MODEL 1
REMARK VINA RESULT:      -5.9      0.000      0.000
REMARK  Name = 
REMARK  9 active torsions:
REMARK  status: ('A' for Active; 'I' for Inactive)
REMARK    1  A    between atoms: C_1  and  C_2
REMARK    2  A    between atoms: C_2  and  O_3
REMARK    3  A    between atoms: O_3  and  C_4
REMARK    4  A    between atoms: C_4  and  C_6
REMARK    5  A    between atoms: C_6  and  C_7
REMARK    6  A    between atoms: C_9  and  C_10
REMARK    7  A    between atoms: C_9  and  C_11
REMARK    8  A    between atoms: C_14  and  O_15
REMARK    9  A    between atoms: O_15  and  C_16
REMARK                            x       y       z     vdW  Elec       q    Type
REMARK                         _______ _______ _______ _____ _____    ______ ____
ROOT
ATOM      1  C   UNL     1       2.834   3.875  19.948  0.00  0.00    +0.000 C 
ATOM      2  C   UNL     1       4.019   3.345  19.549  0.00  0.00    +0.000 C 
ATOM      3  C   UNL     1       4.674   2.133  20.173  0.00  0.00    +0.000 C 
ENDROOT
BRANCH   2   4
ATOM      4  C   UNL     1       4.832   3.888  18.437  0.00  0.00    +0.000 A 
ATOM      5  C   UNL     1       4.482   3.622  17.109  0.00  0.00    +0.000 A 
ATOM      6  C   UNL     1       5.216   4.189  16.061  0.00  0.00    +0.000 A 
ATOM      7  C   UNL     1       6.293   5.039  16.327  0.00  0.00    +0.000 A 
ATOM      8  C   UNL     1       6.665   5.280  17.648  0.00  0.00    +0.000 A 
ATOM      9  C   UNL     1       5.933   4.712  18.700  0.00  0.00    +0.000 A 
BRANCH   7  10
ATOM     10  O   UNL     1       6.925   5.543  15.222  0.00  0.00    +0.000 OA
ATOM     11  C   UNL     1       6.895   4.707  14.068  0.00  0.00    +0.000 C 
ENDBRANCH   7  10
ENDBRANCH   2   4
BRANCH   1  12
ATOM     12  C   UNL     1       2.187   5.003  19.231  0.00  0.00    +0.000 C 
ATOM     13  O   UNL     1       1.403   4.891  18.305  0.00  0.00    +0.000 OA
BRANCH  12  14
ATOM     14  O   UNL     1       2.655   6.180  19.723  0.00  0.00    +0.000 OA
BRANCH  14  16
ATOM     15  C   UNL     1       3.479   7.323  17.806  0.00  0.00    +0.000 C 
ATOM     16  C   UNL     1       2.405   7.312  18.877  0.00  0.00    +0.000 C 
ENDBRANCH  14  16
ENDBRANCH  12  14
ENDBRANCH   1  12
BRANCH   1  17
ATOM     17  C   UNL     1       2.081   3.231  21.101  0.00  0.00    +0.000 C 
ATOM     18  N   UNL     1       1.456   2.697  22.058  0.00  0.00    +0.000 NA
ENDBRANCH   1  17
TORSDOF 6
ENDMDL
MODEL 2
REMARK VINA RESULT:      -5.7      2.998      5.837
REMARK  Name = 
REMARK  9 active torsions:
REMARK  status: ('A' for Active; 'I' for Inactive)
REMARK    1  A    between atoms: C_1  and  C_2
REMARK    2  A    between atoms: C_2  and  O_3
REMARK    3  A    between atoms: O_3  and  C_4
REMARK    4  A    between atoms: C_4  and  C_6
REMARK    5  A    between atoms: C_6  and  C_7
REMARK    6  A    between atoms: C_9  and  C_10
REMARK    7  A    between atoms: C_9  and  C_11
REMARK    8  A    between atoms: C_14  and  O_15
REMARK    9  A    between atoms: O_15  and  C_16
REMARK                            x       y       z     vdW  Elec       q    Type
REMARK                         _______ _______ _______ _____ _____    ______ ____
ROOT
ATOM      1  C   UNL     1       3.494   4.907  17.471  0.00  0.00    +0.000 C 
ATOM      2  C   UNL     1       3.725   6.223  17.711  0.00  0.00    +0.000 C 
ATOM      3  C   UNL     1       4.961   6.975  17.268  0.00  0.00    +0.000 C 
ENDROOT
BRANCH   2   4
ATOM      4  C   UNL     1       2.788   7.105  18.444  0.00  0.00    +0.000 A 
ATOM      5  C   UNL     1       2.454   6.831  19.774  0.00  0.00    +0.000 A 
ATOM      6  C   UNL     1       1.618   7.701  20.482  0.00  0.00    +0.000 A 
ATOM      7  C   UNL     1       1.122   8.859  19.878  0.00  0.00    +0.000 A 
ATOM      8  C   UNL     1       1.427   9.119  18.543  0.00  0.00    +0.000 A 
ATOM      9  C   UNL     1       2.262   8.248  17.830  0.00  0.00    +0.000 A 
BRANCH   7  10
ATOM     10  O   UNL     1       0.327   9.640  20.674  0.00  0.00    +0.000 OA
ATOM     11  C   UNL     1       0.697   9.681  22.050  0.00  0.00    +0.000 C 
ENDBRANCH   7  10
ENDBRANCH   2   4
BRANCH   1  12
ATOM     12  C   UNL     1       2.216   4.246  17.838  0.00  0.00    +0.000 C 
ATOM     13  O   UNL     1       1.155   4.396  17.259  0.00  0.00    +0.000 OA
BRANCH  12  14
ATOM     14  O   UNL     1       2.398   3.500  18.959  0.00  0.00    +0.000 OA
BRANCH  14  16
ATOM     15  C   UNL     1       1.329   3.368  21.080  0.00  0.00    +0.000 C 
ATOM     16  C   UNL     1       1.180   3.089  19.596  0.00  0.00    +0.000 C 
ENDBRANCH  14  16
ENDBRANCH  12  14
ENDBRANCH   1  12
BRANCH   1  17
ATOM     17  C   UNL     1       4.526   4.097  16.703  0.00  0.00    +0.000 C 
ATOM     18  N   UNL     1       5.383   3.425  16.067  0.00  0.00    +0.000 NA
ENDBRANCH   1  17
TORSDOF 6
ENDMDL
MODEL 3
REMARK VINA RESULT:      -5.7      2.059      3.791
REMARK  Name = 
REMARK  9 active torsions:
REMARK  status: ('A' for Active; 'I' for Inactive)
REMARK    1  A    between atoms: C_1  and  C_2
REMARK    2  A    between atoms: C_2  and  O_3
REMARK    3  A    between atoms: O_3  and  C_4
REMARK    4  A    between atoms: C_4  and  C_6
REMARK    5  A    between atoms: C_6  and  C_7
REMARK    6  A    between atoms: C_9  and  C_10
REMARK    7  A    between atoms: C_9  and  C_11
REMARK    8  A    between atoms: C_14  and  O_15
REMARK    9  A    between atoms: O_15  and  C_16
REMARK                            x       y       z     vdW  Elec       q    Type
REMARK                         _______ _______ _______ _____ _____    ______ ____
ROOT
ATOM      1  C   UNL     1       3.578   2.954  20.136  0.00  0.00    +0.000 C 
ATOM      2  C   UNL     1       3.767   4.139  19.500  0.00  0.00    +0.000 C 
ATOM      3  C   UNL     1       3.039   5.422  19.836  0.00  0.00    +0.000 C 
ENDROOT
BRANCH   2   4
ATOM      4  C   UNL     1       4.720   4.333  18.383  0.00  0.00    +0.000 A 
ATOM      5  C   UNL     1       6.033   4.741  18.638  0.00  0.00    +0.000 A 
ATOM      6  C   UNL     1       6.948   4.862  17.587  0.00  0.00    +0.000 A 
ATOM      7  C   UNL     1       6.569   4.562  16.276  0.00  0.00    +0.000 A 
ATOM      8  C   UNL     1       5.252   4.188  16.014  0.00  0.00    +0.000 A 
ATOM      9  C   UNL     1       4.332   4.067  17.064  0.00  0.00    +0.000 A 
BRANCH   7  10
ATOM     10  O   UNL     1       7.553   4.705  15.335  0.00  0.00    +0.000 OA
ATOM     11  C   UNL     1       7.095   4.858  13.994  0.00  0.00    +0.000 C 
ENDBRANCH   7  10
ENDBRANCH   2   4
BRANCH   1  12
ATOM     12  C   UNL     1       4.395   1.752  19.833  0.00  0.00    +0.000 C 
ATOM     13  O   UNL     1       4.269   1.047  18.847  0.00  0.00    +0.000 OA
BRANCH  12  14
ATOM     14  O   UNL     1       5.259   1.521  20.855  0.00  0.00    +0.000 OA
BRANCH  14  16
ATOM     15  C   UNL     1       6.367   0.004  22.316  0.00  0.00    +0.000 C 
ATOM     16  C   UNL     1       5.687   0.156  20.968  0.00  0.00    +0.000 C 
ENDBRANCH  14  16
ENDBRANCH  12  14
ENDBRANCH   1  12
BRANCH   1  17
ATOM     17  C   UNL     1       2.574   2.871  21.274  0.00  0.00    +0.000 C 
ATOM     18  N   UNL     1       1.741   2.802  22.218  0.00  0.00    +0.000 NA
ENDBRANCH   1  17
TORSDOF 6
ENDMDL
MODEL 4
REMARK VINA RESULT:      -5.7      2.956      5.770
REMARK  Name = 
REMARK  9 active torsions:
REMARK  status: ('A' for Active; 'I' for Inactive)
REMARK    1  A    between atoms: C_1  and  C_2
REMARK    2  A    between atoms: C_2  and  O_3
REMARK    3  A    between atoms: O_3  and  C_4
REMARK    4  A    between atoms: C_4  and  C_6
REMARK    5  A    between atoms: C_6  and  C_7
REMARK    6  A    between atoms: C_9  and  C_10
REMARK    7  A    between atoms: C_9  and  C_11
REMARK    8  A    between atoms: C_14  and  O_15
REMARK    9  A    between atoms: O_15  and  C_16
REMARK                            x       y       z     vdW  Elec       q    Type
REMARK                         _______ _______ _______ _____ _____    ______ ____
ROOT
ATOM      1  C   UNL     1       3.445   5.014  17.559  0.00  0.00    +0.000 C 
ATOM      2  C   UNL     1       3.724   6.333  17.727  0.00  0.00    +0.000 C 
ATOM      3  C   UNL     1       4.980   7.017  17.236  0.00  0.00    +0.000 C 
ENDROOT
BRANCH   2   4
ATOM      4  C   UNL     1       2.823   7.284  18.419  0.00  0.00    +0.000 A 
ATOM      5  C   UNL     1       2.248   8.349  17.719  0.00  0.00    +0.000 A 
ATOM      6  C   UNL     1       1.349   9.208  18.360  0.00  0.00    +0.000 A 
ATOM      7  C   UNL     1       1.002   9.003  19.697  0.00  0.00    +0.000 A 
ATOM      8  C   UNL     1       1.598   7.963  20.408  0.00  0.00    +0.000 A 
ATOM      9  C   UNL     1       2.501   7.102  19.769  0.00  0.00    +0.000 A 
BRANCH   7  10
ATOM     10  O   UNL     1       0.103   9.899  20.212  0.00  0.00    +0.000 OA
ATOM     11  C   UNL     1      -0.828  10.433  19.274  0.00  0.00    +0.000 C 
ENDBRANCH   7  10
ENDBRANCH   2   4
BRANCH   1  12
ATOM     12  C   UNL     1       2.149   4.418  17.969  0.00  0.00    +0.000 C 
ATOM     13  O   UNL     1       1.115   4.475  17.329  0.00  0.00    +0.000 OA
BRANCH  12  14
ATOM     14  O   UNL     1       2.279   3.855  19.199  0.00  0.00    +0.000 OA
BRANCH  14  16
ATOM     15  C   UNL     1       1.356   2.979  21.209  0.00  0.00    +0.000 C 
ATOM     16  C   UNL     1       1.035   3.639  19.881  0.00  0.00    +0.000 C 
ENDBRANCH  14  16
ENDBRANCH  12  14
ENDBRANCH   1  12
BRANCH   1  17
ATOM     17  C   UNL     1       4.443   4.130  16.828  0.00  0.00    +0.000 C 
ATOM     18  N   UNL     1       5.271   3.396  16.222  0.00  0.00    +0.000 NA
ENDBRANCH   1  17
TORSDOF 6
ENDMDL
MODEL 5
REMARK VINA RESULT:      -5.6      1.876      3.102
REMARK  Name = 
REMARK  9 active torsions:
REMARK  status: ('A' for Active; 'I' for Inactive)
REMARK    1  A    between atoms: C_1  and  C_2
REMARK    2  A    between atoms: C_2  and  O_3
REMARK    3  A    between atoms: O_3  and  C_4
REMARK    4  A    between atoms: C_4  and  C_6
REMARK    5  A    between atoms: C_6  and  C_7
REMARK    6  A    between atoms: C_9  and  C_10
REMARK    7  A    between atoms: C_9  and  C_11
REMARK    8  A    between atoms: C_14  and  O_15
REMARK    9  A    between atoms: O_15  and  C_16
REMARK                            x       y       z     vdW  Elec       q    Type
REMARK                         _______ _______ _______ _____ _____    ______ ____
ROOT
ATOM      1  C   UNL     1       3.473   4.945  19.270  0.00  0.00    +0.000 C 
ATOM      2  C   UNL     1       3.786   5.841  18.299  0.00  0.00    +0.000 C 
ATOM      3  C   UNL     1       3.054   7.143  18.061  0.00  0.00    +0.000 C 
ENDROOT
BRANCH   2   4
ATOM      4  C   UNL     1       4.897   5.661  17.337  0.00  0.00    +0.000 A 
ATOM      5  C   UNL     1       4.734   4.843  16.214  0.00  0.00    +0.000 A 
ATOM      6  C   UNL     1       5.764   4.725  15.275  0.00  0.00    +0.000 A 
ATOM      7  C   UNL     1       6.957   5.435  15.436  0.00  0.00    +0.000 A 
ATOM      8  C   UNL     1       7.136   6.225  16.570  0.00  0.00    +0.000 A 
ATOM      9  C   UNL     1       6.107   6.343  17.514  0.00  0.00    +0.000 A 
BRANCH   7  10
ATOM     10  O   UNL     1       7.885   5.250  14.446  0.00  0.00    +0.000 OA
ATOM     11  C   UNL     1       7.356   4.858  13.182  0.00  0.00    +0.000 C 
ENDBRANCH   7  10
ENDBRANCH   2   4
BRANCH   1  12
ATOM     12  C   UNL     1       4.292   3.732  19.524  0.00  0.00    +0.000 C 
ATOM     13  O   UNL     1       5.509   3.700  19.557  0.00  0.00    +0.000 OA
BRANCH  12  14
ATOM     14  O   UNL     1       3.476   2.653  19.647  0.00  0.00    +0.000 OA
BRANCH  14  16
ATOM     15  C   UNL     1       2.421   2.169  17.570  0.00  0.00    +0.000 C 
ATOM     16  C   UNL     1       3.519   1.753  18.530  0.00  0.00    +0.000 C 
ENDBRANCH  14  16
ENDBRANCH  12  14
ENDBRANCH   1  12
BRANCH   1  17
ATOM     17  C   UNL     1       2.312   5.235  20.206  0.00  0.00    +0.000 C 
ATOM     18  N   UNL     1       1.347   5.476  20.983  0.00  0.00    +0.000 NA
ENDBRANCH   1  17
TORSDOF 6
ENDMDL
MODEL 6
REMARK VINA RESULT:      -5.6      2.055      2.620
REMARK  Name = 
REMARK  9 active torsions:
REMARK  status: ('A' for Active; 'I' for Inactive)
REMARK    1  A    between atoms: C_1  and  C_2
REMARK    2  A    between atoms: C_2  and  O_3
REMARK    3  A    between atoms: O_3  and  C_4
REMARK    4  A    between atoms: C_4  and  C_6
REMARK    5  A    between atoms: C_6  and  C_7
REMARK    6  A    between atoms: C_9  and  C_10
REMARK    7  A    between atoms: C_9  and  C_11
REMARK    8  A    between atoms: C_14  and  O_15
REMARK    9  A    between atoms: O_15  and  C_16
REMARK                            x       y       z     vdW  Elec       q    Type
REMARK                         _______ _______ _______ _____ _____    ______ ____
ROOT
ATOM      1  C   UNL     1       2.395   4.161  18.724  0.00  0.00    +0.000 C 
ATOM      2  C   UNL     1       3.550   3.926  18.051  0.00  0.00    +0.000 C 
ATOM      3  C   UNL     1       3.824   2.696  17.214  0.00  0.00    +0.000 C 
ENDROOT
BRANCH   2   4
ATOM      4  C   UNL     1       4.705   4.853  18.046  0.00  0.00    +0.000 A 
ATOM      5  C   UNL     1       5.630   4.835  19.095  0.00  0.00    +0.000 A 
ATOM      6  C   UNL     1       6.754   5.668  19.056  0.00  0.00    +0.000 A 
ATOM      7  C   UNL     1       6.974   6.512  17.965  0.00  0.00    +0.000 A 
ATOM      8  C   UNL     1       6.038   6.557  16.934  0.00  0.00    +0.000 A 
ATOM      9  C   UNL     1       4.910   5.726  16.971  0.00  0.00    +0.000 A 
BRANCH   7  10
ATOM     10  O   UNL     1       8.114   7.269  18.032  0.00  0.00    +0.000 OA
ATOM     11  C   UNL     1       7.926   8.669  17.838  0.00  0.00    +0.000 C 
ENDBRANCH   7  10
ENDBRANCH   2   4
BRANCH   1  12
ATOM     12  C   UNL     1       2.141   5.433  19.446  0.00  0.00    +0.000 C 
ATOM     13  O   UNL     1       2.092   5.557  20.657  0.00  0.00    +0.000 OA
BRANCH  12  14
ATOM     14  O   UNL     1       1.906   6.425  18.547  0.00  0.00    +0.000 OA
BRANCH  14  16
ATOM     15  C   UNL     1       2.440   8.618  17.795  0.00  0.00    +0.000 C 
ATOM     16  C   UNL     1       2.251   7.737  19.015  0.00  0.00    +0.000 C 
ENDBRANCH  14  16
ENDBRANCH  12  14
ENDBRANCH   1  12
BRANCH   1  17
ATOM     17  C   UNL     1       1.271   3.139  18.655  0.00  0.00    +0.000 C 
ATOM     18  N   UNL     1       0.339   2.291  18.598  0.00  0.00    +0.000 NA
ENDBRANCH   1  17
TORSDOF 6
ENDMDL
MODEL 7
REMARK VINA RESULT:      -5.6      3.162      5.911
REMARK  Name = 
REMARK  9 active torsions:
REMARK  status: ('A' for Active; 'I' for Inactive)
REMARK    1  A    between atoms: C_1  and  C_2
REMARK    2  A    between atoms: C_2  and  O_3
REMARK    3  A    between atoms: O_3  and  C_4
REMARK    4  A    between atoms: C_4  and  C_6
REMARK    5  A    between atoms: C_6  and  C_7
REMARK    6  A    between atoms: C_9  and  C_10
REMARK    7  A    between atoms: C_9  and  C_11
REMARK    8  A    between atoms: C_14  and  O_15
REMARK    9  A    between atoms: O_15  and  C_16
REMARK                            x       y       z     vdW  Elec       q    Type
REMARK                         _______ _______ _______ _____ _____    ______ ____
ROOT
ATOM      1  C   UNL     1       6.710   4.927  15.916  0.00  0.00    +0.000 C 
ATOM      2  C   UNL     1       5.427   4.516  15.746  0.00  0.00    +0.000 C 
ATOM      3  C   UNL     1       4.743   4.360  14.406  0.00  0.00    +0.000 C 
ENDROOT
BRANCH   2   4
ATOM      4  C   UNL     1       4.520   4.162  16.861  0.00  0.00    +0.000 A 
ATOM      5  C   UNL     1       3.681   5.129  17.424  0.00  0.00    +0.000 A 
ATOM      6  C   UNL     1       2.780   4.776  18.435  0.00  0.00    +0.000 A 
ATOM      7  C   UNL     1       2.695   3.454  18.881  0.00  0.00    +0.000 A 
ATOM      8  C   UNL     1       3.552   2.495  18.345  0.00  0.00    +0.000 A 
ATOM      9  C   UNL     1       4.457   2.846  17.335  0.00  0.00    +0.000 A 
BRANCH   7  10
ATOM     10  O   UNL     1       1.768   3.227  19.863  0.00  0.00    +0.000 OA
ATOM     11  C   UNL     1       1.241   4.397  20.484  0.00  0.00    +0.000 C 
ENDBRANCH   7  10
ENDBRANCH   2   4
BRANCH   1  12
ATOM     12  C   UNL     1       7.362   4.962  17.250  0.00  0.00    +0.000 C 
ATOM     13  O   UNL     1       8.143   4.128  17.672  0.00  0.00    +0.000 OA
BRANCH  12  14
ATOM     14  O   UNL     1       6.903   6.032  17.950  0.00  0.00    +0.000 OA
BRANCH  14  16
ATOM     15  C   UNL     1       7.856   8.190  17.643  0.00  0.00    +0.000 C 
ATOM     16  C   UNL     1       7.934   6.901  18.439  0.00  0.00    +0.000 C 
ENDBRANCH  14  16
ENDBRANCH  12  14
ENDBRANCH   1  12
BRANCH   1  17
ATOM     17  C   UNL     1       7.553   5.262  14.696  0.00  0.00    +0.000 C 
ATOM     18  N   UNL     1       8.252   5.540  13.684  0.00  0.00    +0.000 NA
ENDBRANCH   1  17
TORSDOF 6
ENDMDL
MODEL 8
REMARK VINA RESULT:      -5.5      3.090      5.791
REMARK  Name = 
REMARK  9 active torsions:
REMARK  status: ('A' for Active; 'I' for Inactive)
REMARK    1  A    between atoms: C_1  and  C_2
REMARK    2  A    between atoms: C_2  and  O_3
REMARK    3  A    between atoms: O_3  and  C_4
REMARK    4  A    between atoms: C_4  and  C_6
REMARK    5  A    between atoms: C_6  and  C_7
REMARK    6  A    between atoms: C_9  and  C_10
REMARK    7  A    between atoms: C_9  and  C_11
REMARK    8  A    between atoms: C_14  and  O_15
REMARK    9  A    between atoms: O_15  and  C_16
REMARK                            x       y       z     vdW  Elec       q    Type
REMARK                         _______ _______ _______ _____ _____    ______ ____
ROOT
ATOM      1  C   UNL     1       6.517   4.992  16.300  0.00  0.00    +0.000 C 
ATOM      2  C   UNL     1       5.233   4.580  16.144  0.00  0.00    +0.000 C 
ATOM      3  C   UNL     1       4.581   4.282  14.812  0.00  0.00    +0.000 C 
ENDROOT
BRANCH   2   4
ATOM      4  C   UNL     1       4.294   4.362  17.268  0.00  0.00    +0.000 A 
ATOM      5  C   UNL     1       4.241   3.124  17.915  0.00  0.00    +0.000 A 
ATOM      6  C   UNL     1       3.398   2.942  19.017  0.00  0.00    +0.000 A 
ATOM      7  C   UNL     1       2.614   3.995  19.494  0.00  0.00    +0.000 A 
ATOM      8  C   UNL     1       2.640   5.221  18.831  0.00  0.00    +0.000 A 
ATOM      9  C   UNL     1       3.481   5.406  17.726  0.00  0.00    +0.000 A 
BRANCH   7  10
ATOM     10  O   UNL     1       1.841   3.702  20.585  0.00  0.00    +0.000 OA
ATOM     11  C   UNL     1       2.393   2.740  21.481  0.00  0.00    +0.000 C 
ENDBRANCH   7  10
ENDBRANCH   2   4
BRANCH   1  12
ATOM     12  C   UNL     1       7.137   5.170  17.638  0.00  0.00    +0.000 C 
ATOM     13  O   UNL     1       7.751   4.312  18.247  0.00  0.00    +0.000 OA
BRANCH  12  14
ATOM     14  O   UNL     1       6.856   6.414  18.106  0.00  0.00    +0.000 OA
BRANCH  14  16
ATOM     15  C   UNL     1       7.887   8.503  17.625  0.00  0.00    +0.000 C 
ATOM     16  C   UNL     1       8.015   7.206  18.402  0.00  0.00    +0.000 C 
ENDBRANCH  14  16
ENDBRANCH  12  14
ENDBRANCH   1  12
BRANCH   1  17
ATOM     17  C   UNL     1       7.395   5.179  15.073  0.00  0.00    +0.000 C 
ATOM     18  N   UNL     1       8.123   5.334  14.054  0.00  0.00    +0.000 NA
ENDBRANCH   1  17
TORSDOF 6
ENDMDL
MODEL 9
REMARK VINA RESULT:      -5.5      1.730      2.180
REMARK  Name = 
REMARK  9 active torsions:
REMARK  status: ('A' for Active; 'I' for Inactive)
REMARK    1  A    between atoms: C_1  and  C_2
REMARK    2  A    between atoms: C_2  and  O_3
REMARK    3  A    between atoms: O_3  and  C_4
REMARK    4  A    between atoms: C_4  and  C_6
REMARK    5  A    between atoms: C_6  and  C_7
REMARK    6  A    between atoms: C_9  and  C_10
REMARK    7  A    between atoms: C_9  and  C_11
REMARK    8  A    between atoms: C_14  and  O_15
REMARK    9  A    between atoms: O_15  and  C_16
REMARK                            x       y       z     vdW  Elec       q    Type
REMARK                         _______ _______ _______ _____ _____    ______ ____
ROOT
ATOM      1  C   UNL     1       2.411   4.032  18.782  0.00  0.00    +0.000 C 
ATOM      2  C   UNL     1       3.445   3.674  17.979  0.00  0.00    +0.000 C 
ATOM      3  C   UNL     1       3.552   2.353  17.249  0.00  0.00    +0.000 C 
ENDROOT
BRANCH   2   4
ATOM      4  C   UNL     1       4.616   4.539  17.706  0.00  0.00    +0.000 A 
ATOM      5  C   UNL     1       4.789   5.116  16.444  0.00  0.00    +0.000 A 
ATOM      6  C   UNL     1       5.862   5.983  16.208  0.00  0.00    +0.000 A 
ATOM      7  C   UNL     1       6.760   6.296  17.232  0.00  0.00    +0.000 A 
ATOM      8  C   UNL     1       6.610   5.696  18.481  0.00  0.00    +0.000 A 
ATOM      9  C   UNL     1       5.538   4.826  18.719  0.00  0.00    +0.000 A 
BRANCH   7  10
ATOM     10  O   UNL     1       7.760   7.165  16.886  0.00  0.00    +0.000 OA
ATOM     11  C   UNL     1       7.889   8.309  17.727  0.00  0.00    +0.000 C 
ENDBRANCH   7  10
ENDBRANCH   2   4
BRANCH   1  12
ATOM     12  C   UNL     1       2.309   5.383  19.390  0.00  0.00    +0.000 C 
ATOM     13  O   UNL     1       2.238   5.613  20.584  0.00  0.00    +0.000 OA
BRANCH  12  14
ATOM     14  O   UNL     1       2.240   6.318  18.407  0.00  0.00    +0.000 OA
BRANCH  14  16
ATOM     15  C   UNL     1       2.323   8.573  17.651  0.00  0.00    +0.000 C 
ATOM     16  C   UNL     1       2.409   7.667  18.865  0.00  0.00    +0.000 C 
ENDBRANCH  14  16
ENDBRANCH  12  14
ENDBRANCH   1  12
BRANCH   1  17
ATOM     17  C   UNL     1       1.257   3.064  18.988  0.00  0.00    +0.000 C 
ATOM     18  N   UNL     1       0.300   2.260  19.159  0.00  0.00    +0.000 NA
ENDBRANCH   1  17
TORSDOF 6
ENDMDL
