MODEL 1
REMARK VINA RESULT:      -8.9      0.000      0.000
REMARK  Name = 
REMARK  8 active torsions:
REMARK  status: ('A' for Active; 'I' for Inactive)
REMARK    1  A    between atoms: C_1  and  C_2
REMARK    2  A    between atoms: C_2  and  C_3
REMARK    3  A    between atoms: C_3  and  C_5
REMARK    4  A    between atoms: C_8  and  N_9
REMARK    5  A    between atoms: N_9  and  C_10
REMARK    6  A    between atoms: C_20  and  C_21
REMARK    7  A    between atoms: N_23  and  C_24
REMARK    8  A    between atoms: C_24  and  C_25
REMARK                            x       y       z     vdW  Elec       q    Type
REMARK                         _______ _______ _______ _____ _____    ______ ____
ROOT
ATOM      1  C   UNL     1       3.925   5.053  19.226  0.00  0.00    +0.000 A 
ATOM      2  C   UNL     1       2.872   4.081  19.204  0.00  0.00    +0.000 A 
ATOM      3  C   UNL     1       1.857   3.978  20.196  0.00  0.00    +0.000 A 
ATOM      4  C   UNL     1       0.795   3.093  20.060  0.00  0.00    +0.000 A 
ATOM      5  C   UNL     1       0.710   2.291  18.931  0.00  0.00    +0.000 A 
ATOM      6  C   UNL     1       1.709   2.367  17.960  0.00  0.00    +0.000 A 
ATOM      7  C   UNL     1       2.796   3.223  18.078  0.00  0.00    +0.000 A 
ATOM      8  N   UNL     1       3.674   3.218  17.078  0.00  0.00    +0.000 NA
ATOM      9  C   UNL     1       4.768   3.970  17.287  0.00  0.00    +0.000 A 
ATOM     10  C   UNL     1       5.010   4.815  18.362  0.00  0.00    +0.000 A 
ATOM     11  C   UNL     1       6.380   5.187  18.185  0.00  0.00    +0.000 A 
ATOM     12  C   UNL     1       7.319   5.812  19.145  0.00  0.00    +0.000 C 
ATOM     13  N   UNL     1       6.857   4.793  16.993  0.00  0.00    +0.000 NA
ATOM     14  N   UNL     1       5.807   4.166  16.430  0.00  0.00    +0.000 N 
ENDROOT
BRANCH   1  15
ATOM     15  N   UNL     1       3.767   6.308  19.915  0.00  0.00    +0.000 N 
ATOM     16  H   UNL     1       3.607   6.106  20.902  0.00  0.00    +0.000 HD
BRANCH  15  20
ATOM     17  C   UNL     1       1.031   9.399  18.861  0.00  0.00    +0.000 A 
ATOM     18  C   UNL     1       1.817   8.789  17.878  0.00  0.00    +0.000 A 
ATOM     19  C   UNL     1       2.665   7.713  18.210  0.00  0.00    +0.000 A 
ATOM     20  C   UNL     1       2.734   7.239  19.526  0.00  0.00    +0.000 A 
ATOM     21  C   UNL     1       1.768   7.709  20.434  0.00  0.00    +0.000 A 
ATOM     22  C   UNL     1       0.976   8.819  20.129  0.00  0.00    +0.000 A 
BRANCH  17  23
ATOM     23  C   UNL     1       0.300  10.684  18.651  0.00  0.00    +0.000 C 
ATOM     24  O   UNL     1       0.945  11.729  18.579  0.00  0.00    +0.000 OA
BRANCH  23  26
ATOM     25  C   UNL     1      -1.677   9.956  17.261  0.00  0.00    +0.000 C 
ATOM     26  C   UNL     1      -1.215  10.662  18.528  0.00  0.00    +0.000 C 
ENDBRANCH  23  26
ENDBRANCH  17  23
ENDBRANCH  15  20
ENDBRANCH   1  15
BRANCH  14  27
ATOM     27  C   UNL     1       5.739   4.015  14.991  0.00  0.00    +0.000 C 
ATOM     28  C   UNL     1       6.887   4.758  14.325  0.00  0.00    +0.000 C 
ENDBRANCH  14  27
TORSDOF 5
ENDMDL
MODEL 2
REMARK VINA RESULT:      -8.7      0.703      1.102
REMARK  Name = 
REMARK  8 active torsions:
REMARK  status: ('A' for Active; 'I' for Inactive)
REMARK    1  A    between atoms: C_1  and  C_2
REMARK    2  A    between atoms: C_2  and  C_3
REMARK    3  A    between atoms: C_3  and  C_5
REMARK    4  A    between atoms: C_8  and  N_9
REMARK    5  A    between atoms: N_9  and  C_10
REMARK    6  A    between atoms: C_20  and  C_21
REMARK    7  A    between atoms: N_23  and  C_24
REMARK    8  A    between atoms: C_24  and  C_25
REMARK                            x       y       z     vdW  Elec       q    Type
REMARK                         _______ _______ _______ _____ _____    ______ ____
ROOT
ATOM      1  C   UNL     1       4.005   5.015  19.202  0.00  0.00    +0.000 A 
ATOM      2  C   UNL     1       2.956   4.038  19.182  0.00  0.00    +0.000 A 
ATOM      3  C   UNL     1       1.941   3.934  20.175  0.00  0.00    +0.000 A 
ATOM      4  C   UNL     1       0.883   3.044  20.041  0.00  0.00    +0.000 A 
ATOM      5  C   UNL     1       0.802   2.238  18.914  0.00  0.00    +0.000 A 
ATOM      6  C   UNL     1       1.801   2.315  17.944  0.00  0.00    +0.000 A 
ATOM      7  C   UNL     1       2.884   3.176  18.059  0.00  0.00    +0.000 A 
ATOM      8  N   UNL     1       3.762   3.171  17.060  0.00  0.00    +0.000 NA
ATOM      9  C   UNL     1       4.853   3.929  17.267  0.00  0.00    +0.000 A 
ATOM     10  C   UNL     1       5.091   4.779  18.339  0.00  0.00    +0.000 A 
ATOM     11  C   UNL     1       6.459   5.156  18.161  0.00  0.00    +0.000 A 
ATOM     12  C   UNL     1       7.396   5.788  19.120  0.00  0.00    +0.000 C 
ATOM     13  N   UNL     1       6.938   4.760  16.971  0.00  0.00    +0.000 NA
ATOM     14  N   UNL     1       5.891   4.127  16.410  0.00  0.00    +0.000 N 
ENDROOT
BRANCH   1  15
ATOM     15  N   UNL     1       3.841   6.271  19.887  0.00  0.00    +0.000 N 
ATOM     16  H   UNL     1       3.693   6.072  20.875  0.00  0.00    +0.000 HD
BRANCH  15  20
ATOM     17  C   UNL     1       1.071   9.329  18.824  0.00  0.00    +0.000 A 
ATOM     18  C   UNL     1       1.815   8.678  17.835  0.00  0.00    +0.000 A 
ATOM     19  C   UNL     1       2.674   7.613  18.174  0.00  0.00    +0.000 A 
ATOM     20  C   UNL     1       2.795   7.191  19.503  0.00  0.00    +0.000 A 
ATOM     21  C   UNL     1       1.868   7.699  20.431  0.00  0.00    +0.000 A 
ATOM     22  C   UNL     1       1.066   8.799  20.115  0.00  0.00    +0.000 A 
BRANCH  17  23
ATOM     23  C   UNL     1       0.334  10.608  18.593  0.00  0.00    +0.000 C 
ATOM     24  O   UNL     1      -0.726  10.578  17.970  0.00  0.00    +0.000 OA
BRANCH  23  26
ATOM     25  C   UNL     1       2.163  12.333  18.385  0.00  0.00    +0.000 C 
ATOM     26  C   UNL     1       0.912  11.903  19.138  0.00  0.00    +0.000 C 
ENDBRANCH  23  26
ENDBRANCH  17  23
ENDBRANCH  15  20
ENDBRANCH   1  15
BRANCH  14  27
ATOM     27  C   UNL     1       5.825   3.970  14.970  0.00  0.00    +0.000 C 
ATOM     28  C   UNL     1       6.941   4.758  14.300  0.00  0.00    +0.000 C 
ENDBRANCH  14  27
TORSDOF 5
ENDMDL
MODEL 3
REMARK VINA RESULT:      -8.5      2.062      4.723
REMARK  Name = 
REMARK  8 active torsions:
REMARK  status: ('A' for Active; 'I' for Inactive)
REMARK    1  A    between atoms: C_1  and  C_2
REMARK    2  A    between atoms: C_2  and  C_3
REMARK    3  A    between atoms: C_3  and  C_5
REMARK    4  A    between atoms: C_8  and  N_9
REMARK    5  A    between atoms: N_9  and  C_10
REMARK    6  A    between atoms: C_20  and  C_21
REMARK    7  A    between atoms: N_23  and  C_24
REMARK    8  A    between atoms: C_24  and  C_25
REMARK                            x       y       z     vdW  Elec       q    Type
REMARK                         _______ _______ _______ _____ _____    ______ ____
ROOT
ATOM      1  C   UNL     1       3.959   6.032  17.808  0.00  0.00    +0.000 A 
ATOM      2  C   UNL     1       5.374   6.160  17.996  0.00  0.00    +0.000 A 
ATOM      3  C   UNL     1       6.184   7.124  17.332  0.00  0.00    +0.000 A 
ATOM      4  C   UNL     1       7.530   7.278  17.642  0.00  0.00    +0.000 A 
ATOM      5  C   UNL     1       8.104   6.484  18.624  0.00  0.00    +0.000 A 
ATOM      6  C   UNL     1       7.326   5.522  19.268  0.00  0.00    +0.000 A 
ATOM      7  C   UNL     1       5.985   5.326  18.964  0.00  0.00    +0.000 A 
ATOM      8  N   UNL     1       5.345   4.389  19.659  0.00  0.00    +0.000 NA
ATOM      9  C   UNL     1       4.086   4.150  19.252  0.00  0.00    +0.000 A 
ATOM     10  C   UNL     1       3.373   4.843  18.283  0.00  0.00    +0.000 A 
ATOM     11  C   UNL     1       2.197   4.049  18.109  0.00  0.00    +0.000 A 
ATOM     12  C   UNL     1       1.196   4.071  17.017  0.00  0.00    +0.000 C 
ATOM     13  N   UNL     1       2.094   3.093  19.047  0.00  0.00    +0.000 NA
ATOM     14  N   UNL     1       3.200   3.270  19.794  0.00  0.00    +0.000 N 
ENDROOT
BRANCH   1  15
ATOM     15  N   UNL     1       3.160   7.149  17.376  0.00  0.00    +0.000 N 
ATOM     16  H   UNL     1       3.786   7.846  16.974  0.00  0.00    +0.000 HD
BRANCH  15  20
ATOM     17  C   UNL     1       1.047   9.521  20.215  0.00  0.00    +0.000 A 
ATOM     18  C   UNL     1       0.981   9.829  18.852  0.00  0.00    +0.000 A 
ATOM     19  C   UNL     1       1.614   9.000  17.904  0.00  0.00    +0.000 A 
ATOM     20  C   UNL     1       2.317   7.860  18.309  0.00  0.00    +0.000 A 
ATOM     21  C   UNL     1       2.168   7.450  19.646  0.00  0.00    +0.000 A 
ATOM     22  C   UNL     1       1.602   8.300  20.600  0.00  0.00    +0.000 A 
BRANCH  17  23
ATOM     23  C   UNL     1       0.621  10.463  21.294  0.00  0.00    +0.000 C 
ATOM     24  O   UNL     1       1.231  11.522  21.432  0.00  0.00    +0.000 OA
BRANCH  23  26
ATOM     25  C   UNL     1      -0.101   9.503  23.513  0.00  0.00    +0.000 C 
ATOM     26  C   UNL     1      -0.553  10.087  22.182  0.00  0.00    +0.000 C 
ENDBRANCH  23  26
ENDBRANCH  17  23
ENDBRANCH  15  20
ENDBRANCH   1  15
BRANCH  14  27
ATOM     27  C   UNL     1       3.241   2.779  21.157  0.00  0.00    +0.000 C 
ATOM     28  C   UNL     1       1.854   2.826  21.779  0.00  0.00    +0.000 C 
ENDBRANCH  14  27
TORSDOF 5
ENDMDL
MODEL 4
REMARK VINA RESULT:      -8.4      2.069      4.752
REMARK  Name = 
REMARK  8 active torsions:
REMARK  status: ('A' for Active; 'I' for Inactive)
REMARK    1  A    between atoms: C_1  and  C_2
REMARK    2  A    between atoms: C_2  and  C_3
REMARK    3  A    between atoms: C_3  and  C_5
REMARK    4  A    between atoms: C_8  and  N_9
REMARK    5  A    between atoms: N_9  and  C_10
REMARK    6  A    between atoms: C_20  and  C_21
REMARK    7  A    between atoms: N_23  and  C_24
REMARK    8  A    between atoms: C_24  and  C_25
REMARK                            x       y       z     vdW  Elec       q    Type
REMARK                         _______ _______ _______ _____ _____    ______ ____
ROOT
ATOM      1  C   UNL     1       3.861   5.999  17.822  0.00  0.00    +0.000 A 
ATOM      2  C   UNL     1       5.278   6.123  17.990  0.00  0.00    +0.000 A 
ATOM      3  C   UNL     1       6.083   7.082  17.312  0.00  0.00    +0.000 A 
ATOM      4  C   UNL     1       7.433   7.233  17.602  0.00  0.00    +0.000 A 
ATOM      5  C   UNL     1       8.018   6.438  18.578  0.00  0.00    +0.000 A 
ATOM      6  C   UNL     1       7.247   5.480  19.236  0.00  0.00    +0.000 A 
ATOM      7  C   UNL     1       5.901   5.288  18.951  0.00  0.00    +0.000 A 
ATOM      8  N   UNL     1       5.267   4.355  19.658  0.00  0.00    +0.000 NA
ATOM      9  C   UNL     1       4.002   4.120  19.269  0.00  0.00    +0.000 A 
ATOM     10  C   UNL     1       3.278   4.813  18.308  0.00  0.00    +0.000 A 
ATOM     11  C   UNL     1       2.096   4.023  18.154  0.00  0.00    +0.000 A 
ATOM     12  C   UNL     1       1.079   4.046  17.076  0.00  0.00    +0.000 C 
ATOM     13  N   UNL     1       2.003   3.069  19.095  0.00  0.00    +0.000 NA
ATOM     14  N   UNL     1       3.120   3.244  19.825  0.00  0.00    +0.000 N 
ENDROOT
BRANCH   1  15
ATOM     15  N   UNL     1       3.059   7.118  17.400  0.00  0.00    +0.000 N 
ATOM     16  H   UNL     1       3.644   7.722  16.823  0.00  0.00    +0.000 HD
BRANCH  15  20
ATOM     17  C   UNL     1       0.786   9.451  20.146  0.00  0.00    +0.000 A 
ATOM     18  C   UNL     1       1.431   8.286  20.576  0.00  0.00    +0.000 A 
ATOM     19  C   UNL     1       2.247   7.555  19.690  0.00  0.00    +0.000 A 
ATOM     20  C   UNL     1       2.426   7.982  18.368  0.00  0.00    +0.000 A 
ATOM     21  C   UNL     1       1.964   9.268  18.036  0.00  0.00    +0.000 A 
ATOM     22  C   UNL     1       1.099   9.962  18.887  0.00  0.00    +0.000 A 
BRANCH  17  23
ATOM     23  C   UNL     1      -0.278  10.142  20.935  0.00  0.00    +0.000 C 
ATOM     24  O   UNL     1      -0.985  10.976  20.372  0.00  0.00    +0.000 OA
BRANCH  23  26
ATOM     25  C   UNL     1      -1.215  10.873  23.161  0.00  0.00    +0.000 C 
ATOM     26  C   UNL     1      -0.456   9.792  22.403  0.00  0.00    +0.000 C 
ENDBRANCH  23  26
ENDBRANCH  17  23
ENDBRANCH  15  20
ENDBRANCH   1  15
BRANCH  14  27
ATOM     27  C   UNL     1       3.180   2.756  21.188  0.00  0.00    +0.000 C 
ATOM     28  C   UNL     1       1.779   2.639  21.771  0.00  0.00    +0.000 C 
ENDBRANCH  14  27
TORSDOF 5
ENDMDL
MODEL 5
REMARK VINA RESULT:      -8.0      2.755      6.498
REMARK  Name = 
REMARK  8 active torsions:
REMARK  status: ('A' for Active; 'I' for Inactive)
REMARK    1  A    between atoms: C_1  and  C_2
REMARK    2  A    between atoms: C_2  and  C_3
REMARK    3  A    between atoms: C_3  and  C_5
REMARK    4  A    between atoms: C_8  and  N_9
REMARK    5  A    between atoms: N_9  and  C_10
REMARK    6  A    between atoms: C_20  and  C_21
REMARK    7  A    between atoms: N_23  and  C_24
REMARK    8  A    between atoms: C_24  and  C_25
REMARK                            x       y       z     vdW  Elec       q    Type
REMARK                         _______ _______ _______ _____ _____    ______ ____
ROOT
ATOM      1  C   UNL     1       4.039   5.172  19.139  0.00  0.00    +0.000 A 
ATOM      2  C   UNL     1       3.337   4.209  19.934  0.00  0.00    +0.000 A 
ATOM      3  C   UNL     1       3.752   2.858  20.104  0.00  0.00    +0.000 A 
ATOM      4  C   UNL     1       3.097   2.001  20.980  0.00  0.00    +0.000 A 
ATOM      5  C   UNL     1       2.016   2.467  21.716  0.00  0.00    +0.000 A 
ATOM      6  C   UNL     1       1.587   3.783  21.545  0.00  0.00    +0.000 A 
ATOM      7  C   UNL     1       2.205   4.657  20.659  0.00  0.00    +0.000 A 
ATOM      8  N   UNL     1       1.714   5.892  20.597  0.00  0.00    +0.000 NA
ATOM      9  C   UNL     1       2.262   6.666  19.643  0.00  0.00    +0.000 A 
ATOM     10  C   UNL     1       3.334   6.349  18.820  0.00  0.00    +0.000 A 
ATOM     11  C   UNL     1       3.354   7.423  17.877  0.00  0.00    +0.000 A 
ATOM     12  C   UNL     1       4.048   7.520  16.571  0.00  0.00    +0.000 C 
ATOM     13  N   UNL     1       2.522   8.416  18.231  0.00  0.00    +0.000 NA
ATOM     14  N   UNL     1       1.972   7.968  19.375  0.00  0.00    +0.000 N 
ENDROOT
BRANCH   1  15
ATOM     15  N   UNL     1       5.451   5.044  18.887  0.00  0.00    +0.000 N 
ATOM     16  H   UNL     1       5.893   5.933  19.122  0.00  0.00    +0.000 HD
BRANCH  15  20
ATOM     17  C   UNL     1       6.668   4.386  14.857  0.00  0.00    +0.000 A 
ATOM     18  C   UNL     1       7.504   5.077  15.741  0.00  0.00    +0.000 A 
ATOM     19  C   UNL     1       7.139   5.227  17.094  0.00  0.00    +0.000 A 
ATOM     20  C   UNL     1       5.939   4.691  17.574  0.00  0.00    +0.000 A 
ATOM     21  C   UNL     1       5.241   3.808  16.729  0.00  0.00    +0.000 A 
ATOM     22  C   UNL     1       5.561   3.712  15.372  0.00  0.00    +0.000 A 
BRANCH  17  23
ATOM     23  C   UNL     1       6.854   4.391  13.375  0.00  0.00    +0.000 C 
ATOM     24  O   UNL     1       7.495   5.305  12.860  0.00  0.00    +0.000 OA
BRANCH  23  26
ATOM     25  C   UNL     1       4.902   3.649  11.958  0.00  0.00    +0.000 C 
ATOM     26  C   UNL     1       6.251   3.265  12.550  0.00  0.00    +0.000 C 
ENDBRANCH  23  26
ENDBRANCH  17  23
ENDBRANCH  15  20
ENDBRANCH   1  15
BRANCH  14  27
ATOM     27  C   UNL     1       1.396   8.905  20.319  0.00  0.00    +0.000 C 
ATOM     28  C   UNL     1       0.322   9.745  19.643  0.00  0.00    +0.000 C 
ENDBRANCH  14  27
TORSDOF 5
ENDMDL
MODEL 6
REMARK VINA RESULT:      -8.0      2.955      6.705
REMARK  Name = 
REMARK  8 active torsions:
REMARK  status: ('A' for Active; 'I' for Inactive)
REMARK    1  A    between atoms: C_1  and  C_2
REMARK    2  A    between atoms: C_2  and  C_3
REMARK    3  A    between atoms: C_3  and  C_5
REMARK    4  A    between atoms: C_8  and  N_9
REMARK    5  A    between atoms: N_9  and  C_10
REMARK    6  A    between atoms: C_20  and  C_21
REMARK    7  A    between atoms: N_23  and  C_24
REMARK    8  A    between atoms: C_24  and  C_25
REMARK                            x       y       z     vdW  Elec       q    Type
REMARK                         _______ _______ _______ _____ _____    ______ ____
ROOT
ATOM      1  C   UNL     1       3.423   5.837  19.183  0.00  0.00    +0.000 A 
ATOM      2  C   UNL     1       3.021   4.623  19.830  0.00  0.00    +0.000 A 
ATOM      3  C   UNL     1       3.584   3.345  19.552  0.00  0.00    +0.000 A 
ATOM      4  C   UNL     1       3.237   2.222  20.293  0.00  0.00    +0.000 A 
ATOM      5  C   UNL     1       2.326   2.341  21.334  0.00  0.00    +0.000 A 
ATOM      6  C   UNL     1       1.751   3.583  21.603  0.00  0.00    +0.000 A 
ATOM      7  C   UNL     1       2.058   4.719  20.865  0.00  0.00    +0.000 A 
ATOM      8  N   UNL     1       1.458   5.849  21.230  0.00  0.00    +0.000 NA
ATOM      9  C   UNL     1       1.690   6.895  20.417  0.00  0.00    +0.000 A 
ATOM     10  C   UNL     1       2.559   6.938  19.335  0.00  0.00    +0.000 A 
ATOM     11  C   UNL     1       2.256   8.193  18.720  0.00  0.00    +0.000 A 
ATOM     12  C   UNL     1       2.606   8.692  17.370  0.00  0.00    +0.000 C 
ATOM     13  N   UNL     1       1.447   8.944  19.485  0.00  0.00    +0.000 NA
ATOM     14  N   UNL     1       1.228   8.167  20.562  0.00  0.00    +0.000 N 
ENDROOT
BRANCH   1  15
ATOM     15  N   UNL     1       4.740   5.980  18.617  0.00  0.00    +0.000 N 
ATOM     16  H   UNL     1       4.987   6.969  18.646  0.00  0.00    +0.000 HD
BRANCH  15  20
ATOM     17  C   UNL     1       6.009   4.792  14.728  0.00  0.00    +0.000 A 
ATOM     18  C   UNL     1       5.938   3.854  15.763  0.00  0.00    +0.000 A 
ATOM     19  C   UNL     1       5.443   4.226  17.029  0.00  0.00    +0.000 A 
ATOM     20  C   UNL     1       5.018   5.538  17.272  0.00  0.00    +0.000 A 
ATOM     21  C   UNL     1       4.880   6.388  16.160  0.00  0.00    +0.000 A 
ATOM     22  C   UNL     1       5.431   6.047  14.922  0.00  0.00    +0.000 A 
BRANCH  17  23
ATOM     23  C   UNL     1       6.738   4.551  13.447  0.00  0.00    +0.000 C 
ATOM     24  O   UNL     1       7.652   5.312  13.132  0.00  0.00    +0.000 OA
BRANCH  23  26
ATOM     25  C   UNL     1       4.934   3.544  11.999  0.00  0.00    +0.000 C 
ATOM     26  C   UNL     1       6.332   3.375  12.575  0.00  0.00    +0.000 C 
ENDBRANCH  23  26
ENDBRANCH  17  23
ENDBRANCH  15  20
ENDBRANCH   1  15
BRANCH  14  27
ATOM     27  C   UNL     1       0.813   8.764  21.816  0.00  0.00    +0.000 C 
ATOM     28  C   UNL     1      -0.243   9.832  21.569  0.00  0.00    +0.000 C 
ENDBRANCH  14  27
TORSDOF 5
ENDMDL
MODEL 7
REMARK VINA RESULT:      -7.8      2.117      4.629
REMARK  Name = 
REMARK  8 active torsions:
REMARK  status: ('A' for Active; 'I' for Inactive)
REMARK    1  A    between atoms: C_1  and  C_2
REMARK    2  A    between atoms: C_2  and  C_3
REMARK    3  A    between atoms: C_3  and  C_5
REMARK    4  A    between atoms: C_8  and  N_9
REMARK    5  A    between atoms: N_9  and  C_10
REMARK    6  A    between atoms: C_20  and  C_21
REMARK    7  A    between atoms: N_23  and  C_24
REMARK    8  A    between atoms: C_24  and  C_25
REMARK                            x       y       z     vdW  Elec       q    Type
REMARK                         _______ _______ _______ _____ _____    ______ ____
ROOT
ATOM      1  C   UNL     1       4.334   5.719  17.681  0.00  0.00    +0.000 A 
ATOM      2  C   UNL     1       5.683   6.152  17.899  0.00  0.00    +0.000 A 
ATOM      3  C   UNL     1       6.267   7.291  17.278  0.00  0.00    +0.000 A 
ATOM      4  C   UNL     1       7.541   7.730  17.617  0.00  0.00    +0.000 A 
ATOM      5  C   UNL     1       8.266   7.051  18.587  0.00  0.00    +0.000 A 
ATOM      6  C   UNL     1       7.713   5.920  19.188  0.00  0.00    +0.000 A 
ATOM      7  C   UNL     1       6.453   5.442  18.854  0.00  0.00    +0.000 A 
ATOM      8  N   UNL     1       6.028   4.365  19.509  0.00  0.00    +0.000 NA
ATOM      9  C   UNL     1       4.858   3.866  19.072  0.00  0.00    +0.000 A 
ATOM     10  C   UNL     1       4.021   4.416  18.110  0.00  0.00    +0.000 A 
ATOM     11  C   UNL     1       3.052   3.387  17.891  0.00  0.00    +0.000 A 
ATOM     12  C   UNL     1       2.084   3.223  16.782  0.00  0.00    +0.000 C 
ATOM     13  N   UNL     1       3.153   2.402  18.799  0.00  0.00    +0.000 NA
ATOM     14  N   UNL     1       4.183   2.795  19.571  0.00  0.00    +0.000 N 
ENDROOT
BRANCH   1  15
ATOM     15  N   UNL     1       3.312   6.646  17.266  0.00  0.00    +0.000 N 
ATOM     16  H   UNL     1       3.751   7.356  16.682  0.00  0.00    +0.000 HD
BRANCH  15  20
ATOM     17  C   UNL     1       1.379   8.997  20.247  0.00  0.00    +0.000 A 
ATOM     18  C   UNL     1       1.342   9.391  18.906  0.00  0.00    +0.000 A 
ATOM     19  C   UNL     1       1.912   8.575  17.908  0.00  0.00    +0.000 A 
ATOM     20  C   UNL     1       2.524   7.361  18.242  0.00  0.00    +0.000 A 
ATOM     21  C   UNL     1       2.339   6.883  19.552  0.00  0.00    +0.000 A 
ATOM     22  C   UNL     1       1.836   7.715  20.556  0.00  0.00    +0.000 A 
BRANCH  17  23
ATOM     23  C   UNL     1       1.023   9.901  21.382  0.00  0.00    +0.000 C 
ATOM     24  O   UNL     1       1.112  11.117  21.221  0.00  0.00    +0.000 OA
BRANCH  23  26
ATOM     25  C   UNL     1      -0.751   9.900  23.176  0.00  0.00    +0.000 C 
ATOM     26  C   UNL     1       0.559   9.293  22.695  0.00  0.00    +0.000 C 
ENDBRANCH  23  26
ENDBRANCH  17  23
ENDBRANCH  15  20
ENDBRANCH   1  15
BRANCH  14  27
ATOM     27  C   UNL     1       4.316   2.281  20.920  0.00  0.00    +0.000 C 
ATOM     28  C   UNL     1       5.256   1.085  20.939  0.00  0.00    +0.000 C 
ENDBRANCH  14  27
TORSDOF 5
ENDMDL
MODEL 8
REMARK VINA RESULT:      -7.7      0.599      1.143
REMARK  Name = 
REMARK  8 active torsions:
REMARK  status: ('A' for Active; 'I' for Inactive)
REMARK    1  A    between atoms: C_1  and  C_2
REMARK    2  A    between atoms: C_2  and  C_3
REMARK    3  A    between atoms: C_3  and  C_5
REMARK    4  A    between atoms: C_8  and  N_9
REMARK    5  A    between atoms: N_9  and  C_10
REMARK    6  A    between atoms: C_20  and  C_21
REMARK    7  A    between atoms: N_23  and  C_24
REMARK    8  A    between atoms: C_24  and  C_25
REMARK                            x       y       z     vdW  Elec       q    Type
REMARK                         _______ _______ _______ _____ _____    ______ ____
ROOT
ATOM      1  C   UNL     1       3.616   5.133  19.239  0.00  0.00    +0.000 A 
ATOM      2  C   UNL     1       2.592   4.133  19.190  0.00  0.00    +0.000 A 
ATOM      3  C   UNL     1       1.657   3.895  20.237  0.00  0.00    +0.000 A 
ATOM      4  C   UNL     1       0.612   2.991  20.086  0.00  0.00    +0.000 A 
ATOM      5  C   UNL     1       0.465   2.305  18.888  0.00  0.00    +0.000 A 
ATOM      6  C   UNL     1       1.387   2.514  17.862  0.00  0.00    +0.000 A 
ATOM      7  C   UNL     1       2.456   3.391  17.990  0.00  0.00    +0.000 A 
ATOM      8  N   UNL     1       3.256   3.518  16.935  0.00  0.00    +0.000 NA
ATOM      9  C   UNL     1       4.342   4.283  17.143  0.00  0.00    +0.000 A 
ATOM     10  C   UNL     1       4.640   5.023  18.279  0.00  0.00    +0.000 A 
ATOM     11  C   UNL     1       5.982   5.459  18.045  0.00  0.00    +0.000 A 
ATOM     12  C   UNL     1       6.973   6.015  18.995  0.00  0.00    +0.000 C 
ATOM     13  N   UNL     1       6.379   5.204  16.787  0.00  0.00    +0.000 NA
ATOM     14  N   UNL     1       5.308   4.601  16.239  0.00  0.00    +0.000 N 
ENDROOT
BRANCH   1  15
ATOM     15  N   UNL     1       3.475   6.306  20.063  0.00  0.00    +0.000 N 
ATOM     16  H   UNL     1       3.067   6.017  20.952  0.00  0.00    +0.000 HD
BRANCH  15  20
ATOM     17  C   UNL     1       0.818   9.339  18.688  0.00  0.00    +0.000 A 
ATOM     18  C   UNL     1       0.975   9.109  20.059  0.00  0.00    +0.000 A 
ATOM     19  C   UNL     1       1.911   8.161  20.519  0.00  0.00    +0.000 A 
ATOM     20  C   UNL     1       2.696   7.436  19.615  0.00  0.00    +0.000 A 
ATOM     21  C   UNL     1       2.686   7.853  18.271  0.00  0.00    +0.000 A 
ATOM     22  C   UNL     1       1.714   8.741  17.802  0.00  0.00    +0.000 A 
BRANCH  17  23
ATOM     23  C   UNL     1      -0.306  10.134  18.110  0.00  0.00    +0.000 C 
ATOM     24  O   UNL     1      -0.408  11.323  18.410  0.00  0.00    +0.000 OA
BRANCH  23  26
ATOM     25  C   UNL     1      -2.728   9.841  17.464  0.00  0.00    +0.000 C 
ATOM     26  C   UNL     1      -1.286   9.455  17.168  0.00  0.00    +0.000 C 
ENDBRANCH  23  26
ENDBRANCH  17  23
ENDBRANCH  15  20
ENDBRANCH   1  15
BRANCH  14  27
ATOM     27  C   UNL     1       5.138   4.594  14.800  0.00  0.00    +0.000 C 
ATOM     28  C   UNL     1       6.354   3.976  14.125  0.00  0.00    +0.000 C 
ENDBRANCH  14  27
TORSDOF 5
ENDMDL
MODEL 9
REMARK VINA RESULT:      -7.6      1.937      2.344
REMARK  Name = 
REMARK  8 active torsions:
REMARK  status: ('A' for Active; 'I' for Inactive)
REMARK    1  A    between atoms: C_1  and  C_2
REMARK    2  A    between atoms: C_2  and  C_3
REMARK    3  A    between atoms: C_3  and  C_5
REMARK    4  A    between atoms: C_8  and  N_9
REMARK    5  A    between atoms: N_9  and  C_10
REMARK    6  A    between atoms: C_20  and  C_21
REMARK    7  A    between atoms: N_23  and  C_24
REMARK    8  A    between atoms: C_24  and  C_25
REMARK                            x       y       z     vdW  Elec       q    Type
REMARK                         _______ _______ _______ _____ _____    ______ ____
ROOT
ATOM      1  C   UNL     1       3.129   5.721  17.838  0.00  0.00    +0.000 A 
ATOM      2  C   UNL     1       2.611   4.465  18.292  0.00  0.00    +0.000 A 
ATOM      3  C   UNL     1       1.448   4.325  19.101  0.00  0.00    +0.000 A 
ATOM      4  C   UNL     1       0.925   3.075  19.412  0.00  0.00    +0.000 A 
ATOM      5  C   UNL     1       1.541   1.932  18.922  0.00  0.00    +0.000 A 
ATOM      6  C   UNL     1       2.694   2.054  18.145  0.00  0.00    +0.000 A 
ATOM      7  C   UNL     1       3.254   3.287  17.837  0.00  0.00    +0.000 A 
ATOM      8  N   UNL     1       4.344   3.274  17.073  0.00  0.00    +0.000 NA
ATOM      9  C   UNL     1       4.921   4.476  16.899  0.00  0.00    +0.000 A 
ATOM     10  C   UNL     1       4.442   5.706  17.330  0.00  0.00    +0.000 A 
ATOM     11  C   UNL     1       5.532   6.593  17.069  0.00  0.00    +0.000 A 
ATOM     12  C   UNL     1       5.776   7.964  17.576  0.00  0.00    +0.000 C 
ATOM     13  N   UNL     1       6.493   6.006  16.337  0.00  0.00    +0.000 NA
ATOM     14  N   UNL     1       6.023   4.758  16.152  0.00  0.00    +0.000 N 
ENDROOT
BRANCH   1  15
ATOM     15  N   UNL     1       2.275   6.872  17.694  0.00  0.00    +0.000 N 
ATOM     16  H   UNL     1       2.672   7.467  16.967  0.00  0.00    +0.000 HD
BRANCH  15  20
ATOM     17  C   UNL     1       1.049   9.253  21.007  0.00  0.00    +0.000 A 
ATOM     18  C   UNL     1       1.678   8.022  21.219  0.00  0.00    +0.000 A 
ATOM     19  C   UNL     1       2.156   7.269  20.128  0.00  0.00    +0.000 A 
ATOM     20  C   UNL     1       2.008   7.739  18.818  0.00  0.00    +0.000 A 
ATOM     21  C   UNL     1       1.590   9.072  18.652  0.00  0.00    +0.000 A 
ATOM     22  C   UNL     1       1.054   9.794  19.721  0.00  0.00    +0.000 A 
BRANCH  17  23
ATOM     23  C   UNL     1       0.304   9.991  22.071  0.00  0.00    +0.000 C 
ATOM     24  O   UNL     1       0.580   9.773  23.249  0.00  0.00    +0.000 OA
BRANCH  23  26
ATOM     25  C   UNL     1      -1.307  11.766  22.859  0.00  0.00    +0.000 C 
ATOM     26  C   UNL     1      -0.767  10.991  21.666  0.00  0.00    +0.000 C 
ENDBRANCH  23  26
ENDBRANCH  17  23
ENDBRANCH  15  20
ENDBRANCH   1  15
BRANCH  14  27
ATOM     27  C   UNL     1       6.504   3.959  15.043  0.00  0.00    +0.000 C 
ATOM     28  C   UNL     1       5.596   4.130  13.834  0.00  0.00    +0.000 C 
ENDBRANCH  14  27
TORSDOF 5
ENDMDL
