MODEL 1
REMARK VINA RESULT:      -6.9      0.000      0.000
REMARK  Name = 
REMARK  6 active torsions:
REMARK  status: ('A' for Active; 'I' for Inactive)
REMARK    1  A    between atoms: C_1  and  O_2
REMARK    2  A    between atoms: O_2  and  C_3
REMARK    3  A    between atoms: C_7  and  C_8
REMARK    4  A    between atoms: C_8  and  N_9
REMARK    5  A    between atoms: C_17  and  O_18
REMARK    6  A    between atoms: O_18  and  C_19
REMARK                            x       y       z     vdW  Elec       q    Type
REMARK                         _______ _______ _______ _____ _____    ______ ____
ROOT
ATOM      1  N   UNL     1       1.191  12.300  18.888  0.00  0.00    +0.000 N 
ATOM      2  C   UNL     1       1.592  11.137  19.634  0.00  0.00    +0.000 C 
ATOM      3  C   UNL     1       0.620  10.044  19.158  0.00  0.00    +0.000 C 
ATOM      4  C   UNL     1       0.318   9.009  20.258  0.00  0.00    +0.000 C 
ATOM      5  C   UNL     1       1.539   8.153  20.613  0.00  0.00    +0.000 C 
ATOM      6  N   UNL     1       2.106   7.559  19.407  0.00  0.00    +0.000 N 
ATOM      7  C   UNL     1       2.277   6.199  19.242  0.00  0.00    +0.000 A 
ATOM      8  C   UNL     1       2.466   5.340  20.308  0.00  0.00    +0.000 A 
ATOM      9  C   UNL     1       2.641   4.005  20.015  0.00  0.00    +0.000 A 
ATOM     10  N   UNL     1       2.639   3.495  18.775  0.00  0.00    +0.000 NA
ATOM     11  C   UNL     1       2.457   4.396  17.811  0.00  0.00    +0.000 A 
ATOM     12  N   UNL     1       2.286   5.712  17.984  0.00  0.00    +0.000 NA
ATOM     13  C   UNL     1       2.397   8.442  18.276  0.00  0.00    +0.000 C 
ATOM     14  C   UNL     1       1.167   9.280  17.930  0.00  0.00    +0.000 C 
ATOM     15  C   UNL     1      -0.645  10.849  18.775  0.00  0.00    +0.000 C 
ATOM     16  C   UNL     1      -0.141  12.254  18.525  0.00  0.00    +0.000 C 
ATOM     17  O   UNL     1      -0.807  13.169  18.070  0.00  0.00    +0.000 OA
ENDROOT
BRANCH   9  18
ATOM     18  O   UNL     1       2.847   3.164  21.094  0.00  0.00    +0.000 OA
ATOM     19  C   UNL     1       1.638   2.661  21.652  0.00  0.00    +0.000 C 
ENDBRANCH   9  18
BRANCH   1  20
ATOM     20  C   UNL     1       2.051  13.449  18.678  0.00  0.00    +0.000 C 
BRANCH  20  25
ATOM     21  C   UNL     1       3.143  14.956  22.014  0.00  0.00    +0.000 A 
ATOM     22  C   UNL     1       2.383  16.128  22.031  0.00  0.00    +0.000 A 
ATOM     23  C   UNL     1       1.516  16.428  20.981  0.00  0.00    +0.000 A 
ATOM     24  C   UNL     1       1.398  15.548  19.908  0.00  0.00    +0.000 A 
ATOM     25  C   UNL     1       2.161  14.373  19.863  0.00  0.00    +0.000 A 
ATOM     26  C   UNL     1       3.041  14.088  20.923  0.00  0.00    +0.000 A 
BRANCH  21  28
ATOM     27  C   UNL     1       5.248  14.293  22.910  0.00  0.00    +0.000 C 
ATOM     28  O   UNL     1       3.929  14.776  23.119  0.00  0.00    +0.000 OA
ENDBRANCH  21  28
ENDBRANCH  20  25
ENDBRANCH   1  20
TORSDOF 4
ENDMDL
MODEL 2
REMARK VINA RESULT:      -6.8      1.904      2.640
REMARK  Name = 
REMARK  6 active torsions:
REMARK  status: ('A' for Active; 'I' for Inactive)
REMARK    1  A    between atoms: C_1  and  O_2
REMARK    2  A    between atoms: O_2  and  C_3
REMARK    3  A    between atoms: C_7  and  C_8
REMARK    4  A    between atoms: C_8  and  N_9
REMARK    5  A    between atoms: C_17  and  O_18
REMARK    6  A    between atoms: O_18  and  C_19
REMARK                            x       y       z     vdW  Elec       q    Type
REMARK                         _______ _______ _______ _____ _____    ______ ____
ROOT
ATOM      1  N   UNL     1       0.362  12.445  20.678  0.00  0.00    +0.000 N 
ATOM      2  C   UNL     1       0.790  11.156  21.151  0.00  0.00    +0.000 C 
ATOM      3  C   UNL     1       0.068  10.167  20.220  0.00  0.00    +0.000 C 
ATOM      4  C   UNL     1      -0.267   8.838  20.923  0.00  0.00    +0.000 C 
ATOM      5  C   UNL     1       0.985   8.023  21.269  0.00  0.00    +0.000 C 
ATOM      6  N   UNL     1       1.818   7.850  20.084  0.00  0.00    +0.000 N 
ATOM      7  C   UNL     1       2.197   6.614  19.599  0.00  0.00    +0.000 A 
ATOM      8  C   UNL     1       2.324   5.506  20.413  0.00  0.00    +0.000 A 
ATOM      9  C   UNL     1       2.725   4.330  19.816  0.00  0.00    +0.000 A 
ATOM     10  N   UNL     1       2.995   4.199  18.509  0.00  0.00    +0.000 NA
ATOM     11  C   UNL     1       2.854   5.321  17.804  0.00  0.00    +0.000 A 
ATOM     12  N   UNL     1       2.479   6.512  18.284  0.00  0.00    +0.000 NA
ATOM     13  C   UNL     1       2.167   9.043  19.308  0.00  0.00    +0.000 C 
ATOM     14  C   UNL     1       0.908   9.836  18.964  0.00  0.00    +0.000 C 
ATOM     15  C   UNL     1      -1.215  10.938  19.826  0.00  0.00    +0.000 C 
ATOM     16  C   UNL     1      -0.873  12.392  20.063  0.00  0.00    +0.000 C 
ATOM     17  O   UNL     1      -1.573  13.339  19.746  0.00  0.00    +0.000 OA
ENDROOT
BRANCH   9  18
ATOM     18  O   UNL     1       2.864   3.236  20.650  0.00  0.00    +0.000 OA
ATOM     19  C   UNL     1       1.759   3.057  21.530  0.00  0.00    +0.000 C 
ENDBRANCH   9  18
BRANCH   1  20
ATOM     20  C   UNL     1       1.081  13.675  20.955  0.00  0.00    +0.000 C 
BRANCH  20  25
ATOM     21  C   UNL     1       2.456  16.133  18.374  0.00  0.00    +0.000 A 
ATOM     22  C   UNL     1       3.254  15.283  17.605  0.00  0.00    +0.000 A 
ATOM     23  C   UNL     1       3.342  13.925  17.907  0.00  0.00    +0.000 A 
ATOM     24  C   UNL     1       2.621  13.406  18.980  0.00  0.00    +0.000 A 
ATOM     25  C   UNL     1       1.825  14.244  19.774  0.00  0.00    +0.000 A 
ATOM     26  C   UNL     1       1.754  15.614  19.466  0.00  0.00    +0.000 A 
BRANCH  21  28
ATOM     27  C   UNL     1       1.241  17.915  17.364  0.00  0.00    +0.000 C 
ATOM     28  O   UNL     1       2.441  17.433  17.949  0.00  0.00    +0.000 OA
ENDBRANCH  21  28
ENDBRANCH  20  25
ENDBRANCH   1  20
TORSDOF 4
ENDMDL
MODEL 3
REMARK VINA RESULT:      -6.8      0.912      1.503
REMARK  Name = 
REMARK  6 active torsions:
REMARK  status: ('A' for Active; 'I' for Inactive)
REMARK    1  A    between atoms: C_1  and  O_2
REMARK    2  A    between atoms: O_2  and  C_3
REMARK    3  A    between atoms: C_7  and  C_8
REMARK    4  A    between atoms: C_8  and  N_9
REMARK    5  A    between atoms: C_17  and  O_18
REMARK    6  A    between atoms: O_18  and  C_19
REMARK                            x       y       z     vdW  Elec       q    Type
REMARK                         _______ _______ _______ _____ _____    ______ ____
ROOT
ATOM      1  N   UNL     1       1.181  12.297  18.855  0.00  0.00    +0.000 N 
ATOM      2  C   UNL     1       1.589  11.140  19.606  0.00  0.00    +0.000 C 
ATOM      3  C   UNL     1       0.615  10.042  19.146  0.00  0.00    +0.000 C 
ATOM      4  C   UNL     1       0.323   9.014  20.255  0.00  0.00    +0.000 C 
ATOM      5  C   UNL     1       1.548   8.163  20.607  0.00  0.00    +0.000 C 
ATOM      6  N   UNL     1       2.108   7.561  19.403  0.00  0.00    +0.000 N 
ATOM      7  C   UNL     1       2.279   6.200  19.246  0.00  0.00    +0.000 A 
ATOM      8  C   UNL     1       2.478   5.350  20.316  0.00  0.00    +0.000 A 
ATOM      9  C   UNL     1       2.652   4.013  20.032  0.00  0.00    +0.000 A 
ATOM     10  N   UNL     1       2.642   3.494  18.796  0.00  0.00    +0.000 NA
ATOM     11  C   UNL     1       2.452   4.387  17.827  0.00  0.00    +0.000 A 
ATOM     12  N   UNL     1       2.280   5.704  17.991  0.00  0.00    +0.000 NA
ATOM     13  C   UNL     1       2.388   8.437  18.262  0.00  0.00    +0.000 C 
ATOM     14  C   UNL     1       1.155   9.269  17.919  0.00  0.00    +0.000 C 
ATOM     15  C   UNL     1      -0.654  10.843  18.766  0.00  0.00    +0.000 C 
ATOM     16  C   UNL     1      -0.154  12.246  18.503  0.00  0.00    +0.000 C 
ATOM     17  O   UNL     1      -0.825  13.156  18.045  0.00  0.00    +0.000 OA
ENDROOT
BRANCH   9  18
ATOM     18  O   UNL     1       2.869   3.180  21.115  0.00  0.00    +0.000 OA
ATOM     19  C   UNL     1       1.666   2.653  21.666  0.00  0.00    +0.000 C 
ENDBRANCH   9  18
BRANCH   1  20
ATOM     20  C   UNL     1       2.037  13.446  18.630  0.00  0.00    +0.000 C 
BRANCH  20  25
ATOM     21  C   UNL     1       1.854  15.216  22.010  0.00  0.00    +0.000 A 
ATOM     22  C   UNL     1       3.202  15.517  22.220  0.00  0.00    +0.000 A 
ATOM     23  C   UNL     1       4.163  15.162  21.275  0.00  0.00    +0.000 A 
ATOM     24  C   UNL     1       3.779  14.510  20.106  0.00  0.00    +0.000 A 
ATOM     25  C   UNL     1       2.434  14.185  19.882  0.00  0.00    +0.000 A 
ATOM     26  C   UNL     1       1.474  14.538  20.848  0.00  0.00    +0.000 A 
BRANCH  21  28
ATOM     27  C   UNL     1      -0.375  15.431  22.824  0.00  0.00    +0.000 C 
ATOM     28  O   UNL     1       1.018  15.645  23.004  0.00  0.00    +0.000 OA
ENDBRANCH  21  28
ENDBRANCH  20  25
ENDBRANCH   1  20
TORSDOF 4
ENDMDL
MODEL 4
REMARK VINA RESULT:      -6.7      1.181      1.454
REMARK  Name = 
REMARK  6 active torsions:
REMARK  status: ('A' for Active; 'I' for Inactive)
REMARK    1  A    between atoms: C_1  and  O_2
REMARK    2  A    between atoms: O_2  and  C_3
REMARK    3  A    between atoms: C_7  and  C_8
REMARK    4  A    between atoms: C_8  and  N_9
REMARK    5  A    between atoms: C_17  and  O_18
REMARK    6  A    between atoms: O_18  and  C_19
REMARK                            x       y       z     vdW  Elec       q    Type
REMARK                         _______ _______ _______ _____ _____    ______ ____
ROOT
ATOM      1  N   UNL     1       1.126  12.278  18.938  0.00  0.00    +0.000 N 
ATOM      2  C   UNL     1       1.536  11.118  19.682  0.00  0.00    +0.000 C 
ATOM      3  C   UNL     1       0.580  10.015  19.196  0.00  0.00    +0.000 C 
ATOM      4  C   UNL     1       0.283   8.972  20.290  0.00  0.00    +0.000 C 
ATOM      5  C   UNL     1       1.512   8.130  20.650  0.00  0.00    +0.000 C 
ATOM      6  N   UNL     1       2.094   7.547  19.447  0.00  0.00    +0.000 N 
ATOM      7  C   UNL     1       2.282   6.189  19.278  0.00  0.00    +0.000 A 
ATOM      8  C   UNL     1       2.474   5.330  20.342  0.00  0.00    +0.000 A 
ATOM      9  C   UNL     1       2.667   3.997  20.046  0.00  0.00    +0.000 A 
ATOM     10  N   UNL     1       2.679   3.492  18.804  0.00  0.00    +0.000 NA
ATOM     11  C   UNL     1       2.494   4.394  17.842  0.00  0.00    +0.000 A 
ATOM     12  N   UNL     1       2.306   5.707  18.018  0.00  0.00    +0.000 NA
ATOM     13  C   UNL     1       2.382   8.438  18.320  0.00  0.00    +0.000 C 
ATOM     14  C   UNL     1       1.145   9.261  17.969  0.00  0.00    +0.000 C 
ATOM     15  C   UNL     1      -0.692  10.806  18.807  0.00  0.00    +0.000 C 
ATOM     16  C   UNL     1      -0.203  12.218  18.566  0.00  0.00    +0.000 C 
ATOM     17  O   UNL     1      -0.877  13.126  18.109  0.00  0.00    +0.000 OA
ENDROOT
BRANCH   9  18
ATOM     18  O   UNL     1       2.877   3.155  21.123  0.00  0.00    +0.000 OA
ATOM     19  C   UNL     1       1.670   2.622  21.661  0.00  0.00    +0.000 C 
ENDBRANCH   9  18
BRANCH   1  20
ATOM     20  C   UNL     1       1.974  13.439  18.738  0.00  0.00    +0.000 C 
BRANCH  20  25
ATOM     21  C   UNL     1       1.118  15.620  21.753  0.00  0.00    +0.000 A 
ATOM     22  C   UNL     1       0.987  16.870  21.142  0.00  0.00    +0.000 A 
ATOM     23  C   UNL     1       1.164  17.009  19.767  0.00  0.00    +0.000 A 
ATOM     24  C   UNL     1       1.463  15.892  18.990  0.00  0.00    +0.000 A 
ATOM     25  C   UNL     1       1.612  14.631  19.585  0.00  0.00    +0.000 A 
ATOM     26  C   UNL     1       1.444  14.506  20.975  0.00  0.00    +0.000 A 
BRANCH  21  28
ATOM     27  C   UNL     1      -0.433  15.887  23.542  0.00  0.00    +0.000 C 
ATOM     28  O   UNL     1       0.892  15.625  23.103  0.00  0.00    +0.000 OA
ENDBRANCH  21  28
ENDBRANCH  20  25
ENDBRANCH   1  20
TORSDOF 4
ENDMDL
MODEL 5
REMARK VINA RESULT:      -6.7      3.482      8.180
REMARK  Name = 
REMARK  6 active torsions:
REMARK  status: ('A' for Active; 'I' for Inactive)
REMARK    1  A    between atoms: C_1  and  O_2
REMARK    2  A    between atoms: O_2  and  C_3
REMARK    3  A    between atoms: C_7  and  C_8
REMARK    4  A    between atoms: C_8  and  N_9
REMARK    5  A    between atoms: C_17  and  O_18
REMARK    6  A    between atoms: O_18  and  C_19
REMARK                            x       y       z     vdW  Elec       q    Type
REMARK                         _______ _______ _______ _____ _____    ______ ____
ROOT
ATOM      1  N   UNL     1       3.862   4.452  17.502  0.00  0.00    +0.000 N 
ATOM      2  C   UNL     1       3.501   5.839  17.613  0.00  0.00    +0.000 C 
ATOM      3  C   UNL     1       2.079   5.802  18.200  0.00  0.00    +0.000 C 
ATOM      4  C   UNL     1       1.217   6.986  17.725  0.00  0.00    +0.000 C 
ATOM      5  C   UNL     1       1.706   8.330  18.278  0.00  0.00    +0.000 C 
ATOM      6  N   UNL     1       1.835   8.262  19.729  0.00  0.00    +0.000 N 
ATOM      7  C   UNL     1       1.183   9.123  20.588  0.00  0.00    +0.000 A 
ATOM      8  C   UNL     1       0.823  10.406  20.221  0.00  0.00    +0.000 A 
ATOM      9  C   UNL     1       0.190  11.177  21.171  0.00  0.00    +0.000 A 
ATOM     10  N   UNL     1      -0.095  10.764  22.415  0.00  0.00    +0.000 NA
ATOM     11  C   UNL     1       0.295   9.518  22.683  0.00  0.00    +0.000 A 
ATOM     12  N   UNL     1       0.921   8.690  21.839  0.00  0.00    +0.000 NA
ATOM     13  C   UNL     1       2.600   7.151  20.300  0.00  0.00    +0.000 C 
ATOM     14  C   UNL     1       2.093   5.821  19.747  0.00  0.00    +0.000 C 
ATOM     15  C   UNL     1       1.526   4.453  17.680  0.00  0.00    +0.000 C 
ATOM     16  C   UNL     1       2.758   3.634  17.361  0.00  0.00    +0.000 C 
ATOM     17  O   UNL     1       2.755   2.455  17.049  0.00  0.00    +0.000 OA
ENDROOT
BRANCH   9  18
ATOM     18  O   UNL     1      -0.146  12.464  20.791  0.00  0.00    +0.000 OA
ATOM     19  C   UNL     1      -0.571  12.555  19.435  0.00  0.00    +0.000 C 
ENDBRANCH   9  18
BRANCH   1  20
ATOM     20  C   UNL     1       5.233   3.989  17.399  0.00  0.00    +0.000 C 
BRANCH  20  25
ATOM     21  C   UNL     1       7.487   7.063  17.644  0.00  0.00    +0.000 A 
ATOM     22  C   UNL     1       8.148   6.806  18.848  0.00  0.00    +0.000 A 
ATOM     23  C   UNL     1       7.878   5.646  19.572  0.00  0.00    +0.000 A 
ATOM     24  C   UNL     1       6.949   4.728  19.088  0.00  0.00    +0.000 A 
ATOM     25  C   UNL     1       6.263   4.973  17.890  0.00  0.00    +0.000 A 
ATOM     26  C   UNL     1       6.536   6.153  17.175  0.00  0.00    +0.000 A 
BRANCH  21  28
ATOM     27  C   UNL     1       8.161   9.338  17.856  0.00  0.00    +0.000 C 
ATOM     28  O   UNL     1       7.868   8.223  17.027  0.00  0.00    +0.000 OA
ENDBRANCH  21  28
ENDBRANCH  20  25
ENDBRANCH   1  20
TORSDOF 4
ENDMDL
MODEL 6
REMARK VINA RESULT:      -6.7      3.720      9.404
REMARK  Name = 
REMARK  6 active torsions:
REMARK  status: ('A' for Active; 'I' for Inactive)
REMARK    1  A    between atoms: C_1  and  O_2
REMARK    2  A    between atoms: O_2  and  C_3
REMARK    3  A    between atoms: C_7  and  C_8
REMARK    4  A    between atoms: C_8  and  N_9
REMARK    5  A    between atoms: C_17  and  O_18
REMARK    6  A    between atoms: O_18  and  C_19
REMARK                            x       y       z     vdW  Elec       q    Type
REMARK                         _______ _______ _______ _____ _____    ______ ____
ROOT
ATOM      1  N   UNL     1       3.763   4.713  17.914  0.00  0.00    +0.000 N 
ATOM      2  C   UNL     1       3.454   6.107  18.091  0.00  0.00    +0.000 C 
ATOM      3  C   UNL     1       1.976   6.103  18.519  0.00  0.00    +0.000 C 
ATOM      4  C   UNL     1       1.226   7.362  18.045  0.00  0.00    +0.000 C 
ATOM      5  C   UNL     1       1.710   8.635  18.748  0.00  0.00    +0.000 C 
ATOM      6  N   UNL     1       1.675   8.458  20.195  0.00  0.00    +0.000 N 
ATOM      7  C   UNL     1       0.970   9.289  21.043  0.00  0.00    +0.000 A 
ATOM      8  C   UNL     1       0.711  10.612  20.738  0.00  0.00    +0.000 A 
ATOM      9  C   UNL     1       0.012  11.346  21.671  0.00  0.00    +0.000 A 
ATOM     10  N   UNL     1      -0.426  10.861  22.842  0.00  0.00    +0.000 NA
ATOM     11  C   UNL     1      -0.124   9.581  23.054  0.00  0.00    +0.000 A 
ATOM     12  N   UNL     1       0.554   8.783  22.222  0.00  0.00    +0.000 NA
ATOM     13  C   UNL     1       2.321   7.270  20.759  0.00  0.00    +0.000 C 
ATOM     14  C   UNL     1       1.820   6.011  20.055  0.00  0.00    +0.000 C 
ATOM     15  C   UNL     1       1.424   4.826  17.841  0.00  0.00    +0.000 C 
ATOM     16  C   UNL     1       2.645   3.967  17.594  0.00  0.00    +0.000 C 
ATOM     17  O   UNL     1       2.625   2.815  17.195  0.00  0.00    +0.000 OA
ENDROOT
BRANCH   9  18
ATOM     18  O   UNL     1      -0.222  12.673  21.356  0.00  0.00    +0.000 OA
ATOM     19  C   UNL     1      -0.513  13.476  22.496  0.00  0.00    +0.000 C 
ENDBRANCH   9  18
BRANCH   1  20
ATOM     20  C   UNL     1       5.115   4.188  17.923  0.00  0.00    +0.000 C 
BRANCH  20  25
ATOM     21  C   UNL     1       6.052   3.984  14.226  0.00  0.00    +0.000 A 
ATOM     22  C   UNL     1       7.239   4.721  14.217  0.00  0.00    +0.000 A 
ATOM     23  C   UNL     1       7.740   5.273  15.395  0.00  0.00    +0.000 A 
ATOM     24  C   UNL     1       7.060   5.080  16.595  0.00  0.00    +0.000 A 
ATOM     25  C   UNL     1       5.860   4.356  16.624  0.00  0.00    +0.000 A 
ATOM     26  C   UNL     1       5.358   3.814  15.427  0.00  0.00    +0.000 A 
BRANCH  21  28
ATOM     27  C   UNL     1       6.666   3.507  11.974  0.00  0.00    +0.000 C 
ATOM     28  O   UNL     1       5.692   3.479  13.007  0.00  0.00    +0.000 OA
ENDBRANCH  21  28
ENDBRANCH  20  25
ENDBRANCH   1  20
TORSDOF 4
ENDMDL
MODEL 7
REMARK VINA RESULT:      -6.6      4.929      8.795
REMARK  Name = 
REMARK  6 active torsions:
REMARK  status: ('A' for Active; 'I' for Inactive)
REMARK    1  A    between atoms: C_1  and  O_2
REMARK    2  A    between atoms: O_2  and  C_3
REMARK    3  A    between atoms: C_7  and  C_8
REMARK    4  A    between atoms: C_8  and  N_9
REMARK    5  A    between atoms: C_17  and  O_18
REMARK    6  A    between atoms: O_18  and  C_19
REMARK                            x       y       z     vdW  Elec       q    Type
REMARK                         _______ _______ _______ _____ _____    ______ ____
ROOT
ATOM      1  N   UNL     1      -3.527  11.340  17.676  0.00  0.00    +0.000 N 
ATOM      2  C   UNL     1      -2.811  11.818  18.828  0.00  0.00    +0.000 C 
ATOM      3  C   UNL     1      -1.342  11.491  18.509  0.00  0.00    +0.000 C 
ATOM      4  C   UNL     1      -0.521  11.187  19.775  0.00  0.00    +0.000 C 
ATOM      5  C   UNL     1      -0.338  12.418  20.670  0.00  0.00    +0.000 C 
ATOM      6  N   UNL     1       0.197  13.531  19.894  0.00  0.00    +0.000 N 
ATOM      7  C   UNL     1       1.366  14.188  20.220  0.00  0.00    +0.000 A 
ATOM      8  C   UNL     1       1.835  14.268  21.517  0.00  0.00    +0.000 A 
ATOM      9  C   UNL     1       3.007  14.964  21.720  0.00  0.00    +0.000 A 
ATOM     10  N   UNL     1       3.710  15.562  20.747  0.00  0.00    +0.000 NA
ATOM     11  C   UNL     1       3.180  15.439  19.531  0.00  0.00    +0.000 A 
ATOM     12  N   UNL     1       2.048  14.794  19.226  0.00  0.00    +0.000 NA
ATOM     13  C   UNL     1      -0.479  13.887  18.644  0.00  0.00    +0.000 C 
ATOM     14  C   UNL     1      -0.643  12.651  17.762  0.00  0.00    +0.000 C 
ATOM     15  C   UNL     1      -1.456  10.248  17.594  0.00  0.00    +0.000 C 
ATOM     16  C   UNL     1      -2.861  10.313  17.037  0.00  0.00    +0.000 C 
ATOM     17  O   UNL     1      -3.305   9.584  16.165  0.00  0.00    +0.000 OA
ENDROOT
BRANCH   9  18
ATOM     18  O   UNL     1       3.450  15.050  23.028  0.00  0.00    +0.000 OA
ATOM     19  C   UNL     1       3.914  16.349  23.379  0.00  0.00    +0.000 C 
ENDBRANCH   9  18
BRANCH   1  20
ATOM     20  C   UNL     1      -4.861  11.788  17.322  0.00  0.00    +0.000 C 
BRANCH  20  25
ATOM     21  C   UNL     1      -7.098  10.810  20.260  0.00  0.00    +0.000 A 
ATOM     22  C   UNL     1      -7.565  12.065  20.659  0.00  0.00    +0.000 A 
ATOM     23  C   UNL     1      -7.171  13.218  19.982  0.00  0.00    +0.000 A 
ATOM     24  C   UNL     1      -6.312  13.120  18.890  0.00  0.00    +0.000 A 
ATOM     25  C   UNL     1      -5.820  11.874  18.481  0.00  0.00    +0.000 A 
ATOM     26  C   UNL     1      -6.215  10.719  19.180  0.00  0.00    +0.000 A 
BRANCH  21  28
ATOM     27  C   UNL     1      -7.500   8.468  20.423  0.00  0.00    +0.000 C 
ATOM     28  O   UNL     1      -7.585   9.765  20.995  0.00  0.00    +0.000 OA
ENDBRANCH  21  28
ENDBRANCH  20  25
ENDBRANCH   1  20
TORSDOF 4
ENDMDL
MODEL 8
REMARK VINA RESULT:      -6.5      4.241      7.146
REMARK  Name = 
REMARK  6 active torsions:
REMARK  status: ('A' for Active; 'I' for Inactive)
REMARK    1  A    between atoms: C_1  and  O_2
REMARK    2  A    between atoms: O_2  and  C_3
REMARK    3  A    between atoms: C_7  and  C_8
REMARK    4  A    between atoms: C_8  and  N_9
REMARK    5  A    between atoms: C_17  and  O_18
REMARK    6  A    between atoms: O_18  and  C_19
REMARK                            x       y       z     vdW  Elec       q    Type
REMARK                         _______ _______ _______ _____ _____    ______ ____
ROOT
ATOM      1  N   UNL     1       1.269  12.012  18.547  0.00  0.00    +0.000 N 
ATOM      2  C   UNL     1      -0.042  12.535  18.824  0.00  0.00    +0.000 C 
ATOM      3  C   UNL     1      -0.767  11.363  19.509  0.00  0.00    +0.000 C 
ATOM      4  C   UNL     1      -2.280  11.361  19.221  0.00  0.00    +0.000 C 
ATOM      5  C   UNL     1      -3.005  12.546  19.868  0.00  0.00    +0.000 C 
ATOM      6  N   UNL     1      -2.693  12.612  21.291  0.00  0.00    +0.000 N 
ATOM      7  C   UNL     1      -3.657  12.591  22.280  0.00  0.00    +0.000 A 
ATOM      8  C   UNL     1      -4.942  13.053  22.071  0.00  0.00    +0.000 A 
ATOM      9  C   UNL     1      -5.811  12.995  23.139  0.00  0.00    +0.000 A 
ATOM     10  N   UNL     1      -5.489  12.523  24.352  0.00  0.00    +0.000 NA
ATOM     11  C   UNL     1      -4.229  12.107  24.463  0.00  0.00    +0.000 A 
ATOM     12  N   UNL     1      -3.304  12.126  23.496  0.00  0.00    +0.000 NA
ATOM     13  C   UNL     1      -1.283  12.579  21.690  0.00  0.00    +0.000 C 
ATOM     14  C   UNL     1      -0.580  11.387  21.044  0.00  0.00    +0.000 C 
ATOM     15  C   UNL     1      -0.072  10.122  18.898  0.00  0.00    +0.000 C 
ATOM     16  C   UNL     1       1.264  10.638  18.407  0.00  0.00    +0.000 C 
ATOM     17  O   UNL     1       2.170   9.943  17.979  0.00  0.00    +0.000 OA
ENDROOT
BRANCH   9  18
ATOM     18  O   UNL     1      -7.088  13.479  22.917  0.00  0.00    +0.000 OA
ATOM     19  C   UNL     1      -7.793  13.773  24.118  0.00  0.00    +0.000 C 
ENDBRANCH   9  18
BRANCH   1  20
ATOM     20  C   UNL     1       2.426  12.850  18.296  0.00  0.00    +0.000 C 
BRANCH  20  25
ATOM     21  C   UNL     1       3.153  14.840  21.474  0.00  0.00    +0.000 A 
ATOM     22  C   UNL     1       2.934  16.143  21.021  0.00  0.00    +0.000 A 
ATOM     23  C   UNL     1       2.544  16.380  19.704  0.00  0.00    +0.000 A 
ATOM     24  C   UNL     1       2.362  15.310  18.832  0.00  0.00    +0.000 A 
ATOM     25  C   UNL     1       2.590  13.995  19.261  0.00  0.00    +0.000 A 
ATOM     26  C   UNL     1       2.994  13.769  20.589  0.00  0.00    +0.000 A 
BRANCH  21  28
ATOM     27  C   UNL     1       4.887  14.633  23.095  0.00  0.00    +0.000 C 
ATOM     28  O   UNL     1       3.504  14.751  22.793  0.00  0.00    +0.000 OA
ENDBRANCH  21  28
ENDBRANCH  20  25
ENDBRANCH   1  20
TORSDOF 4
ENDMDL
MODEL 9
REMARK VINA RESULT:      -6.5      1.430      2.049
REMARK  Name = 
REMARK  6 active torsions:
REMARK  status: ('A' for Active; 'I' for Inactive)
REMARK    1  A    between atoms: C_1  and  O_2
REMARK    2  A    between atoms: O_2  and  C_3
REMARK    3  A    between atoms: C_7  and  C_8
REMARK    4  A    between atoms: C_8  and  N_9
REMARK    5  A    between atoms: C_17  and  O_18
REMARK    6  A    between atoms: O_18  and  C_19
REMARK                            x       y       z     vdW  Elec       q    Type
REMARK                         _______ _______ _______ _____ _____    ______ ____
ROOT
ATOM      1  N   UNL     1       1.269  12.127  18.853  0.00  0.00    +0.000 N 
ATOM      2  C   UNL     1       1.712  10.963  19.572  0.00  0.00    +0.000 C 
ATOM      3  C   UNL     1       0.686   9.883  19.188  0.00  0.00    +0.000 C 
ATOM      4  C   UNL     1       0.459   8.861  20.317  0.00  0.00    +0.000 C 
ATOM      5  C   UNL     1       1.692   7.987  20.577  0.00  0.00    +0.000 C 
ATOM      6  N   UNL     1       2.147   7.375  19.334  0.00  0.00    +0.000 N 
ATOM      7  C   UNL     1       2.282   6.011  19.166  0.00  0.00    +0.000 A 
ATOM      8  C   UNL     1       2.545   5.157  20.220  0.00  0.00    +0.000 A 
ATOM      9  C   UNL     1       2.673   3.817  19.925  0.00  0.00    +0.000 A 
ATOM     10  N   UNL     1       2.559   3.299  18.693  0.00  0.00    +0.000 NA
ATOM     11  C   UNL     1       2.313   4.196  17.740  0.00  0.00    +0.000 A 
ATOM     12  N   UNL     1       2.179   5.516  17.916  0.00  0.00    +0.000 NA
ATOM     13  C   UNL     1       2.357   8.246  18.175  0.00  0.00    +0.000 C 
ATOM     14  C   UNL     1       1.117   9.101  17.925  0.00  0.00    +0.000 C 
ATOM     15  C   UNL     1      -0.593  10.707  18.904  0.00  0.00    +0.000 C 
ATOM     16  C   UNL     1      -0.089  12.101  18.602  0.00  0.00    +0.000 C 
ATOM     17  O   UNL     1      -0.775  13.024  18.195  0.00  0.00    +0.000 OA
ENDROOT
BRANCH   9  18
ATOM     18  O   UNL     1       2.955   2.980  20.990  0.00  0.00    +0.000 OA
ATOM     19  C   UNL     1       1.844   2.787  21.860  0.00  0.00    +0.000 C 
ENDBRANCH   9  18
BRANCH   1  20
ATOM     20  C   UNL     1       2.127  13.260  18.562  0.00  0.00    +0.000 C 
BRANCH  20  25
ATOM     21  C   UNL     1       1.645  16.863  19.735  0.00  0.00    +0.000 A 
ATOM     22  C   UNL     1       1.431  16.666  21.101  0.00  0.00    +0.000 A 
ATOM     23  C   UNL     1       1.451  15.383  21.644  0.00  0.00    +0.000 A 
ATOM     24  C   UNL     1       1.697  14.286  20.822  0.00  0.00    +0.000 A 
ATOM     25  C   UNL     1       1.900  14.460  19.446  0.00  0.00    +0.000 A 
ATOM     26  C   UNL     1       1.866  15.758  18.908  0.00  0.00    +0.000 A 
BRANCH  21  28
ATOM     27  C   UNL     1       0.473  18.631  18.650  0.00  0.00    +0.000 C 
ATOM     28  O   UNL     1       1.625  18.174  19.343  0.00  0.00    +0.000 OA
ENDBRANCH  21  28
ENDBRANCH  20  25
ENDBRANCH   1  20
TORSDOF 4
ENDMDL
