MODEL 1
REMARK VINA RESULT:      -7.6      0.000      0.000
REMARK  Name = 
REMARK  6 active torsions:
REMARK  status: ('A' for Active; 'I' for Inactive)
REMARK    1  A    between atoms: C_1  and  N_2
REMARK    2  A    between atoms: N_2  and  C_3
REMARK    3  A    between atoms: C_6  and  O_7
REMARK    4  A    between atoms: O_7  and  C_8
REMARK    5  A    between atoms: C_13  and  C_14
REMARK    6  A    between atoms: C_14  and  C_15
REMARK                            x       y       z     vdW  Elec       q    Type
REMARK                         _______ _______ _______ _____ _____    ______ ____
ROOT
ATOM      1  C   UNL     1       3.222   3.610  19.612  0.00  0.00    +0.000 A 
ATOM      2  C   UNL     1       2.875   2.337  19.146  0.00  0.00    +0.000 A 
ATOM      3  C   UNL     1       1.537   1.926  19.114  0.00  0.00    +0.000 A 
ATOM      4  C   UNL     1       0.538   2.766  19.585  0.00  0.00    +0.000 A 
ATOM      5  C   UNL     1       0.875   4.009  20.103  0.00  0.00    +0.000 A 
ATOM      6  C   UNL     1       2.213   4.450  20.130  0.00  0.00    +0.000 A 
ENDROOT
BRANCH   1   7
ATOM      7  O   UNL     1       4.521   4.064  19.635  0.00  0.00    +0.000 OA
BRANCH   7  13
ATOM      8  C   UNL     1       7.032   5.050  14.607  0.00  0.00    +0.000 C 
ATOM      9  N   UNL     1       6.114   5.205  15.837  0.00  0.00    +0.000 N 
ATOM     10  C   UNL     1       5.318   6.491  15.622  0.00  0.00    +0.000 C 
ATOM     11  C   UNL     1       5.181   3.996  15.890  0.00  0.00    +0.000 C 
ATOM     12  C   UNL     1       4.429   3.878  17.203  0.00  0.00    +0.000 C 
ATOM     13  C   UNL     1       5.325   3.902  18.441  0.00  0.00    +0.000 C 
ATOM     14  C   UNL     1       6.269   5.104  18.390  0.00  0.00    +0.000 C 
ATOM     15  C   UNL     1       7.011   5.278  17.072  0.00  0.00    +0.000 C 
ENDBRANCH   7  13
ENDBRANCH   1   7
BRANCH   6  16
ATOM     16  C   UNL     1       2.481   5.807  20.740  0.00  0.00    +0.000 C 
BRANCH  16  17
ATOM     17  C   UNL     1       2.308   6.995  19.816  0.00  0.00    +0.000 A 
ATOM     18  C   UNL     1       2.773   6.961  18.492  0.00  0.00    +0.000 A 
ATOM     19  C   UNL     1       2.451   7.990  17.599  0.00  0.00    +0.000 A 
ATOM     20  C   UNL     1       1.676   9.065  18.026  0.00  0.00    +0.000 A 
ATOM     21  C   UNL     1       1.263   9.141  19.354  0.00  0.00    +0.000 A 
ATOM     22  C   UNL     1       1.587   8.115  20.247  0.00  0.00    +0.000 A 
ENDBRANCH  16  17
ENDBRANCH   6  16
TORSDOF 4
ENDMDL
MODEL 2
REMARK VINA RESULT:      -7.6      2.329      6.104
REMARK  Name = 
REMARK  6 active torsions:
REMARK  status: ('A' for Active; 'I' for Inactive)
REMARK    1  A    between atoms: C_1  and  N_2
REMARK    2  A    between atoms: N_2  and  C_3
REMARK    3  A    between atoms: C_6  and  O_7
REMARK    4  A    between atoms: O_7  and  C_8
REMARK    5  A    between atoms: C_13  and  C_14
REMARK    6  A    between atoms: C_14  and  C_15
REMARK                            x       y       z     vdW  Elec       q    Type
REMARK                         _______ _______ _______ _____ _____    ______ ____
ROOT
ATOM      1  C   UNL     1       3.629   5.968  17.521  0.00  0.00    +0.000 A 
ATOM      2  C   UNL     1       4.761   6.766  17.314  0.00  0.00    +0.000 A 
ATOM      3  C   UNL     1       5.904   6.241  16.701  0.00  0.00    +0.000 A 
ATOM      4  C   UNL     1       5.944   4.906  16.326  0.00  0.00    +0.000 A 
ATOM      5  C   UNL     1       4.850   4.089  16.578  0.00  0.00    +0.000 A 
ATOM      6  C   UNL     1       3.682   4.600  17.178  0.00  0.00    +0.000 A 
ENDROOT
BRANCH   1   7
ATOM      7  O   UNL     1       2.475   6.450  18.095  0.00  0.00    +0.000 OA
BRANCH   7  13
ATOM      8  C   UNL     1       0.878  11.334  20.576  0.00  0.00    +0.000 C 
ATOM      9  N   UNL     1       0.814   9.983  19.834  0.00  0.00    +0.000 N 
ATOM     10  C   UNL     1      -0.664   9.710  19.562  0.00  0.00    +0.000 C 
ATOM     11  C   UNL     1       1.587  10.124  18.523  0.00  0.00    +0.000 C 
ATOM     12  C   UNL     1       1.848   8.795  17.837  0.00  0.00    +0.000 C 
ATOM     13  C   UNL     1       2.518   7.752  18.730  0.00  0.00    +0.000 C 
ATOM     14  C   UNL     1       1.756   7.613  20.049  0.00  0.00    +0.000 C 
ATOM     15  C   UNL     1       1.440   8.929  20.746  0.00  0.00    +0.000 C 
ENDBRANCH   7  13
ENDBRANCH   1   7
BRANCH   6  16
ATOM     16  C   UNL     1       2.555   3.625  17.437  0.00  0.00    +0.000 C 
BRANCH  16  17
ATOM     17  C   UNL     1       2.338   3.233  18.884  0.00  0.00    +0.000 A 
ATOM     18  C   UNL     1       3.376   2.686  19.654  0.00  0.00    +0.000 A 
ATOM     19  C   UNL     1       3.215   2.495  21.031  0.00  0.00    +0.000 A 
ATOM     20  C   UNL     1       2.012   2.834  21.644  0.00  0.00    +0.000 A 
ATOM     21  C   UNL     1       0.953   3.317  20.880  0.00  0.00    +0.000 A 
ATOM     22  C   UNL     1       1.112   3.505  19.503  0.00  0.00    +0.000 A 
ENDBRANCH  16  17
ENDBRANCH   6  16
TORSDOF 4
ENDMDL
MODEL 3
REMARK VINA RESULT:      -7.6      0.146      1.038
REMARK  Name = 
REMARK  6 active torsions:
REMARK  status: ('A' for Active; 'I' for Inactive)
REMARK    1  A    between atoms: C_1  and  N_2
REMARK    2  A    between atoms: N_2  and  C_3
REMARK    3  A    between atoms: C_6  and  O_7
REMARK    4  A    between atoms: O_7  and  C_8
REMARK    5  A    between atoms: C_13  and  C_14
REMARK    6  A    between atoms: C_14  and  C_15
REMARK                            x       y       z     vdW  Elec       q    Type
REMARK                         _______ _______ _______ _____ _____    ______ ____
ROOT
ATOM      1  C   UNL     1       3.263   3.607  19.630  0.00  0.00    +0.000 A 
ATOM      2  C   UNL     1       2.865   2.321  19.250  0.00  0.00    +0.000 A 
ATOM      3  C   UNL     1       1.514   1.958  19.256  0.00  0.00    +0.000 A 
ATOM      4  C   UNL     1       0.550   2.862  19.681  0.00  0.00    +0.000 A 
ATOM      5  C   UNL     1       0.937   4.122  20.115  0.00  0.00    +0.000 A 
ATOM      6  C   UNL     1       2.291   4.515  20.101  0.00  0.00    +0.000 A 
ENDROOT
BRANCH   1   7
ATOM      7  O   UNL     1       4.577   4.014  19.612  0.00  0.00    +0.000 OA
BRANCH   7  13
ATOM      8  C   UNL     1       6.960   5.013  14.524  0.00  0.00    +0.000 C 
ATOM      9  N   UNL     1       6.094   5.180  15.790  0.00  0.00    +0.000 N 
ATOM     10  C   UNL     1       5.358   6.509  15.636  0.00  0.00    +0.000 C 
ATOM     11  C   UNL     1       5.104   4.018  15.844  0.00  0.00    +0.000 C 
ATOM     12  C   UNL     1       4.392   3.900  17.180  0.00  0.00    +0.000 C 
ATOM     13  C   UNL     1       5.330   3.846  18.385  0.00  0.00    +0.000 C 
ATOM     14  C   UNL     1       6.332   5.000  18.332  0.00  0.00    +0.000 C 
ATOM     15  C   UNL     1       7.036   5.174  16.994  0.00  0.00    +0.000 C 
ENDBRANCH   7  13
ENDBRANCH   1   7
BRANCH   6  16
ATOM     16  C   UNL     1       2.614   5.898  20.620  0.00  0.00    +0.000 C 
BRANCH  16  17
ATOM     17  C   UNL     1       2.222   7.052  19.720  0.00  0.00    +0.000 A 
ATOM     18  C   UNL     1       1.446   8.118  20.200  0.00  0.00    +0.000 A 
ATOM     19  C   UNL     1       1.241   9.259  19.415  0.00  0.00    +0.000 A 
ATOM     20  C   UNL     1       1.797   9.334  18.140  0.00  0.00    +0.000 A 
ATOM     21  C   UNL     1       2.514   8.256  17.629  0.00  0.00    +0.000 A 
ATOM     22  C   UNL     1       2.717   7.115  18.412  0.00  0.00    +0.000 A 
ENDBRANCH  16  17
ENDBRANCH   6  16
TORSDOF 4
ENDMDL
MODEL 4
REMARK VINA RESULT:      -7.5      2.393      6.471
REMARK  Name = 
REMARK  6 active torsions:
REMARK  status: ('A' for Active; 'I' for Inactive)
REMARK    1  A    between atoms: C_1  and  N_2
REMARK    2  A    between atoms: N_2  and  C_3
REMARK    3  A    between atoms: C_6  and  O_7
REMARK    4  A    between atoms: O_7  and  C_8
REMARK    5  A    between atoms: C_13  and  C_14
REMARK    6  A    between atoms: C_14  and  C_15
REMARK                            x       y       z     vdW  Elec       q    Type
REMARK                         _______ _______ _______ _____ _____    ______ ____
ROOT
ATOM      1  C   UNL     1       6.746   5.141  18.220  0.00  0.00    +0.000 A 
ATOM      2  C   UNL     1       7.691   5.744  19.058  0.00  0.00    +0.000 A 
ATOM      3  C   UNL     1       8.181   7.025  18.780  0.00  0.00    +0.000 A 
ATOM      4  C   UNL     1       7.763   7.700  17.642  0.00  0.00    +0.000 A 
ATOM      5  C   UNL     1       6.869   7.090  16.772  0.00  0.00    +0.000 A 
ATOM      6  C   UNL     1       6.350   5.808  17.041  0.00  0.00    +0.000 A 
ENDROOT
BRANCH   1   7
ATOM      7  O   UNL     1       6.217   3.896  18.471  0.00  0.00    +0.000 OA
BRANCH   7  13
ATOM      8  C   UNL     1       0.798   3.846  20.257  0.00  0.00    +0.000 C 
ATOM      9  N   UNL     1       2.038   4.018  19.355  0.00  0.00    +0.000 N 
ATOM     10  C   UNL     1       1.519   4.475  17.993  0.00  0.00    +0.000 C 
ATOM     11  C   UNL     1       2.934   5.088  19.977  0.00  0.00    +0.000 C 
ATOM     12  C   UNL     1       4.316   5.148  19.352  0.00  0.00    +0.000 C 
ATOM     13  C   UNL     1       5.047   3.806  19.320  0.00  0.00    +0.000 C 
ATOM     14  C   UNL     1       4.151   2.728  18.708  0.00  0.00    +0.000 C 
ATOM     15  C   UNL     1       2.743   2.665  19.283  0.00  0.00    +0.000 C 
ENDBRANCH   7  13
ENDBRANCH   1   7
BRANCH   6  16
ATOM     16  C   UNL     1       5.405   5.217  16.019  0.00  0.00    +0.000 C 
BRANCH  16  17
ATOM     17  C   UNL     1       6.039   4.741  14.728  0.00  0.00    +0.000 A 
ATOM     18  C   UNL     1       5.363   3.864  13.865  0.00  0.00    +0.000 A 
ATOM     19  C   UNL     1       5.882   3.573  12.598  0.00  0.00    +0.000 A 
ATOM     20  C   UNL     1       7.084   4.145  12.191  0.00  0.00    +0.000 A 
ATOM     21  C   UNL     1       7.796   4.965  13.063  0.00  0.00    +0.000 A 
ATOM     22  C   UNL     1       7.280   5.253  14.330  0.00  0.00    +0.000 A 
ENDBRANCH  16  17
ENDBRANCH   6  16
TORSDOF 4
ENDMDL
MODEL 5
REMARK VINA RESULT:      -7.5      2.313      6.155
REMARK  Name = 
REMARK  6 active torsions:
REMARK  status: ('A' for Active; 'I' for Inactive)
REMARK    1  A    between atoms: C_1  and  N_2
REMARK    2  A    between atoms: N_2  and  C_3
REMARK    3  A    between atoms: C_6  and  O_7
REMARK    4  A    between atoms: O_7  and  C_8
REMARK    5  A    between atoms: C_13  and  C_14
REMARK    6  A    between atoms: C_14  and  C_15
REMARK                            x       y       z     vdW  Elec       q    Type
REMARK                         _______ _______ _______ _____ _____    ______ ____
ROOT
ATOM      1  C   UNL     1       3.725   6.020  17.439  0.00  0.00    +0.000 A 
ATOM      2  C   UNL     1       4.836   6.835  17.194  0.00  0.00    +0.000 A 
ATOM      3  C   UNL     1       6.003   6.305  16.633  0.00  0.00    +0.000 A 
ATOM      4  C   UNL     1       6.088   4.950  16.347  0.00  0.00    +0.000 A 
ATOM      5  C   UNL     1       5.013   4.120  16.639  0.00  0.00    +0.000 A 
ATOM      6  C   UNL     1       3.822   4.635  17.189  0.00  0.00    +0.000 A 
ENDROOT
BRANCH   1   7
ATOM      7  O   UNL     1       2.549   6.505  17.964  0.00  0.00    +0.000 OA
BRANCH   7  13
ATOM      8  C   UNL     1       0.889  11.307  20.561  0.00  0.00    +0.000 C 
ATOM      9  N   UNL     1       0.842   9.973  19.787  0.00  0.00    +0.000 N 
ATOM     10  C   UNL     1      -0.633   9.685  19.513  0.00  0.00    +0.000 C 
ATOM     11  C   UNL     1       1.609  10.155  18.478  0.00  0.00    +0.000 C 
ATOM     12  C   UNL     1       1.887   8.846  17.761  0.00  0.00    +0.000 C 
ATOM     13  C   UNL     1       2.575   7.792  18.628  0.00  0.00    +0.000 C 
ATOM     14  C   UNL     1       1.819   7.613  19.946  0.00  0.00    +0.000 C 
ATOM     15  C   UNL     1       1.486   8.907  20.674  0.00  0.00    +0.000 C 
ENDBRANCH   7  13
ENDBRANCH   1   7
BRANCH   6  16
ATOM     16  C   UNL     1       2.720   3.646  17.497  0.00  0.00    +0.000 C 
BRANCH  16  17
ATOM     17  C   UNL     1       2.429   3.414  18.965  0.00  0.00    +0.000 A 
ATOM     18  C   UNL     1       1.138   3.586  19.488  0.00  0.00    +0.000 A 
ATOM     19  C   UNL     1       0.845   3.199  20.801  0.00  0.00    +0.000 A 
ATOM     20  C   UNL     1       1.843   2.652  21.603  0.00  0.00    +0.000 A 
ATOM     21  C   UNL     1       3.143   2.537  21.117  0.00  0.00    +0.000 A 
ATOM     22  C   UNL     1       3.437   2.927  19.807  0.00  0.00    +0.000 A 
ENDBRANCH  16  17
ENDBRANCH   6  16
TORSDOF 4
ENDMDL
MODEL 6
REMARK VINA RESULT:      -7.5      2.580      5.900
REMARK  Name = 
REMARK  6 active torsions:
REMARK  status: ('A' for Active; 'I' for Inactive)
REMARK    1  A    between atoms: C_1  and  N_2
REMARK    2  A    between atoms: N_2  and  C_3
REMARK    3  A    between atoms: C_6  and  O_7
REMARK    4  A    between atoms: O_7  and  C_8
REMARK    5  A    between atoms: C_13  and  C_14
REMARK    6  A    between atoms: C_14  and  C_15
REMARK                            x       y       z     vdW  Elec       q    Type
REMARK                         _______ _______ _______ _____ _____    ______ ____
ROOT
ATOM      1  C   UNL     1       2.279   5.702  19.737  0.00  0.00    +0.000 A 
ATOM      2  C   UNL     1       1.489   4.908  20.577  0.00  0.00    +0.000 A 
ATOM      3  C   UNL     1       1.363   3.533  20.352  0.00  0.00    +0.000 A 
ATOM      4  C   UNL     1       1.992   2.942  19.266  0.00  0.00    +0.000 A 
ATOM      5  C   UNL     1       2.732   3.727  18.392  0.00  0.00    +0.000 A 
ATOM      6  C   UNL     1       2.886   5.112  18.608  0.00  0.00    +0.000 A 
ENDROOT
BRANCH   1   7
ATOM      7  O   UNL     1       2.452   7.052  19.937  0.00  0.00    +0.000 OA
BRANCH   7  13
ATOM      8  C   UNL     1      -0.796  11.724  19.508  0.00  0.00    +0.000 C 
ATOM      9  N   UNL     1       0.408  10.802  19.795  0.00  0.00    +0.000 N 
ATOM     10  C   UNL     1       1.530  11.705  20.304  0.00  0.00    +0.000 C 
ATOM     11  C   UNL     1      -0.007   9.799  20.870  0.00  0.00    +0.000 C 
ATOM     12  C   UNL     1       0.980   8.658  21.037  0.00  0.00    +0.000 C 
ATOM     13  C   UNL     1       1.313   7.925  19.738  0.00  0.00    +0.000 C 
ATOM     14  C   UNL     1       1.719   8.924  18.654  0.00  0.00    +0.000 C 
ATOM     15  C   UNL     1       0.773  10.104  18.485  0.00  0.00    +0.000 C 
ENDBRANCH   7  13
ENDBRANCH   1   7
BRANCH   6  16
ATOM     16  C   UNL     1       3.688   5.885  17.585  0.00  0.00    +0.000 C 
BRANCH  16  17
ATOM     17  C   UNL     1       5.173   6.002  17.858  0.00  0.00    +0.000 A 
ATOM     18  C   UNL     1       5.988   6.853  17.096  0.00  0.00    +0.000 A 
ATOM     19  C   UNL     1       7.317   7.088  17.470  0.00  0.00    +0.000 A 
ATOM     20  C   UNL     1       7.843   6.462  18.597  0.00  0.00    +0.000 A 
ATOM     21  C   UNL     1       7.063   5.565  19.323  0.00  0.00    +0.000 A 
ATOM     22  C   UNL     1       5.737   5.329  18.948  0.00  0.00    +0.000 A 
ENDBRANCH  16  17
ENDBRANCH   6  16
TORSDOF 4
ENDMDL
MODEL 7
REMARK VINA RESULT:      -7.4      2.474      5.747
REMARK  Name = 
REMARK  6 active torsions:
REMARK  status: ('A' for Active; 'I' for Inactive)
REMARK    1  A    between atoms: C_1  and  N_2
REMARK    2  A    between atoms: N_2  and  C_3
REMARK    3  A    between atoms: C_6  and  O_7
REMARK    4  A    between atoms: O_7  and  C_8
REMARK    5  A    between atoms: C_13  and  C_14
REMARK    6  A    between atoms: C_14  and  C_15
REMARK                            x       y       z     vdW  Elec       q    Type
REMARK                         _______ _______ _______ _____ _____    ______ ____
ROOT
ATOM      1  C   UNL     1       2.389   5.643  19.780  0.00  0.00    +0.000 A 
ATOM      2  C   UNL     1       1.578   5.048  20.753  0.00  0.00    +0.000 A 
ATOM      3  C   UNL     1       1.416   3.659  20.799  0.00  0.00    +0.000 A 
ATOM      4  C   UNL     1       2.029   2.853  19.850  0.00  0.00    +0.000 A 
ATOM      5  C   UNL     1       2.789   3.435  18.845  0.00  0.00    +0.000 A 
ATOM      6  C   UNL     1       2.980   4.830  18.789  0.00  0.00    +0.000 A 
ENDROOT
BRANCH   1   7
ATOM      7  O   UNL     1       2.598   7.001  19.715  0.00  0.00    +0.000 OA
BRANCH   7  13
ATOM      8  C   UNL     1      -0.634  11.623  18.847  0.00  0.00    +0.000 C 
ATOM      9  N   UNL     1       0.563  10.728  19.231  0.00  0.00    +0.000 N 
ATOM     10  C   UNL     1       1.676  11.669  19.687  0.00  0.00    +0.000 C 
ATOM     11  C   UNL     1       0.125   9.815  20.376  0.00  0.00    +0.000 C 
ATOM     12  C   UNL     1       1.108   8.691  20.654  0.00  0.00    +0.000 C 
ATOM     13  C   UNL     1       1.464   7.856  19.425  0.00  0.00    +0.000 C 
ATOM     14  C   UNL     1       1.893   8.764  18.271  0.00  0.00    +0.000 C 
ATOM     15  C   UNL     1       0.952   9.926  17.989  0.00  0.00    +0.000 C 
ENDBRANCH   7  13
ENDBRANCH   1   7
BRANCH   6  16
ATOM     16  C   UNL     1       3.801   5.369  17.639  0.00  0.00    +0.000 C 
BRANCH  16  17
ATOM     17  C   UNL     1       5.184   5.876  17.994  0.00  0.00    +0.000 A 
ATOM     18  C   UNL     1       5.930   5.293  19.030  0.00  0.00    +0.000 A 
ATOM     19  C   UNL     1       7.269   5.649  19.231  0.00  0.00    +0.000 A 
ATOM     20  C   UNL     1       7.866   6.600  18.407  0.00  0.00    +0.000 A 
ATOM     21  C   UNL     1       7.118   7.232  17.417  0.00  0.00    +0.000 A 
ATOM     22  C   UNL     1       5.779   6.879  17.219  0.00  0.00    +0.000 A 
ENDBRANCH  16  17
ENDBRANCH   6  16
TORSDOF 4
ENDMDL
MODEL 8
REMARK VINA RESULT:      -7.4      2.400      6.480
REMARK  Name = 
REMARK  6 active torsions:
REMARK  status: ('A' for Active; 'I' for Inactive)
REMARK    1  A    between atoms: C_1  and  N_2
REMARK    2  A    between atoms: N_2  and  C_3
REMARK    3  A    between atoms: C_6  and  O_7
REMARK    4  A    between atoms: O_7  and  C_8
REMARK    5  A    between atoms: C_13  and  C_14
REMARK    6  A    between atoms: C_14  and  C_15
REMARK                            x       y       z     vdW  Elec       q    Type
REMARK                         _______ _______ _______ _____ _____    ______ ____
ROOT
ATOM      1  C   UNL     1       6.717   5.161  18.156  0.00  0.00    +0.000 A 
ATOM      2  C   UNL     1       7.658   5.820  18.956  0.00  0.00    +0.000 A 
ATOM      3  C   UNL     1       8.107   7.103  18.624  0.00  0.00    +0.000 A 
ATOM      4  C   UNL     1       7.653   7.725  17.470  0.00  0.00    +0.000 A 
ATOM      5  C   UNL     1       6.763   7.059  16.637  0.00  0.00    +0.000 A 
ATOM      6  C   UNL     1       6.284   5.773  16.960  0.00  0.00    +0.000 A 
ENDROOT
BRANCH   1   7
ATOM      7  O   UNL     1       6.229   3.911  18.460  0.00  0.00    +0.000 OA
BRANCH   7  13
ATOM      8  C   UNL     1       0.817   3.815  20.266  0.00  0.00    +0.000 C 
ATOM      9  N   UNL     1       2.051   3.989  19.356  0.00  0.00    +0.000 N 
ATOM     10  C   UNL     1       1.521   4.411  17.987  0.00  0.00    +0.000 C 
ATOM     11  C   UNL     1       2.933   5.083  19.955  0.00  0.00    +0.000 C 
ATOM     12  C   UNL     1       4.312   5.152  19.323  0.00  0.00    +0.000 C 
ATOM     13  C   UNL     1       5.062   3.821  19.315  0.00  0.00    +0.000 C 
ATOM     14  C   UNL     1       4.181   2.718  18.727  0.00  0.00    +0.000 C 
ATOM     15  C   UNL     1       2.776   2.644  19.308  0.00  0.00    +0.000 C 
ENDBRANCH   7  13
ENDBRANCH   1   7
BRANCH   6  16
ATOM     16  C   UNL     1       5.341   5.120  15.976  0.00  0.00    +0.000 C 
BRANCH  16  17
ATOM     17  C   UNL     1       5.918   4.813  14.609  0.00  0.00    +0.000 A 
ATOM     18  C   UNL     1       7.158   5.334  14.209  0.00  0.00    +0.000 A 
ATOM     19  C   UNL     1       7.761   4.902  13.022  0.00  0.00    +0.000 A 
ATOM     20  C   UNL     1       7.123   3.959  12.221  0.00  0.00    +0.000 A 
ATOM     21  C   UNL     1       5.863   3.484  12.575  0.00  0.00    +0.000 A 
ATOM     22  C   UNL     1       5.259   3.917  13.759  0.00  0.00    +0.000 A 
ENDBRANCH  16  17
ENDBRANCH   6  16
TORSDOF 4
ENDMDL
MODEL 9
REMARK VINA RESULT:      -7.3      2.543      6.571
REMARK  Name = 
REMARK  6 active torsions:
REMARK  status: ('A' for Active; 'I' for Inactive)
REMARK    1  A    between atoms: C_1  and  N_2
REMARK    2  A    between atoms: N_2  and  C_3
REMARK    3  A    between atoms: C_6  and  O_7
REMARK    4  A    between atoms: O_7  and  C_8
REMARK    5  A    between atoms: C_13  and  C_14
REMARK    6  A    between atoms: C_14  and  C_15
REMARK                            x       y       z     vdW  Elec       q    Type
REMARK                         _______ _______ _______ _____ _____    ______ ____
ROOT
ATOM      1  C   UNL     1       6.430   5.002  17.806  0.00  0.00    +0.000 A 
ATOM      2  C   UNL     1       7.326   5.198  18.864  0.00  0.00    +0.000 A 
ATOM      3  C   UNL     1       8.040   6.395  18.984  0.00  0.00    +0.000 A 
ATOM      4  C   UNL     1       7.898   7.392  18.030  0.00  0.00    +0.000 A 
ATOM      5  C   UNL     1       7.056   7.188  16.945  0.00  0.00    +0.000 A 
ATOM      6  C   UNL     1       6.314   5.997  16.812  0.00  0.00    +0.000 A 
ENDROOT
BRANCH   1   7
ATOM      7  O   UNL     1       5.687   3.853  17.665  0.00  0.00    +0.000 OA
BRANCH   7  13
ATOM      8  C   UNL     1       0.689   3.484  20.392  0.00  0.00    +0.000 C 
ATOM      9  N   UNL     1       2.191   3.344  20.070  0.00  0.00    +0.000 N 
ATOM     10  C   UNL     1       2.828   2.652  21.273  0.00  0.00    +0.000 C 
ATOM     11  C   UNL     1       2.330   2.483  18.816  0.00  0.00    +0.000 C 
ATOM     12  C   UNL     1       3.729   2.508  18.225  0.00  0.00    +0.000 C 
ATOM     13  C   UNL     1       4.270   3.912  17.959  0.00  0.00    +0.000 C 
ATOM     14  C   UNL     1       4.123   4.783  19.207  0.00  0.00    +0.000 C 
ATOM     15  C   UNL     1       2.745   4.752  19.850  0.00  0.00    +0.000 C 
ENDBRANCH   7  13
ENDBRANCH   1   7
BRANCH   6  16
ATOM     16  C   UNL     1       5.447   5.857  15.581  0.00  0.00    +0.000 C 
BRANCH  16  17
ATOM     17  C   UNL     1       6.043   5.062  14.438  0.00  0.00    +0.000 A 
ATOM     18  C   UNL     1       5.319   4.036  13.810  0.00  0.00    +0.000 A 
ATOM     19  C   UNL     1       5.807   3.431  12.646  0.00  0.00    +0.000 A 
ATOM     20  C   UNL     1       7.027   3.837  12.111  0.00  0.00    +0.000 A 
ATOM     21  C   UNL     1       7.784   4.809  12.761  0.00  0.00    +0.000 A 
ATOM     22  C   UNL     1       7.298   5.411  13.926  0.00  0.00    +0.000 A 
ENDBRANCH  16  17
ENDBRANCH   6  16
TORSDOF 4
ENDMDL
