MODEL 1
REMARK VINA RESULT:      -8.6      0.000      0.000
REMARK  Name = 
REMARK  9 active torsions:
REMARK  status: ('A' for Active; 'I' for Inactive)
REMARK    1  A    between atoms: C_1  and  C_2
REMARK    2  A    between atoms: C_2  and  C_3
REMARK    3  A    between atoms: C_6  and  O_7
REMARK    4  A    between atoms: O_7  and  C_8
REMARK    5  A    between atoms: C_8  and  C_9
REMARK    6  A    between atoms: N_11  and  C_12
REMARK    7  A    between atoms: C_12  and  C_13
REMARK    8  A    between atoms: C_13  and  C_14
REMARK    9  A    between atoms: C_13  and  N_21
REMARK                            x       y       z     vdW  Elec       q    Type
REMARK                         _______ _______ _______ _____ _____    ______ ____
ROOT
ATOM      1  C   UNL     1       4.867   5.201  19.567  0.00  0.00    +0.000 C 
ENDROOT
BRANCH   1   4
ATOM      2  C   UNL     1       6.470   5.547  17.693  0.00  0.00    +0.000 C 
ATOM      3  O   UNL     1       7.245   4.702  18.135  0.00  0.00    +0.000 OA
ATOM      4  N   UNL     1       5.277   5.849  18.315  0.00  0.00    +0.000 N 
ATOM      5  H   UNL     1       4.777   6.676  18.010  0.00  0.00    +0.000 HD
BRANCH   2   6
ATOM      6  C   UNL     1       6.743   6.292  16.378  0.00  0.00    +0.000 C 
BRANCH   6   7
ATOM      7  O   UNL     1       7.655   5.586  15.547  0.00  0.00    +0.000 OA
BRANCH   7  11
ATOM      8  C   UNL     1       5.810   3.518  12.402  0.00  0.00    +0.000 A 
ATOM      9  C   UNL     1       5.227   3.632  13.665  0.00  0.00    +0.000 A 
ATOM     10  C   UNL     1       5.874   4.343  14.683  0.00  0.00    +0.000 A 
ATOM     11  C   UNL     1       7.116   4.941  14.462  0.00  0.00    +0.000 A 
ATOM     12  C   UNL     1       7.681   4.864  13.186  0.00  0.00    +0.000 A 
ATOM     13  C   UNL     1       7.030   4.159  12.162  0.00  0.00    +0.000 A 
BRANCH   8  15
ATOM     14  C   UNL     1       3.703   3.170  11.048  0.00  0.00    +0.000 C 
ATOM     15  C   UNL     1       5.132   2.721  11.316  0.00  0.00    +0.000 C 
ENDBRANCH   8  15
ENDBRANCH   7  11
ENDBRANCH   6   7
ENDBRANCH   2   6
ENDBRANCH   1   4
BRANCH   1  16
ATOM     16  C   UNL     1       3.342   5.292  19.880  0.00  0.00    +0.000 C 
BRANCH  16  17
ATOM     17  C   UNL     1       2.692   6.620  19.469  0.00  0.00    +0.000 A 
ATOM     18  C   UNL     1       2.689   7.090  18.147  0.00  0.00    +0.000 A 
ATOM     19  C   UNL     1       2.085   8.308  17.828  0.00  0.00    +0.000 A 
ATOM     20  C   UNL     1       1.457   9.055  18.822  0.00  0.00    +0.000 A 
ATOM     21 CL   UNL     1       0.751  10.573  18.429  0.00  0.00    +0.000 Cl
ATOM     22  C   UNL     1       1.398   8.579  20.128  0.00  0.00    +0.000 A 
ATOM     23  C   UNL     1       2.007   7.365  20.447  0.00  0.00    +0.000 A 
ENDBRANCH  16  17
BRANCH  16  24
ATOM     24  N   UNL     1       2.493   4.222  19.363  0.00  0.00    +0.000 NA
ATOM     25  C   UNL     1       1.114   4.090  19.820  0.00  0.00    +0.000 C 
ATOM     26  C   UNL     1       0.708   2.614  19.649  0.00  0.00    +0.000 C 
ATOM     27  O   UNL     1       0.831   2.194  18.278  0.00  0.00    +0.000 OA
ATOM     28  C   UNL     1       2.175   2.399  17.804  0.00  0.00    +0.000 C 
ATOM     29  C   UNL     1       2.606   3.871  17.949  0.00  0.00    +0.000 C 
ENDBRANCH  16  24
ENDBRANCH   1  16
TORSDOF 8
ENDMDL
MODEL 2
REMARK VINA RESULT:      -8.5      0.510      1.644
REMARK  Name = 
REMARK  9 active torsions:
REMARK  status: ('A' for Active; 'I' for Inactive)
REMARK    1  A    between atoms: C_1  and  C_2
REMARK    2  A    between atoms: C_2  and  C_3
REMARK    3  A    between atoms: C_6  and  O_7
REMARK    4  A    between atoms: O_7  and  C_8
REMARK    5  A    between atoms: C_8  and  C_9
REMARK    6  A    between atoms: N_11  and  C_12
REMARK    7  A    between atoms: C_12  and  C_13
REMARK    8  A    between atoms: C_13  and  C_14
REMARK    9  A    between atoms: C_13  and  N_21
REMARK                            x       y       z     vdW  Elec       q    Type
REMARK                         _______ _______ _______ _____ _____    ______ ____
ROOT
ATOM      1  C   UNL     1       5.086   5.161  19.471  0.00  0.00    +0.000 C 
ENDROOT
BRANCH   1   4
ATOM      2  C   UNL     1       6.630   6.155  17.788  0.00  0.00    +0.000 C 
ATOM      3  O   UNL     1       7.579   6.123  18.568  0.00  0.00    +0.000 OA
ATOM      4  N   UNL     1       5.377   5.694  18.134  0.00  0.00    +0.000 N 
ATOM      5  H   UNL     1       4.601   5.917  17.521  0.00  0.00    +0.000 HD
BRANCH   2   6
ATOM      6  C   UNL     1       6.779   6.658  16.345  0.00  0.00    +0.000 C 
BRANCH   6   7
ATOM      7  O   UNL     1       7.614   5.807  15.570  0.00  0.00    +0.000 OA
BRANCH   7  11
ATOM      8  C   UNL     1       5.872   3.492  12.540  0.00  0.00    +0.000 A 
ATOM      9  C   UNL     1       7.081   4.168  12.362  0.00  0.00    +0.000 A 
ATOM     10  C   UNL     1       7.633   4.920  13.407  0.00  0.00    +0.000 A 
ATOM     11  C   UNL     1       6.984   5.020  14.639  0.00  0.00    +0.000 A 
ATOM     12  C   UNL     1       5.796   4.310  14.832  0.00  0.00    +0.000 A 
ATOM     13  C   UNL     1       5.245   3.549  13.789  0.00  0.00    +0.000 A 
BRANCH   8  15
ATOM     14  C   UNL     1       3.851   3.176  11.054  0.00  0.00    +0.000 C 
ATOM     15  C   UNL     1       5.258   2.713  11.405  0.00  0.00    +0.000 C 
ENDBRANCH   8  15
ENDBRANCH   7  11
ENDBRANCH   6   7
ENDBRANCH   2   6
ENDBRANCH   1   4
BRANCH   1  16
ATOM     16  C   UNL     1       3.576   5.159  19.859  0.00  0.00    +0.000 C 
BRANCH  16  17
ATOM     17  C   UNL     1       2.832   6.454  19.506  0.00  0.00    +0.000 A 
ATOM     18  C   UNL     1       2.124   7.210  20.454  0.00  0.00    +0.000 A 
ATOM     19  C   UNL     1       1.462   8.380  20.077  0.00  0.00    +0.000 A 
ATOM     20  C   UNL     1       1.522   8.819  18.757  0.00  0.00    +0.000 A 
ATOM     21 CL   UNL     1       0.671  10.240  18.293  0.00  0.00    +0.000 Cl
ATOM     22  C   UNL     1       2.266   8.117  17.814  0.00  0.00    +0.000 A 
ATOM     23  C   UNL     1       2.922   6.944  18.189  0.00  0.00    +0.000 A 
ENDBRANCH  16  17
BRANCH  16  24
ATOM     24  N   UNL     1       2.764   4.051  19.361  0.00  0.00    +0.000 NA
ATOM     25  C   UNL     1       3.394   2.928  18.675  0.00  0.00    +0.000 C 
ATOM     26  C   UNL     1       2.337   2.302  17.744  0.00  0.00    +0.000 C 
ATOM     27  O   UNL     1       1.183   1.865  18.484  0.00  0.00    +0.000 OA
ATOM     28  C   UNL     1       0.610   2.958  19.223  0.00  0.00    +0.000 C 
ATOM     29  C   UNL     1       1.640   3.596  20.176  0.00  0.00    +0.000 C 
ENDBRANCH  16  24
ENDBRANCH   1  16
TORSDOF 8
ENDMDL
MODEL 3
REMARK VINA RESULT:      -8.5      4.483      8.306
REMARK  Name = 
REMARK  9 active torsions:
REMARK  status: ('A' for Active; 'I' for Inactive)
REMARK    1  A    between atoms: C_1  and  C_2
REMARK    2  A    between atoms: C_2  and  C_3
REMARK    3  A    between atoms: C_6  and  O_7
REMARK    4  A    between atoms: O_7  and  C_8
REMARK    5  A    between atoms: C_8  and  C_9
REMARK    6  A    between atoms: N_11  and  C_12
REMARK    7  A    between atoms: C_12  and  C_13
REMARK    8  A    between atoms: C_13  and  C_14
REMARK    9  A    between atoms: C_13  and  N_21
REMARK                            x       y       z     vdW  Elec       q    Type
REMARK                         _______ _______ _______ _____ _____    ______ ____
ROOT
ATOM      1  C   UNL     1       2.511   7.189  19.215  0.00  0.00    +0.000 C 
ENDROOT
BRANCH   1   4
ATOM      2  C   UNL     1       1.065   9.211  19.382  0.00  0.00    +0.000 C 
ATOM      3  O   UNL     1       1.166   9.242  20.606  0.00  0.00    +0.000 OA
ATOM      4  N   UNL     1       1.698   8.255  18.615  0.00  0.00    +0.000 N 
ATOM      5  H   UNL     1       1.428   8.170  17.641  0.00  0.00    +0.000 HD
BRANCH   2   6
ATOM      6  C   UNL     1       0.274  10.272  18.604  0.00  0.00    +0.000 C 
BRANCH   6   7
ATOM      7  O   UNL     1      -0.555   9.691  17.605  0.00  0.00    +0.000 OA
BRANCH   7  11
ATOM      8  C   UNL     1      -4.291  11.563  17.276  0.00  0.00    +0.000 A 
ATOM      9  C   UNL     1      -3.521  11.630  18.438  0.00  0.00    +0.000 A 
ATOM     10  C   UNL     1      -2.273  11.000  18.499  0.00  0.00    +0.000 A 
ATOM     11  C   UNL     1      -1.777  10.283  17.409  0.00  0.00    +0.000 A 
ATOM     12  C   UNL     1      -2.528  10.249  16.231  0.00  0.00    +0.000 A 
ATOM     13  C   UNL     1      -3.775  10.887  16.164  0.00  0.00    +0.000 A 
BRANCH   8  15
ATOM     14  C   UNL     1      -6.699  11.470  18.043  0.00  0.00    +0.000 C 
ATOM     15  C   UNL     1      -5.652  12.209  17.221  0.00  0.00    +0.000 C 
ENDBRANCH   8  15
ENDBRANCH   7  11
ENDBRANCH   6   7
ENDBRANCH   2   6
ENDBRANCH   1   4
BRANCH   1  16
ATOM     16  C   UNL     1       2.418   5.812  18.490  0.00  0.00    +0.000 C 
BRANCH  16  17
ATOM     17  C   UNL     1       3.622   5.487  17.596  0.00  0.00    +0.000 A 
ATOM     18  C   UNL     1       3.942   4.182  17.190  0.00  0.00    +0.000 A 
ATOM     19  C   UNL     1       5.053   3.943  16.378  0.00  0.00    +0.000 A 
ATOM     20  C   UNL     1       5.838   5.006  15.943  0.00  0.00    +0.000 A 
ATOM     21 CL   UNL     1       7.228   4.700  14.976  0.00  0.00    +0.000 Cl
ATOM     22  C   UNL     1       5.506   6.314  16.285  0.00  0.00    +0.000 A 
ATOM     23  C   UNL     1       4.401   6.552  17.102  0.00  0.00    +0.000 A 
ENDBRANCH  16  17
BRANCH  16  24
ATOM     24  N   UNL     1       2.177   4.637  19.324  0.00  0.00    +0.000 NA
ATOM     25  C   UNL     1       2.251   4.739  20.778  0.00  0.00    +0.000 C 
ATOM     26  C   UNL     1       2.599   3.340  21.323  0.00  0.00    +0.000 C 
ATOM     27  O   UNL     1       1.614   2.368  20.931  0.00  0.00    +0.000 OA
ATOM     28  C   UNL     1       1.485   2.325  19.498  0.00  0.00    +0.000 C 
ATOM     29  C   UNL     1       1.123   3.708  18.923  0.00  0.00    +0.000 C 
ENDBRANCH  16  24
ENDBRANCH   1  16
TORSDOF 8
ENDMDL
MODEL 4
REMARK VINA RESULT:      -8.4      0.993      1.230
REMARK  Name = 
REMARK  9 active torsions:
REMARK  status: ('A' for Active; 'I' for Inactive)
REMARK    1  A    between atoms: C_1  and  C_2
REMARK    2  A    between atoms: C_2  and  C_3
REMARK    3  A    between atoms: C_6  and  O_7
REMARK    4  A    between atoms: O_7  and  C_8
REMARK    5  A    between atoms: C_8  and  C_9
REMARK    6  A    between atoms: N_11  and  C_12
REMARK    7  A    between atoms: C_12  and  C_13
REMARK    8  A    between atoms: C_13  and  C_14
REMARK    9  A    between atoms: C_13  and  N_21
REMARK                            x       y       z     vdW  Elec       q    Type
REMARK                         _______ _______ _______ _____ _____    ______ ____
ROOT
ATOM      1  C   UNL     1       5.585   5.320  19.706  0.00  0.00    +0.000 C 
ENDROOT
BRANCH   1   4
ATOM      2  C   UNL     1       6.992   5.445  17.654  0.00  0.00    +0.000 C 
ATOM      3  O   UNL     1       7.217   6.641  17.822  0.00  0.00    +0.000 OA
ATOM      4  N   UNL     1       6.220   4.711  18.530  0.00  0.00    +0.000 N 
ATOM      5  H   UNL     1       5.920   3.787  18.241  0.00  0.00    +0.000 HD
BRANCH   2   6
ATOM      6  C   UNL     1       7.606   4.658  16.487  0.00  0.00    +0.000 C 
BRANCH   6   7
ATOM      7  O   UNL     1       7.576   5.398  15.273  0.00  0.00    +0.000 OA
BRANCH   7  11
ATOM      8  C   UNL     1       5.569   3.425  12.167  0.00  0.00    +0.000 A 
ATOM      9  C   UNL     1       5.024   3.553  13.446  0.00  0.00    +0.000 A 
ATOM     10  C   UNL     1       5.725   4.232  14.450  0.00  0.00    +0.000 A 
ATOM     11  C   UNL     1       6.983   4.782  14.200  0.00  0.00    +0.000 A 
ATOM     12  C   UNL     1       7.511   4.692  12.909  0.00  0.00    +0.000 A 
ATOM     13  C   UNL     1       6.807   4.020  11.899  0.00  0.00    +0.000 A 
BRANCH   8  15
ATOM     14  C   UNL     1       3.534   3.335  10.668  0.00  0.00    +0.000 C 
ATOM     15  C   UNL     1       4.832   2.663  11.095  0.00  0.00    +0.000 C 
ENDBRANCH   8  15
ENDBRANCH   7  11
ENDBRANCH   6   7
ENDBRANCH   2   6
ENDBRANCH   1   4
BRANCH   1  16
ATOM     16  C   UNL     1       4.035   5.165  19.766  0.00  0.00    +0.000 C 
BRANCH  16  17
ATOM     17  C   UNL     1       3.259   6.413  19.323  0.00  0.00    +0.000 A 
ATOM     18  C   UNL     1       3.382   6.974  18.042  0.00  0.00    +0.000 A 
ATOM     19  C   UNL     1       2.654   8.113  17.693  0.00  0.00    +0.000 A 
ATOM     20  C   UNL     1       1.779   8.688  18.610  0.00  0.00    +0.000 A 
ATOM     21 CL   UNL     1       0.917  10.115  18.187  0.00  0.00    +0.000 Cl
ATOM     22  C   UNL     1       1.598   8.115  19.866  0.00  0.00    +0.000 A 
ATOM     23  C   UNL     1       2.331   6.980  20.217  0.00  0.00    +0.000 A 
ENDBRANCH  16  17
BRANCH  16  24
ATOM     24  N   UNL     1       3.454   4.027  19.058  0.00  0.00    +0.000 NA
ATOM     25  C   UNL     1       3.965   2.680  19.286  0.00  0.00    +0.000 C 
ATOM     26  C   UNL     1       3.662   1.850  18.023  0.00  0.00    +0.000 C 
ATOM     27  O   UNL     1       2.251   1.818  17.745  0.00  0.00    +0.000 OA
ATOM     28  C   UNL     1       1.733   3.153  17.599  0.00  0.00    +0.000 C 
ATOM     29  C   UNL     1       2.007   4.005  18.854  0.00  0.00    +0.000 C 
ENDBRANCH  16  24
ENDBRANCH   1  16
TORSDOF 8
ENDMDL
MODEL 5
REMARK VINA RESULT:      -8.3      4.400      8.388
REMARK  Name = 
REMARK  9 active torsions:
REMARK  status: ('A' for Active; 'I' for Inactive)
REMARK    1  A    between atoms: C_1  and  C_2
REMARK    2  A    between atoms: C_2  and  C_3
REMARK    3  A    between atoms: C_6  and  O_7
REMARK    4  A    between atoms: O_7  and  C_8
REMARK    5  A    between atoms: C_8  and  C_9
REMARK    6  A    between atoms: N_11  and  C_12
REMARK    7  A    between atoms: C_12  and  C_13
REMARK    8  A    between atoms: C_13  and  C_14
REMARK    9  A    between atoms: C_13  and  N_21
REMARK                            x       y       z     vdW  Elec       q    Type
REMARK                         _______ _______ _______ _____ _____    ______ ____
ROOT
ATOM      1  C   UNL     1       2.574   7.153  19.454  0.00  0.00    +0.000 C 
ENDROOT
BRANCH   1   4
ATOM      2  C   UNL     1       1.155   9.200  19.496  0.00  0.00    +0.000 C 
ATOM      3  O   UNL     1       0.843   9.019  20.670  0.00  0.00    +0.000 OA
ATOM      4  N   UNL     1       2.007   8.351  18.821  0.00  0.00    +0.000 N 
ATOM      5  H   UNL     1       2.076   8.446  17.814  0.00  0.00    +0.000 HD
BRANCH   2   6
ATOM      6  C   UNL     1       0.667  10.421  18.703  0.00  0.00    +0.000 C 
BRANCH   6   7
ATOM      7  O   UNL     1      -0.330  10.073  17.750  0.00  0.00    +0.000 OA
BRANCH   7  11
ATOM      8  C   UNL     1      -4.248  11.496  18.191  0.00  0.00    +0.000 A 
ATOM      9  C   UNL     1      -3.901  10.550  17.224  0.00  0.00    +0.000 A 
ATOM     10  C   UNL     1      -2.581  10.094  17.121  0.00  0.00    +0.000 A 
ATOM     11  C   UNL     1      -1.586  10.581  17.970  0.00  0.00    +0.000 A 
ATOM     12  C   UNL     1      -1.940  11.495  18.965  0.00  0.00    +0.000 A 
ATOM     13  C   UNL     1      -3.263  11.948  19.076  0.00  0.00    +0.000 A 
BRANCH   8  15
ATOM     14  C   UNL     1      -6.697  10.911  18.418  0.00  0.00    +0.000 C 
ATOM     15  C   UNL     1      -5.660  12.017  18.279  0.00  0.00    +0.000 C 
ENDBRANCH   8  15
ENDBRANCH   7  11
ENDBRANCH   6   7
ENDBRANCH   2   6
ENDBRANCH   1   4
BRANCH   1  16
ATOM     16  C   UNL     1       2.438   5.845  18.617  0.00  0.00    +0.000 C 
BRANCH  16  17
ATOM     17  C   UNL     1       3.606   5.586  17.657  0.00  0.00    +0.000 A 
ATOM     18  C   UNL     1       4.469   6.601  17.214  0.00  0.00    +0.000 A 
ATOM     19  C   UNL     1       5.515   6.309  16.336  0.00  0.00    +0.000 A 
ATOM     20  C   UNL     1       5.725   5.000  15.913  0.00  0.00    +0.000 A 
ATOM     21 CL   UNL     1       6.991   4.655  14.801  0.00  0.00    +0.000 Cl
ATOM     22  C   UNL     1       4.917   3.969  16.385  0.00  0.00    +0.000 A 
ATOM     23  C   UNL     1       3.868   4.262  17.257  0.00  0.00    +0.000 A 
ENDBRANCH  16  17
BRANCH  16  24
ATOM     24  N   UNL     1       2.207   4.606  19.355  0.00  0.00    +0.000 NA
ATOM     25  C   UNL     1       2.346   4.577  20.807  0.00  0.00    +0.000 C 
ATOM     26  C   UNL     1       2.687   3.129  21.211  0.00  0.00    +0.000 C 
ATOM     27  O   UNL     1       1.666   2.213  20.779  0.00  0.00    +0.000 OA
ATOM     28  C   UNL     1       1.476   2.299  19.356  0.00  0.00    +0.000 C 
ATOM     29  C   UNL     1       1.118   3.734  18.921  0.00  0.00    +0.000 C 
ENDBRANCH  16  24
ENDBRANCH   1  16
TORSDOF 8
ENDMDL
MODEL 6
REMARK VINA RESULT:      -8.2      4.451      8.363
REMARK  Name = 
REMARK  9 active torsions:
REMARK  status: ('A' for Active; 'I' for Inactive)
REMARK    1  A    between atoms: C_1  and  C_2
REMARK    2  A    between atoms: C_2  and  C_3
REMARK    3  A    between atoms: C_6  and  O_7
REMARK    4  A    between atoms: O_7  and  C_8
REMARK    5  A    between atoms: C_8  and  C_9
REMARK    6  A    between atoms: N_11  and  C_12
REMARK    7  A    between atoms: C_12  and  C_13
REMARK    8  A    between atoms: C_13  and  C_14
REMARK    9  A    between atoms: C_13  and  N_21
REMARK                            x       y       z     vdW  Elec       q    Type
REMARK                         _______ _______ _______ _____ _____    ______ ____
ROOT
ATOM      1  C   UNL     1       2.779   7.144  19.474  0.00  0.00    +0.000 C 
ENDROOT
BRANCH   1   4
ATOM      2  C   UNL     1       1.531   9.092  18.549  0.00  0.00    +0.000 C 
ATOM      3  O   UNL     1       2.355   9.256  17.652  0.00  0.00    +0.000 OA
ATOM      4  N   UNL     1       1.645   8.078  19.477  0.00  0.00    +0.000 N 
ATOM      5  H   UNL     1       1.044   8.110  20.293  0.00  0.00    +0.000 HD
BRANCH   2   6
ATOM      6  C   UNL     1       0.276   9.968  18.670  0.00  0.00    +0.000 C 
BRANCH   6   7
ATOM      7  O   UNL     1      -0.501   9.950  17.479  0.00  0.00    +0.000 OA
BRANCH   7  11
ATOM      8  C   UNL     1      -4.387  11.522  17.485  0.00  0.00    +0.000 A 
ATOM      9  C   UNL     1      -3.923  10.681  16.472  0.00  0.00    +0.000 A 
ATOM     10  C   UNL     1      -2.621  10.169  16.517  0.00  0.00    +0.000 A 
ATOM     11  C   UNL     1      -1.757  10.496  17.564  0.00  0.00    +0.000 A 
ATOM     12  C   UNL     1      -2.234  11.303  18.601  0.00  0.00    +0.000 A 
ATOM     13  C   UNL     1      -3.542  11.810  18.562  0.00  0.00    +0.000 A 
BRANCH   8  15
ATOM     14  C   UNL     1      -6.184  12.824  18.697  0.00  0.00    +0.000 C 
ATOM     15  C   UNL     1      -5.776  12.104  17.419  0.00  0.00    +0.000 C 
ENDBRANCH   8  15
ENDBRANCH   7  11
ENDBRANCH   6   7
ENDBRANCH   2   6
ENDBRANCH   1   4
BRANCH   1  16
ATOM     16  C   UNL     1       2.542   5.832  18.666  0.00  0.00    +0.000 C 
BRANCH  16  17
ATOM     17  C   UNL     1       3.680   5.471  17.703  0.00  0.00    +0.000 A 
ATOM     18  C   UNL     1       3.966   4.150  17.321  0.00  0.00    +0.000 A 
ATOM     19  C   UNL     1       5.017   3.878  16.443  0.00  0.00    +0.000 A 
ATOM     20  C   UNL     1       5.775   4.921  15.919  0.00  0.00    +0.000 A 
ATOM     21 CL   UNL     1       7.093   4.574  14.870  0.00  0.00    +0.000 Cl
ATOM     22  C   UNL     1       5.473   6.241  16.239  0.00  0.00    +0.000 A 
ATOM     23  C   UNL     1       4.427   6.513  17.121  0.00  0.00    +0.000 A 
ENDBRANCH  16  17
BRANCH  16  24
ATOM     24  N   UNL     1       2.231   4.628  19.432  0.00  0.00    +0.000 NA
ATOM     25  C   UNL     1       2.248   4.658  20.890  0.00  0.00    +0.000 C 
ATOM     26  C   UNL     1       2.530   3.224  21.380  0.00  0.00    +0.000 C 
ATOM     27  O   UNL     1       1.533   2.304  20.902  0.00  0.00    +0.000 OA
ATOM     28  C   UNL     1       1.463   2.333  19.465  0.00  0.00    +0.000 C 
ATOM     29  C   UNL     1       1.166   3.754  18.944  0.00  0.00    +0.000 C 
ENDBRANCH  16  24
ENDBRANCH   1  16
TORSDOF 8
ENDMDL
MODEL 7
REMARK VINA RESULT:      -8.2      4.135      7.684
REMARK  Name = 
REMARK  9 active torsions:
REMARK  status: ('A' for Active; 'I' for Inactive)
REMARK    1  A    between atoms: C_1  and  C_2
REMARK    2  A    between atoms: C_2  and  C_3
REMARK    3  A    between atoms: C_6  and  O_7
REMARK    4  A    between atoms: O_7  and  C_8
REMARK    5  A    between atoms: C_8  and  C_9
REMARK    6  A    between atoms: N_11  and  C_12
REMARK    7  A    between atoms: C_12  and  C_13
REMARK    8  A    between atoms: C_13  and  C_14
REMARK    9  A    between atoms: C_13  and  N_21
REMARK                            x       y       z     vdW  Elec       q    Type
REMARK                         _______ _______ _______ _____ _____    ______ ____
ROOT
ATOM      1  C   UNL     1       1.828   6.949  20.437  0.00  0.00    +0.000 C 
ENDROOT
BRANCH   1   4
ATOM      2  C   UNL     1       1.186   9.304  20.936  0.00  0.00    +0.000 C 
ATOM      3  O   UNL     1       1.271   9.122  22.148  0.00  0.00    +0.000 OA
ATOM      4  N   UNL     1       1.453   8.307  20.021  0.00  0.00    +0.000 N 
ATOM      5  H   UNL     1       1.187   8.462  19.056  0.00  0.00    +0.000 HD
BRANCH   2   6
ATOM      6  C   UNL     1       0.832  10.675  20.342  0.00  0.00    +0.000 C 
BRANCH   6   7
ATOM      7  O   UNL     1      -0.557  10.957  20.447  0.00  0.00    +0.000 OA
BRANCH   7  11
ATOM      8  C   UNL     1      -2.965  10.832  17.017  0.00  0.00    +0.000 A 
ATOM      9  C   UNL     1      -3.176  11.752  18.046  0.00  0.00    +0.000 A 
ATOM     10  C   UNL     1      -2.339  11.766  19.168  0.00  0.00    +0.000 A 
ATOM     11  C   UNL     1      -1.287  10.857  19.289  0.00  0.00    +0.000 A 
ATOM     12  C   UNL     1      -1.048   9.963  18.242  0.00  0.00    +0.000 A 
ATOM     13  C   UNL     1      -1.880   9.953  17.112  0.00  0.00    +0.000 A 
BRANCH   8  15
ATOM     14  C   UNL     1      -3.251  10.154  14.598  0.00  0.00    +0.000 C 
ATOM     15  C   UNL     1      -3.887  10.791  15.826  0.00  0.00    +0.000 C 
ENDBRANCH   8  15
ENDBRANCH   7  11
ENDBRANCH   6   7
ENDBRANCH   2   6
ENDBRANCH   1   4
BRANCH   1  16
ATOM     16  C   UNL     1       2.160   5.976  19.266  0.00  0.00    +0.000 C 
BRANCH  16  17
ATOM     17  C   UNL     1       3.604   6.075  18.754  0.00  0.00    +0.000 A 
ATOM     18  C   UNL     1       4.673   5.385  19.348  0.00  0.00    +0.000 A 
ATOM     19  C   UNL     1       5.968   5.514  18.843  0.00  0.00    +0.000 A 
ATOM     20  C   UNL     1       6.204   6.311  17.727  0.00  0.00    +0.000 A 
ATOM     21 CL   UNL     1       7.809   6.496  17.135  0.00  0.00    +0.000 Cl
ATOM     22  C   UNL     1       5.151   6.957  17.087  0.00  0.00    +0.000 A 
ATOM     23  C   UNL     1       3.857   6.833  17.595  0.00  0.00    +0.000 A 
ENDBRANCH  16  17
BRANCH  16  24
ATOM     24  N   UNL     1       1.878   4.559  19.479  0.00  0.00    +0.000 NA
ATOM     25  C   UNL     1       1.162   4.123  20.673  0.00  0.00    +0.000 C 
ATOM     26  C   UNL     1       1.569   2.662  20.950  0.00  0.00    +0.000 C 
ATOM     27  O   UNL     1       1.258   1.813  19.831  0.00  0.00    +0.000 OA
ATOM     28  C   UNL     1       1.903   2.291  18.637  0.00  0.00    +0.000 C 
ATOM     29  C   UNL     1       1.504   3.746  18.324  0.00  0.00    +0.000 C 
ENDBRANCH  16  24
ENDBRANCH   1  16
TORSDOF 8
ENDMDL
MODEL 8
REMARK VINA RESULT:      -8.2      1.303      2.117
REMARK  Name = 
REMARK  9 active torsions:
REMARK  status: ('A' for Active; 'I' for Inactive)
REMARK    1  A    between atoms: C_1  and  C_2
REMARK    2  A    between atoms: C_2  and  C_3
REMARK    3  A    between atoms: C_6  and  O_7
REMARK    4  A    between atoms: O_7  and  C_8
REMARK    5  A    between atoms: C_8  and  C_9
REMARK    6  A    between atoms: N_11  and  C_12
REMARK    7  A    between atoms: C_12  and  C_13
REMARK    8  A    between atoms: C_13  and  C_14
REMARK    9  A    between atoms: C_13  and  N_21
REMARK                            x       y       z     vdW  Elec       q    Type
REMARK                         _______ _______ _______ _____ _____    ______ ____
ROOT
ATOM      1  C   UNL     1       3.818   7.400  17.532  0.00  0.00    +0.000 C 
ENDROOT
BRANCH   1   4
ATOM      2  C   UNL     1       6.202   6.851  17.064  0.00  0.00    +0.000 C 
ATOM      3  O   UNL     1       6.544   8.027  17.170  0.00  0.00    +0.000 OA
ATOM      4  N   UNL     1       4.895   6.446  17.238  0.00  0.00    +0.000 N 
ATOM      5  H   UNL     1       4.647   5.505  16.956  0.00  0.00    +0.000 HD
BRANCH   2   6
ATOM      6  C   UNL     1       7.216   5.731  16.787  0.00  0.00    +0.000 C 
BRANCH   6   7
ATOM      7  O   UNL     1       7.708   5.778  15.454  0.00  0.00    +0.000 OA
BRANCH   7  11
ATOM      8  C   UNL     1       5.949   3.398  12.485  0.00  0.00    +0.000 A 
ATOM      9  C   UNL     1       7.001   4.275  12.214  0.00  0.00    +0.000 A 
ATOM     10  C   UNL     1       7.567   5.041  13.240  0.00  0.00    +0.000 A 
ATOM     11  C   UNL     1       7.086   4.956  14.547  0.00  0.00    +0.000 A 
ATOM     12  C   UNL     1       6.061   4.049  14.828  0.00  0.00    +0.000 A 
ATOM     13  C   UNL     1       5.498   3.273  13.803  0.00  0.00    +0.000 A 
BRANCH   8  15
ATOM     14  C   UNL     1       5.942   1.225  11.192  0.00  0.00    +0.000 C 
ATOM     15  C   UNL     1       5.314   2.600  11.375  0.00  0.00    +0.000 C 
ENDBRANCH   8  15
ENDBRANCH   7  11
ENDBRANCH   6   7
ENDBRANCH   2   6
ENDBRANCH   1   4
BRANCH   1  16
ATOM     16  C   UNL     1       3.042   7.121  18.855  0.00  0.00    +0.000 C 
BRANCH  16  17
ATOM     17  C   UNL     1       1.965   8.162  19.186  0.00  0.00    +0.000 A 
ATOM     18  C   UNL     1       1.435   9.042  18.230  0.00  0.00    +0.000 A 
ATOM     19  C   UNL     1       0.458   9.974  18.587  0.00  0.00    +0.000 A 
ATOM     20  C   UNL     1      -0.017  10.018  19.894  0.00  0.00    +0.000 A 
ATOM     21 CL   UNL     1      -1.192  11.194  20.336  0.00  0.00    +0.000 Cl
ATOM     22  C   UNL     1       0.452   9.116  20.845  0.00  0.00    +0.000 A 
ATOM     23  C   UNL     1       1.433   8.190  20.490  0.00  0.00    +0.000 A 
ENDBRANCH  16  17
BRANCH  16  24
ATOM     24  N   UNL     1       2.423   5.805  18.997  0.00  0.00    +0.000 NA
ATOM     25  C   UNL     1       2.410   4.873  17.875  0.00  0.00    +0.000 C 
ATOM     26  C   UNL     1       1.208   3.929  18.072  0.00  0.00    +0.000 C 
ATOM     27  O   UNL     1       1.299   3.221  19.321  0.00  0.00    +0.000 OA
ATOM     28  C   UNL     1       1.391   4.143  20.421  0.00  0.00    +0.000 C 
ATOM     29  C   UNL     1       2.595   5.093  20.262  0.00  0.00    +0.000 C 
ENDBRANCH  16  24
ENDBRANCH   1  16
TORSDOF 8
ENDMDL
MODEL 9
REMARK VINA RESULT:      -8.1      4.267      8.635
REMARK  Name = 
REMARK  9 active torsions:
REMARK  status: ('A' for Active; 'I' for Inactive)
REMARK    1  A    between atoms: C_1  and  C_2
REMARK    2  A    between atoms: C_2  and  C_3
REMARK    3  A    between atoms: C_6  and  O_7
REMARK    4  A    between atoms: O_7  and  C_8
REMARK    5  A    between atoms: C_8  and  C_9
REMARK    6  A    between atoms: N_11  and  C_12
REMARK    7  A    between atoms: C_12  and  C_13
REMARK    8  A    between atoms: C_13  and  C_14
REMARK    9  A    between atoms: C_13  and  N_21
REMARK                            x       y       z     vdW  Elec       q    Type
REMARK                         _______ _______ _______ _____ _____    ______ ____
ROOT
ATOM      1  C   UNL     1       3.652   7.736  17.583  0.00  0.00    +0.000 C 
ENDROOT
BRANCH   1   4
ATOM      2  C   UNL     1       1.871   9.398  18.102  0.00  0.00    +0.000 C 
ATOM      3  O   UNL     1       2.408  10.263  17.414  0.00  0.00    +0.000 OA
ATOM      4  N   UNL     1       2.395   8.129  18.233  0.00  0.00    +0.000 N 
ATOM      5  H   UNL     1       2.013   7.528  18.954  0.00  0.00    +0.000 HD
BRANCH   2   6
ATOM      6  C   UNL     1       0.538   9.645  18.824  0.00  0.00    +0.000 C 
BRANCH   6   7
ATOM      7  O   UNL     1       0.023  10.944  18.559  0.00  0.00    +0.000 OA
BRANCH   7  11
ATOM      8  C   UNL     1      -4.136  11.062  18.043  0.00  0.00    +0.000 A 
ATOM      9  C   UNL     1      -3.336  10.083  17.450  0.00  0.00    +0.000 A 
ATOM     10  C   UNL     1      -1.952  10.075  17.660  0.00  0.00    +0.000 A 
ATOM     11  C   UNL     1      -1.341  11.047  18.453  0.00  0.00    +0.000 A 
ATOM     12  C   UNL     1      -2.144  12.003  19.082  0.00  0.00    +0.000 A 
ATOM     13  C   UNL     1      -3.533  12.008  18.880  0.00  0.00    +0.000 A 
BRANCH   8  15
ATOM     14  C   UNL     1      -6.122  12.462  17.344  0.00  0.00    +0.000 C 
ATOM     15  C   UNL     1      -5.621  11.095  17.789  0.00  0.00    +0.000 C 
ENDBRANCH   8  15
ENDBRANCH   7  11
ENDBRANCH   6   7
ENDBRANCH   2   6
ENDBRANCH   1   4
BRANCH   1  16
ATOM     16  C   UNL     1       4.291   6.426  18.135  0.00  0.00    +0.000 C 
BRANCH  16  17
ATOM     17  C   UNL     1       3.289   5.288  18.374  0.00  0.00    +0.000 A 
ATOM     18  C   UNL     1       2.467   5.221  19.510  0.00  0.00    +0.000 A 
ATOM     19  C   UNL     1       1.575   4.160  19.678  0.00  0.00    +0.000 A 
ATOM     20  C   UNL     1       1.477   3.171  18.704  0.00  0.00    +0.000 A 
ATOM     21 CL   UNL     1       0.405   1.846  18.937  0.00  0.00    +0.000 Cl
ATOM     22  C   UNL     1       2.241   3.248  17.543  0.00  0.00    +0.000 A 
ATOM     23  C   UNL     1       3.137   4.305  17.377  0.00  0.00    +0.000 A 
ENDBRANCH  16  17
BRANCH  16  24
ATOM     24  N   UNL     1       5.407   5.861  17.380  0.00  0.00    +0.000 NA
ATOM     25  C   UNL     1       5.597   6.210  15.976  0.00  0.00    +0.000 C 
ATOM     26  C   UNL     1       6.366   5.052  15.312  0.00  0.00    +0.000 C 
ATOM     27  O   UNL     1       7.633   4.829  15.956  0.00  0.00    +0.000 OA
ATOM     28  C   UNL     1       7.449   4.563  17.359  0.00  0.00    +0.000 C 
ATOM     29  C   UNL     1       6.694   5.712  18.056  0.00  0.00    +0.000 C 
ENDBRANCH  16  24
ENDBRANCH   1  16
TORSDOF 8
ENDMDL
