MODEL 1
REMARK VINA RESULT:      -7.1      0.000      0.000
REMARK  Name = 
REMARK  7 active torsions:
REMARK  status: ('A' for Active; 'I' for Inactive)
REMARK    1  A    between atoms: C_1  and  C_2
REMARK    2  A    between atoms: C_2  and  O_3
REMARK    3  A    between atoms: O_3  and  C_4
REMARK    4  A    between atoms: C_4  and  C_6
REMARK    5  A    between atoms: C_7  and  N_8
REMARK    6  A    between atoms: C_21  and  C_22
REMARK    7  A    between atoms: C_26  and  N_27
REMARK                            x       y       z     vdW  Elec       q    Type
REMARK                         _______ _______ _______ _____ _____    ______ ____
ROOT
ATOM      1  C   UNL     1       0.994  12.870  19.342  0.00  0.00    +0.000 C 
ATOM      2  C   UNL     1       1.775  12.305  18.403  0.00  0.00    +0.000 C 
ATOM      3  O   UNL     1       1.872  10.906  18.297  0.00  0.00    +0.000 OA
ATOM      4  C   UNL     1       1.399  10.117  19.350  0.00  0.00    +0.000 A 
ATOM      5  C   UNL     1       0.621  10.615  20.313  0.00  0.00    +0.000 A 
ATOM      6  C   UNL     1       0.207   9.804  21.482  0.00  0.00    +0.000 A 
ATOM      7  O   UNL     1      -0.452  10.277  22.405  0.00  0.00    +0.000 OA
ATOM      8  N   UNL     1       0.608   8.503  21.491  0.00  0.00    +0.000 N 
ATOM      9  C   UNL     1       1.347   7.914  20.463  0.00  0.00    +0.000 A 
ATOM     10  C   UNL     1       1.649   6.555  20.556  0.00  0.00    +0.000 A 
ATOM     11  C   UNL     1       2.352   5.939  19.527  0.00  0.00    +0.000 A 
ATOM     12  C   UNL     1       2.745   6.682  18.413  0.00  0.00    +0.000 A 
ATOM     13  C   UNL     1       2.451   8.050  18.328  0.00  0.00    +0.000 A 
ATOM     14  C   UNL     1       1.756   8.686  19.359  0.00  0.00    +0.000 A 
ATOM     15  C   UNL     1       0.142  12.033  20.270  0.00  0.00    +0.000 C 
ATOM     16  H   UNL     1       0.314   7.957  22.291  0.00  0.00    +0.000 HD
ENDROOT
BRANCH  15  17
ATOM     17  C   UNL     1      -1.330  12.090  19.845  0.00  0.00    +0.000 A 
ATOM     18  C   UNL     1      -2.312  12.688  20.659  0.00  0.00    +0.000 A 
ATOM     19  C   UNL     1      -3.658  12.666  20.294  0.00  0.00    +0.000 A 
ATOM     20  C   UNL     1      -4.046  12.029  19.116  0.00  0.00    +0.000 A 
ATOM     21  C   UNL     1      -3.075  11.447  18.292  0.00  0.00    +0.000 A 
ATOM     22  C   UNL     1      -1.719  11.496  18.636  0.00  0.00    +0.000 A 
BRANCH  21  23
ATOM     23  N   UNL     1      -3.482  10.735  17.075  0.00  0.00    +0.000 N 
ATOM     24  O   UNL     1      -2.806   9.750  16.735  0.00  0.00    +0.000 OA
ATOM     25  O   UNL     1      -4.456  11.163  16.449  0.00  0.00    +0.000 OA
ENDBRANCH  21  23
ENDBRANCH  15  17
BRANCH   2  26
ATOM     26  N   UNL     1       2.541  12.994  17.490  0.00  0.00    +0.000 N 
ATOM     27  H   UNL     1       2.296  12.781  16.521  0.00  0.00    +0.000 HD
ATOM     28  H   UNL     1       3.535  12.912  17.672  0.00  0.00    +0.000 HD
ENDBRANCH   2  26
BRANCH   1  29
ATOM     29  C   UNL     1       0.900  14.325  19.610  0.00  0.00    +0.000 C 
ATOM     30  O   UNL     1       1.185  14.811  20.692  0.00  0.00    +0.000 OA
BRANCH  29  31
ATOM     31  O   UNL     1       0.313  14.989  18.581  0.00  0.00    +0.000 OA
BRANCH  31  33
ATOM     32  C   UNL     1      -0.716  17.132  18.371  0.00  0.00    +0.000 C 
ATOM     33  C   UNL     1       0.593  16.395  18.580  0.00  0.00    +0.000 C 
ENDBRANCH  31  33
ENDBRANCH  29  31
ENDBRANCH   1  29
TORSDOF 6
ENDMDL
MODEL 2
REMARK VINA RESULT:      -7.1      0.788      1.204
REMARK  Name = 
REMARK  7 active torsions:
REMARK  status: ('A' for Active; 'I' for Inactive)
REMARK    1  A    between atoms: C_1  and  C_2
REMARK    2  A    between atoms: C_2  and  O_3
REMARK    3  A    between atoms: O_3  and  C_4
REMARK    4  A    between atoms: C_4  and  C_6
REMARK    5  A    between atoms: C_7  and  N_8
REMARK    6  A    between atoms: C_21  and  C_22
REMARK    7  A    between atoms: C_26  and  N_27
REMARK                            x       y       z     vdW  Elec       q    Type
REMARK                         _______ _______ _______ _____ _____    ______ ____
ROOT
ATOM      1  C   UNL     1       1.018  12.805  19.283  0.00  0.00    +0.000 C 
ATOM      2  C   UNL     1       1.817  12.246  18.356  0.00  0.00    +0.000 C 
ATOM      3  O   UNL     1       1.919  10.847  18.246  0.00  0.00    +0.000 OA
ATOM      4  C   UNL     1       1.430  10.054  19.288  0.00  0.00    +0.000 A 
ATOM      5  C   UNL     1       0.633  10.545  20.239  0.00  0.00    +0.000 A 
ATOM      6  C   UNL     1       0.201   9.729  21.397  0.00  0.00    +0.000 A 
ATOM      7  O   UNL     1      -0.476  10.196  22.310  0.00  0.00    +0.000 OA
ATOM      8  N   UNL     1       0.605   8.429  21.408  0.00  0.00    +0.000 N 
ATOM      9  C   UNL     1       1.364   7.846  20.391  0.00  0.00    +0.000 A 
ATOM     10  C   UNL     1       1.667   6.487  20.484  0.00  0.00    +0.000 A 
ATOM     11  C   UNL     1       2.389   5.877  19.465  0.00  0.00    +0.000 A 
ATOM     12  C   UNL     1       2.801   6.625  18.361  0.00  0.00    +0.000 A 
ATOM     13  C   UNL     1       2.504   7.993  18.276  0.00  0.00    +0.000 A 
ATOM     14  C   UNL     1       1.790   8.624  19.297  0.00  0.00    +0.000 A 
ATOM     15  C   UNL     1       0.151  11.962  20.192  0.00  0.00    +0.000 C 
ATOM     16  H   UNL     1       0.298   7.879  22.201  0.00  0.00    +0.000 HD
ENDROOT
BRANCH  15  17
ATOM     17  C   UNL     1      -1.312  12.017  19.741  0.00  0.00    +0.000 A 
ATOM     18  C   UNL     1      -2.311  12.610  20.541  0.00  0.00    +0.000 A 
ATOM     19  C   UNL     1      -3.650  12.586  20.151  0.00  0.00    +0.000 A 
ATOM     20  C   UNL     1      -4.016  11.953  18.965  0.00  0.00    +0.000 A 
ATOM     21  C   UNL     1      -3.028  11.377  18.155  0.00  0.00    +0.000 A 
ATOM     22  C   UNL     1      -1.679  11.427  18.524  0.00  0.00    +0.000 A 
BRANCH  21  23
ATOM     23  N   UNL     1      -3.412  10.669  16.929  0.00  0.00    +0.000 N 
ATOM     24  O   UNL     1      -2.661   9.762  16.533  0.00  0.00    +0.000 OA
ATOM     25  O   UNL     1      -4.443  11.023  16.350  0.00  0.00    +0.000 OA
ENDBRANCH  21  23
ENDBRANCH  15  17
BRANCH   2  26
ATOM     26  N   UNL     1       2.597  12.941  17.459  0.00  0.00    +0.000 N 
ATOM     27  H   UNL     1       3.529  12.538  17.343  0.00  0.00    +0.000 HD
ATOM     28  H   UNL     1       2.619  13.936  17.649  0.00  0.00    +0.000 HD
ENDBRANCH   2  26
BRANCH   1  29
ATOM     29  C   UNL     1       0.916  14.259  19.555  0.00  0.00    +0.000 C 
ATOM     30  O   UNL     1       0.693  15.075  18.676  0.00  0.00    +0.000 OA
BRANCH  29  31
ATOM     31  O   UNL     1       1.261  14.557  20.834  0.00  0.00    +0.000 OA
BRANCH  31  33
ATOM     32  C   UNL     1      -0.255  14.884  22.648  0.00  0.00    +0.000 C 
ATOM     33  C   UNL     1       0.401  15.529  21.442  0.00  0.00    +0.000 C 
ENDBRANCH  31  33
ENDBRANCH  29  31
ENDBRANCH   1  29
TORSDOF 6
ENDMDL
MODEL 3
REMARK VINA RESULT:      -7.0      2.023      2.558
REMARK  Name = 
REMARK  7 active torsions:
REMARK  status: ('A' for Active; 'I' for Inactive)
REMARK    1  A    between atoms: C_1  and  C_2
REMARK    2  A    between atoms: C_2  and  O_3
REMARK    3  A    between atoms: O_3  and  C_4
REMARK    4  A    between atoms: C_4  and  C_6
REMARK    5  A    between atoms: C_7  and  N_8
REMARK    6  A    between atoms: C_21  and  C_22
REMARK    7  A    between atoms: C_26  and  N_27
REMARK                            x       y       z     vdW  Elec       q    Type
REMARK                         _______ _______ _______ _____ _____    ______ ____
ROOT
ATOM      1  C   UNL     1       1.390  12.724  19.645  0.00  0.00    +0.000 C 
ATOM      2  C   UNL     1       1.885  12.163  18.526  0.00  0.00    +0.000 C 
ATOM      3  O   UNL     1       1.861  10.767  18.353  0.00  0.00    +0.000 OA
ATOM      4  C   UNL     1       1.604   9.956  19.463  0.00  0.00    +0.000 A 
ATOM      5  C   UNL     1       1.114  10.449  20.602  0.00  0.00    +0.000 A 
ATOM      6  C   UNL     1       0.940   9.607  21.808  0.00  0.00    +0.000 A 
ATOM      7  O   UNL     1       0.554  10.071  22.879  0.00  0.00    +0.000 OA
ATOM      8  N   UNL     1       1.244   8.287  21.677  0.00  0.00    +0.000 N 
ATOM      9  C   UNL     1       1.676   7.708  20.481  0.00  0.00    +0.000 A 
ATOM     10  C   UNL     1       1.900   6.331  20.453  0.00  0.00    +0.000 A 
ATOM     11  C   UNL     1       2.294   5.728  19.264  0.00  0.00    +0.000 A 
ATOM     12  C   UNL     1       2.457   6.501  18.113  0.00  0.00    +0.000 A 
ATOM     13  C   UNL     1       2.241   7.885  18.148  0.00  0.00    +0.000 A 
ATOM     14  C   UNL     1       1.858   8.509  19.337  0.00  0.00    +0.000 A 
ATOM     15  C   UNL     1       0.732  11.892  20.723  0.00  0.00    +0.000 C 
ATOM     16  H   UNL     1       1.116   7.721  22.505  0.00  0.00    +0.000 HD
ENDROOT
BRANCH  15  17
ATOM     17  C   UNL     1      -0.791  12.052  20.669  0.00  0.00    +0.000 A 
ATOM     18  C   UNL     1      -1.505  11.936  19.459  0.00  0.00    +0.000 A 
ATOM     19  C   UNL     1      -2.881  12.158  19.413  0.00  0.00    +0.000 A 
ATOM     20  C   UNL     1      -3.564  12.517  20.573  0.00  0.00    +0.000 A 
ATOM     21  C   UNL     1      -2.866  12.618  21.784  0.00  0.00    +0.000 A 
ATOM     22  C   UNL     1      -1.491  12.363  21.843  0.00  0.00    +0.000 A 
BRANCH  21  23
ATOM     23  N   UNL     1      -3.571  13.042  22.999  0.00  0.00    +0.000 N 
ATOM     24  O   UNL     1      -4.592  12.410  23.318  0.00  0.00    +0.000 OA
ATOM     25  O   UNL     1      -3.126  14.011  23.623  0.00  0.00    +0.000 OA
ENDBRANCH  21  23
ENDBRANCH  15  17
BRANCH   2  26
ATOM     26  N   UNL     1       2.453  12.852  17.478  0.00  0.00    +0.000 N 
ATOM     27  H   UNL     1       3.333  13.307  17.729  0.00  0.00    +0.000 HD
ATOM     28  H   UNL     1       1.800  13.479  17.024  0.00  0.00    +0.000 HD
ENDBRANCH   2  26
BRANCH   1  29
ATOM     29  C   UNL     1       1.459  14.168  19.976  0.00  0.00    +0.000 C 
ATOM     30  O   UNL     1       1.764  14.571  21.087  0.00  0.00    +0.000 OA
BRANCH  29  31
ATOM     31  O   UNL     1       0.989  14.939  18.963  0.00  0.00    +0.000 OA
BRANCH  31  33
ATOM     32  C   UNL     1      -0.471  16.719  18.333  0.00  0.00    +0.000 C 
ATOM     33  C   UNL     1      -0.296  15.514  19.236  0.00  0.00    +0.000 C 
ENDBRANCH  31  33
ENDBRANCH  29  31
ENDBRANCH   1  29
TORSDOF 6
ENDMDL
MODEL 4
REMARK VINA RESULT:      -7.0      1.770      2.258
REMARK  Name = 
REMARK  7 active torsions:
REMARK  status: ('A' for Active; 'I' for Inactive)
REMARK    1  A    between atoms: C_1  and  C_2
REMARK    2  A    between atoms: C_2  and  O_3
REMARK    3  A    between atoms: O_3  and  C_4
REMARK    4  A    between atoms: C_4  and  C_6
REMARK    5  A    between atoms: C_7  and  N_8
REMARK    6  A    between atoms: C_21  and  C_22
REMARK    7  A    between atoms: C_26  and  N_27
REMARK                            x       y       z     vdW  Elec       q    Type
REMARK                         _______ _______ _______ _____ _____    ______ ____
ROOT
ATOM      1  C   UNL     1       1.017  12.200  19.118  0.00  0.00    +0.000 C 
ATOM      2  C   UNL     1       1.926  11.780  18.219  0.00  0.00    +0.000 C 
ATOM      3  O   UNL     1       2.174  10.407  18.038  0.00  0.00    +0.000 OA
ATOM      4  C   UNL     1       1.700   9.506  18.996  0.00  0.00    +0.000 A 
ATOM      5  C   UNL     1       0.799   9.858  19.915  0.00  0.00    +0.000 A 
ATOM      6  C   UNL     1       0.377   8.932  20.992  0.00  0.00    +0.000 A 
ATOM      7  O   UNL     1      -0.400   9.274  21.880  0.00  0.00    +0.000 OA
ATOM      8  N   UNL     1       0.907   7.679  20.958  0.00  0.00    +0.000 N 
ATOM      9  C   UNL     1       1.784   7.236  19.966  0.00  0.00    +0.000 A 
ATOM     10  C   UNL     1       2.215   5.910  20.003  0.00  0.00    +0.000 A 
ATOM     11  C   UNL     1       3.059   5.438  19.004  0.00  0.00    +0.000 A 
ATOM     12  C   UNL     1       3.464   6.290  17.975  0.00  0.00    +0.000 A 
ATOM     13  C   UNL     1       3.038   7.625  17.947  0.00  0.00    +0.000 A 
ATOM     14  C   UNL     1       2.200   8.119  18.950  0.00  0.00    +0.000 A 
ATOM     15  C   UNL     1       0.182  11.222  19.915  0.00  0.00    +0.000 C 
ATOM     16  H   UNL     1       0.606   7.054  21.695  0.00  0.00    +0.000 HD
ENDROOT
BRANCH  15  17
ATOM     17  C   UNL     1      -1.248  11.165  19.366  0.00  0.00    +0.000 A 
ATOM     18  C   UNL     1      -1.578  10.383  18.241  0.00  0.00    +0.000 A 
ATOM     19  C   UNL     1      -2.866  10.400  17.708  0.00  0.00    +0.000 A 
ATOM     20  C   UNL     1      -3.842  11.213  18.280  0.00  0.00    +0.000 A 
ATOM     21  C   UNL     1      -3.529  11.981  19.409  0.00  0.00    +0.000 A 
ATOM     22  C   UNL     1      -2.246  11.942  19.969  0.00  0.00    +0.000 A 
BRANCH  21  23
ATOM     23  N   UNL     1      -4.539  12.875  19.987  0.00  0.00    +0.000 N 
ATOM     24  O   UNL     1      -4.394  13.210  21.175  0.00  0.00    +0.000 OA
ATOM     25  O   UNL     1      -5.482  13.227  19.273  0.00  0.00    +0.000 OA
ENDBRANCH  21  23
ENDBRANCH  15  17
BRANCH   2  26
ATOM     26  N   UNL     1       2.689  12.601  17.420  0.00  0.00    +0.000 N 
ATOM     27  H   UNL     1       3.093  13.390  17.928  0.00  0.00    +0.000 HD
ATOM     28  H   UNL     1       2.206  12.883  16.575  0.00  0.00    +0.000 HD
ENDBRANCH   2  26
BRANCH   1  29
ATOM     29  C   UNL     1       0.753  13.617  19.464  0.00  0.00    +0.000 C 
ATOM     30  O   UNL     1       0.638  14.487  18.616  0.00  0.00    +0.000 OA
BRANCH  29  31
ATOM     31  O   UNL     1       0.826  13.831  20.803  0.00  0.00    +0.000 OA
BRANCH  31  33
ATOM     32  C   UNL     1      -0.693  14.239  22.598  0.00  0.00    +0.000 C 
ATOM     33  C   UNL     1      -0.149  14.765  21.283  0.00  0.00    +0.000 C 
ENDBRANCH  31  33
ENDBRANCH  29  31
ENDBRANCH   1  29
TORSDOF 6
ENDMDL
MODEL 5
REMARK VINA RESULT:      -7.0      0.829      1.354
REMARK  Name = 
REMARK  7 active torsions:
REMARK  status: ('A' for Active; 'I' for Inactive)
REMARK    1  A    between atoms: C_1  and  C_2
REMARK    2  A    between atoms: C_2  and  O_3
REMARK    3  A    between atoms: O_3  and  C_4
REMARK    4  A    between atoms: C_4  and  C_6
REMARK    5  A    between atoms: C_7  and  N_8
REMARK    6  A    between atoms: C_21  and  C_22
REMARK    7  A    between atoms: C_26  and  N_27
REMARK                            x       y       z     vdW  Elec       q    Type
REMARK                         _______ _______ _______ _____ _____    ______ ____
ROOT
ATOM      1  C   UNL     1       1.138  12.849  19.340  0.00  0.00    +0.000 C 
ATOM      2  C   UNL     1       1.846  12.258  18.360  0.00  0.00    +0.000 C 
ATOM      3  O   UNL     1       1.894  10.856  18.255  0.00  0.00    +0.000 OA
ATOM      4  C   UNL     1       1.460  10.086  19.339  0.00  0.00    +0.000 A 
ATOM      5  C   UNL     1       0.755  10.610  20.343  0.00  0.00    +0.000 A 
ATOM      6  C   UNL     1       0.386   9.816  21.538  0.00  0.00    +0.000 A 
ATOM      7  O   UNL     1      -0.204  10.312  22.495  0.00  0.00    +0.000 OA
ATOM      8  N   UNL     1       0.747   8.504  21.531  0.00  0.00    +0.000 N 
ATOM      9  C   UNL     1       1.408   7.889  20.465  0.00  0.00    +0.000 A 
ATOM     10  C   UNL     1       1.673   6.522  20.547  0.00  0.00    +0.000 A 
ATOM     11  C   UNL     1       2.296   5.881  19.482  0.00  0.00    +0.000 A 
ATOM     12  C   UNL     1       2.646   6.608  18.343  0.00  0.00    +0.000 A 
ATOM     13  C   UNL     1       2.388   7.984  18.268  0.00  0.00    +0.000 A 
ATOM     14  C   UNL     1       1.774   8.645  19.334  0.00  0.00    +0.000 A 
ATOM     15  C   UNL     1       0.316  12.041  20.320  0.00  0.00    +0.000 C 
ATOM     16  H   UNL     1       0.484   7.970  22.349  0.00  0.00    +0.000 HD
ENDROOT
BRANCH  15  17
ATOM     17  C   UNL     1      -1.175  12.141  19.980  0.00  0.00    +0.000 A 
ATOM     18  C   UNL     1      -2.086  12.793  20.836  0.00  0.00    +0.000 A 
ATOM     19  C   UNL     1      -3.452  12.811  20.551  0.00  0.00    +0.000 A 
ATOM     20  C   UNL     1      -3.931  12.161  19.415  0.00  0.00    +0.000 A 
ATOM     21  C   UNL     1      -3.031  11.526  18.549  0.00  0.00    +0.000 A 
ATOM     22  C   UNL     1      -1.656  11.534  18.812  0.00  0.00    +0.000 A 
BRANCH  21  23
ATOM     23  N   UNL     1      -3.534  10.800  17.378  0.00  0.00    +0.000 N 
ATOM     24  O   UNL     1      -3.267   9.590  17.296  0.00  0.00    +0.000 OA
ATOM     25  O   UNL     1      -4.175  11.433  16.532  0.00  0.00    +0.000 OA
ENDBRANCH  21  23
ENDBRANCH  15  17
BRANCH   2  26
ATOM     26  N   UNL     1       2.577  12.920  17.400  0.00  0.00    +0.000 N 
ATOM     27  H   UNL     1       2.269  13.884  17.257  0.00  0.00    +0.000 HD
ATOM     28  H   UNL     1       2.651  12.398  16.534  0.00  0.00    +0.000 HD
ENDBRANCH   2  26
BRANCH   1  29
ATOM     29  C   UNL     1       1.103  14.307  19.605  0.00  0.00    +0.000 C 
ATOM     30  O   UNL     1       0.795  15.121  18.749  0.00  0.00    +0.000 OA
BRANCH  29  31
ATOM     31  O   UNL     1       1.608  14.608  20.829  0.00  0.00    +0.000 OA
BRANCH  31  33
ATOM     32  C   UNL     1       3.974  14.751  20.551  0.00  0.00    +0.000 C 
ATOM     33  C   UNL     1       2.699  15.538  20.780  0.00  0.00    +0.000 C 
ENDBRANCH  31  33
ENDBRANCH  29  31
ENDBRANCH   1  29
TORSDOF 6
ENDMDL
MODEL 6
REMARK VINA RESULT:      -7.0      1.787      2.336
REMARK  Name = 
REMARK  7 active torsions:
REMARK  status: ('A' for Active; 'I' for Inactive)
REMARK    1  A    between atoms: C_1  and  C_2
REMARK    2  A    between atoms: C_2  and  O_3
REMARK    3  A    between atoms: O_3  and  C_4
REMARK    4  A    between atoms: C_4  and  C_6
REMARK    5  A    between atoms: C_7  and  N_8
REMARK    6  A    between atoms: C_21  and  C_22
REMARK    7  A    between atoms: C_26  and  N_27
REMARK                            x       y       z     vdW  Elec       q    Type
REMARK                         _______ _______ _______ _____ _____    ______ ____
ROOT
ATOM      1  C   UNL     1       1.064  12.116  19.109  0.00  0.00    +0.000 C 
ATOM      2  C   UNL     1       1.968  11.665  18.220  0.00  0.00    +0.000 C 
ATOM      3  O   UNL     1       2.194  10.286  18.063  0.00  0.00    +0.000 OA
ATOM      4  C   UNL     1       1.704   9.410  19.037  0.00  0.00    +0.000 A 
ATOM      5  C   UNL     1       0.807   9.793  19.948  0.00  0.00    +0.000 A 
ATOM      6  C   UNL     1       0.368   8.894  21.040  0.00  0.00    +0.000 A 
ATOM      7  O   UNL     1      -0.405   9.264  21.920  0.00  0.00    +0.000 OA
ATOM      8  N   UNL     1       0.878   7.631  21.029  0.00  0.00    +0.000 N 
ATOM      9  C   UNL     1       1.749   7.157  20.047  0.00  0.00    +0.000 A 
ATOM     10  C   UNL     1       2.158   5.824  20.109  0.00  0.00    +0.000 A 
ATOM     11  C   UNL     1       2.996   5.321  19.120  0.00  0.00    +0.000 A 
ATOM     12  C   UNL     1       3.416   6.148  18.077  0.00  0.00    +0.000 A 
ATOM     13  C   UNL     1       3.013   7.489  18.025  0.00  0.00    +0.000 A 
ATOM     14  C   UNL     1       2.181   8.015  19.017  0.00  0.00    +0.000 A 
ATOM     15  C   UNL     1       0.212  11.167  19.922  0.00  0.00    +0.000 C 
ATOM     16  H   UNL     1       0.566   7.025  21.777  0.00  0.00    +0.000 HD
ENDROOT
BRANCH  15  17
ATOM     17  C   UNL     1      -1.217  11.124  19.372  0.00  0.00    +0.000 A 
ATOM     18  C   UNL     1      -1.565  10.301  18.281  0.00  0.00    +0.000 A 
ATOM     19  C   UNL     1      -2.852  10.329  17.743  0.00  0.00    +0.000 A 
ATOM     20  C   UNL     1      -3.807  11.192  18.276  0.00  0.00    +0.000 A 
ATOM     21  C   UNL     1      -3.476  12.001  19.371  0.00  0.00    +0.000 A 
ATOM     22  C   UNL     1      -2.196  11.953  19.936  0.00  0.00    +0.000 A 
BRANCH  21  23
ATOM     23  N   UNL     1      -4.462  12.946  19.905  0.00  0.00    +0.000 N 
ATOM     24  O   UNL     1      -5.586  12.960  19.375  0.00  0.00    +0.000 OA
ATOM     25  O   UNL     1      -4.119  13.685  20.832  0.00  0.00    +0.000 OA
ENDBRANCH  21  23
ENDBRANCH  15  17
BRANCH   2  26
ATOM     26  N   UNL     1       2.746  12.460  17.408  0.00  0.00    +0.000 N 
ATOM     27  H   UNL     1       2.205  12.954  16.695  0.00  0.00    +0.000 HD
ATOM     28  H   UNL     1       3.542  11.965  17.024  0.00  0.00    +0.000 HD
ENDBRANCH   2  26
BRANCH   1  29
ATOM     29  C   UNL     1       0.823  13.544  19.429  0.00  0.00    +0.000 C 
ATOM     30  O   UNL     1       0.634  14.385  18.566  0.00  0.00    +0.000 OA
BRANCH  29  31
ATOM     31  O   UNL     1       1.007  13.802  20.750  0.00  0.00    +0.000 OA
BRANCH  31  33
ATOM     32  C   UNL     1       3.342  14.148  21.096  0.00  0.00    +0.000 C 
ATOM     33  C   UNL     1       1.986  14.819  20.999  0.00  0.00    +0.000 C 
ENDBRANCH  31  33
ENDBRANCH  29  31
ENDBRANCH   1  29
TORSDOF 6
ENDMDL
MODEL 7
REMARK VINA RESULT:      -6.9      1.680      1.987
REMARK  Name = 
REMARK  7 active torsions:
REMARK  status: ('A' for Active; 'I' for Inactive)
REMARK    1  A    between atoms: C_1  and  C_2
REMARK    2  A    between atoms: C_2  and  O_3
REMARK    3  A    between atoms: O_3  and  C_4
REMARK    4  A    between atoms: C_4  and  C_6
REMARK    5  A    between atoms: C_7  and  N_8
REMARK    6  A    between atoms: C_21  and  C_22
REMARK    7  A    between atoms: C_26  and  N_27
REMARK                            x       y       z     vdW  Elec       q    Type
REMARK                         _______ _______ _______ _____ _____    ______ ____
ROOT
ATOM      1  C   UNL     1       1.005  12.614  19.332  0.00  0.00    +0.000 C 
ATOM      2  C   UNL     1       1.815  12.141  18.367  0.00  0.00    +0.000 C 
ATOM      3  O   UNL     1       1.979  10.756  18.184  0.00  0.00    +0.000 OA
ATOM      4  C   UNL     1       1.543   9.888  19.191  0.00  0.00    +0.000 A 
ATOM      5  C   UNL     1       0.741  10.294  20.177  0.00  0.00    +0.000 A 
ATOM      6  C   UNL     1       0.365   9.401  21.297  0.00  0.00    +0.000 A 
ATOM      7  O   UNL     1      -0.318   9.790  22.242  0.00  0.00    +0.000 OA
ATOM      8  N   UNL     1       0.828   8.122  21.237  0.00  0.00    +0.000 N 
ATOM      9  C   UNL     1       1.597   7.627  20.182  0.00  0.00    +0.000 A 
ATOM     10  C   UNL     1       1.964   6.281  20.201  0.00  0.00    +0.000 A 
ATOM     11  C   UNL     1       2.698   5.758  19.142  0.00  0.00    +0.000 A 
ATOM     12  C   UNL     1       3.057   6.579  18.072  0.00  0.00    +0.000 A 
ATOM     13  C   UNL     1       2.696   7.934  18.061  0.00  0.00    +0.000 A 
ATOM     14  C   UNL     1       1.970   8.478  19.123  0.00  0.00    +0.000 A 
ATOM     15  C   UNL     1       0.193  11.687  20.209  0.00  0.00    +0.000 C 
ATOM     16  H   UNL     1       0.560   7.520  22.004  0.00  0.00    +0.000 HD
ENDROOT
BRANCH  15  17
ATOM     17  C   UNL     1      -1.279  11.696  19.781  0.00  0.00    +0.000 A 
ATOM     18  C   UNL     1      -1.689  11.191  18.530  0.00  0.00    +0.000 A 
ATOM     19  C   UNL     1      -3.020  11.274  18.124  0.00  0.00    +0.000 A 
ATOM     20  C   UNL     1      -3.961  11.881  18.953  0.00  0.00    +0.000 A 
ATOM     21  C   UNL     1      -3.567  12.371  20.205  0.00  0.00    +0.000 A 
ATOM     22  C   UNL     1      -2.239  12.259  20.633  0.00  0.00    +0.000 A 
BRANCH  21  23
ATOM     23  N   UNL     1      -4.543  13.052  21.063  0.00  0.00    +0.000 N 
ATOM     24  O   UNL     1      -5.262  12.343  21.787  0.00  0.00    +0.000 OA
ATOM     25  O   UNL     1      -4.611  14.284  21.004  0.00  0.00    +0.000 OA
ENDBRANCH  21  23
ENDBRANCH  15  17
BRANCH   2  26
ATOM     26  N   UNL     1       2.547  12.915  17.496  0.00  0.00    +0.000 N 
ATOM     27  H   UNL     1       3.042  13.680  17.960  0.00  0.00    +0.000 HD
ATOM     28  H   UNL     1       2.006  13.224  16.697  0.00  0.00    +0.000 HD
ENDBRANCH   2  26
BRANCH   1  29
ATOM     29  C   UNL     1       0.840  14.046  19.679  0.00  0.00    +0.000 C 
ATOM     30  O   UNL     1       0.866  14.448  20.831  0.00  0.00    +0.000 OA
BRANCH  29  31
ATOM     31  O   UNL     1       0.498  14.790  18.595  0.00  0.00    +0.000 OA
BRANCH  31  33
ATOM     32  C   UNL     1      -0.529  16.944  18.612  0.00  0.00    +0.000 C 
ATOM     33  C   UNL     1       0.777  16.187  18.755  0.00  0.00    +0.000 C 
ENDBRANCH  31  33
ENDBRANCH  29  31
ENDBRANCH   1  29
TORSDOF 6
ENDMDL
MODEL 8
REMARK VINA RESULT:      -6.9      2.521      3.348
REMARK  Name = 
REMARK  7 active torsions:
REMARK  status: ('A' for Active; 'I' for Inactive)
REMARK    1  A    between atoms: C_1  and  C_2
REMARK    2  A    between atoms: C_2  and  O_3
REMARK    3  A    between atoms: O_3  and  C_4
REMARK    4  A    between atoms: C_4  and  C_6
REMARK    5  A    between atoms: C_7  and  N_8
REMARK    6  A    between atoms: C_21  and  C_22
REMARK    7  A    between atoms: C_26  and  N_27
REMARK                            x       y       z     vdW  Elec       q    Type
REMARK                         _______ _______ _______ _____ _____    ______ ____
ROOT
ATOM      1  C   UNL     1       0.388  13.759  20.902  0.00  0.00    +0.000 C 
ATOM      2  C   UNL     1       0.925  13.609  19.678  0.00  0.00    +0.000 C 
ATOM      3  O   UNL     1       1.086  12.328  19.117  0.00  0.00    +0.000 OA
ATOM      4  C   UNL     1       0.971  11.211  19.950  0.00  0.00    +0.000 A 
ATOM      5  C   UNL     1       0.448  11.291  21.175  0.00  0.00    +0.000 A 
ATOM      6  C   UNL     1       0.421  10.128  22.092  0.00  0.00    +0.000 A 
ATOM      7  O   UNL     1       0.003  10.215  23.244  0.00  0.00    +0.000 OA
ATOM      8  N   UNL     1       0.899   8.953  21.597  0.00  0.00    +0.000 N 
ATOM      9  C   UNL     1       1.374   8.799  20.293  0.00  0.00    +0.000 A 
ATOM     10  C   UNL     1       1.783   7.530  19.881  0.00  0.00    +0.000 A 
ATOM     11  C   UNL     1       2.224   7.346  18.575  0.00  0.00    +0.000 A 
ATOM     12  C   UNL     1       2.250   8.426  17.692  0.00  0.00    +0.000 A 
ATOM     13  C   UNL     1       1.849   9.701  18.112  0.00  0.00    +0.000 A 
ATOM     14  C   UNL     1       1.416   9.907  19.424  0.00  0.00    +0.000 A 
ATOM     15  C   UNL     1      -0.123  12.575  21.693  0.00  0.00    +0.000 C 
ATOM     16  H   UNL     1       0.870   8.165  22.231  0.00  0.00    +0.000 HD
ENDROOT
BRANCH  15  17
ATOM     17  C   UNL     1      -1.655  12.532  21.665  0.00  0.00    +0.000 A 
ATOM     18  C   UNL     1      -2.374  12.552  20.453  0.00  0.00    +0.000 A 
ATOM     19  C   UNL     1      -3.768  12.589  20.445  0.00  0.00    +0.000 A 
ATOM     20  C   UNL     1      -4.466  12.624  21.651  0.00  0.00    +0.000 A 
ATOM     21  C   UNL     1      -3.761  12.586  22.861  0.00  0.00    +0.000 A 
ATOM     22  C   UNL     1      -2.363  12.515  22.874  0.00  0.00    +0.000 A 
BRANCH  21  23
ATOM     23  N   UNL     1      -4.489  12.670  24.132  0.00  0.00    +0.000 N 
ATOM     24  O   UNL     1      -3.891  13.164  25.102  0.00  0.00    +0.000 OA
ATOM     25  O   UNL     1      -5.642  12.231  24.173  0.00  0.00    +0.000 OA
ENDBRANCH  21  23
ENDBRANCH  15  17
BRANCH   2  26
ATOM     26  N   UNL     1       1.367  14.636  18.874  0.00  0.00    +0.000 N 
ATOM     27  H   UNL     1       2.043  15.245  19.340  0.00  0.00    +0.000 HD
ATOM     28  H   UNL     1       0.608  15.148  18.441  0.00  0.00    +0.000 HD
ENDBRANCH   2  26
BRANCH   1  29
ATOM     29  C   UNL     1       0.269  15.046  21.628  0.00  0.00    +0.000 C 
ATOM     30  O   UNL     1       0.788  15.235  22.716  0.00  0.00    +0.000 OA
BRANCH  29  31
ATOM     31  O   UNL     1      -0.605  15.888  21.019  0.00  0.00    +0.000 OA
BRANCH  31  33
ATOM     32  C   UNL     1      -2.971  16.202  21.040  0.00  0.00    +0.000 C 
ATOM     33  C   UNL     1      -1.698  16.278  21.861  0.00  0.00    +0.000 C 
ENDBRANCH  31  33
ENDBRANCH  29  31
ENDBRANCH   1  29
TORSDOF 6
ENDMDL
MODEL 9
REMARK VINA RESULT:      -6.9      2.242      6.080
REMARK  Name = 
REMARK  7 active torsions:
REMARK  status: ('A' for Active; 'I' for Inactive)
REMARK    1  A    between atoms: C_1  and  C_2
REMARK    2  A    between atoms: C_2  and  O_3
REMARK    3  A    between atoms: O_3  and  C_4
REMARK    4  A    between atoms: C_4  and  C_6
REMARK    5  A    between atoms: C_7  and  N_8
REMARK    6  A    between atoms: C_21  and  C_22
REMARK    7  A    between atoms: C_26  and  N_27
REMARK                            x       y       z     vdW  Elec       q    Type
REMARK                         _______ _______ _______ _____ _____    ______ ____
ROOT
ATOM      1  C   UNL     1      -0.508  13.428  21.082  0.00  0.00    +0.000 C 
ATOM      2  C   UNL     1      -1.450  13.776  21.978  0.00  0.00    +0.000 C 
ATOM      3  O   UNL     1      -2.773  13.317  21.841  0.00  0.00    +0.000 OA
ATOM      4  C   UNL     1      -3.168  12.758  20.622  0.00  0.00    +0.000 A 
ATOM      5  C   UNL     1      -2.285  12.392  19.692  0.00  0.00    +0.000 A 
ATOM      6  C   UNL     1      -2.709  11.896  18.362  0.00  0.00    +0.000 A 
ATOM      7  O   UNL     1      -1.901  11.622  17.478  0.00  0.00    +0.000 OA
ATOM      8  N   UNL     1      -4.050  11.770  18.160  0.00  0.00    +0.000 N 
ATOM      9  C   UNL     1      -5.009  12.056  19.134  0.00  0.00    +0.000 A 
ATOM     10  C   UNL     1      -6.352  11.831  18.829  0.00  0.00    +0.000 A 
ATOM     11  C   UNL     1      -7.321  12.074  19.796  0.00  0.00    +0.000 A 
ATOM     12  C   UNL     1      -6.943  12.535  21.059  0.00  0.00    +0.000 A 
ATOM     13  C   UNL     1      -5.594  12.770  21.357  0.00  0.00    +0.000 A 
ATOM     14  C   UNL     1      -4.609  12.544  20.393  0.00  0.00    +0.000 A 
ATOM     15  C   UNL     1      -0.811  12.484  19.941  0.00  0.00    +0.000 C 
ATOM     16  H   UNL     1      -4.327  11.424  17.250  0.00  0.00    +0.000 HD
ENDROOT
BRANCH  15  17
ATOM     17  C   UNL     1      -0.225  11.096  20.222  0.00  0.00    +0.000 A 
ATOM     18  C   UNL     1      -0.377  10.470  21.476  0.00  0.00    +0.000 A 
ATOM     19  C   UNL     1       0.226   9.240  21.742  0.00  0.00    +0.000 A 
ATOM     20  C   UNL     1       1.004   8.624  20.764  0.00  0.00    +0.000 A 
ATOM     21  C   UNL     1       1.146   9.231  19.509  0.00  0.00    +0.000 A 
ATOM     22  C   UNL     1       0.516  10.448  19.225  0.00  0.00    +0.000 A 
BRANCH  21  23
ATOM     23  N   UNL     1       2.003   8.610  18.492  0.00  0.00    +0.000 N 
ATOM     24  O   UNL     1       2.521   7.516  18.770  0.00  0.00    +0.000 OA
ATOM     25  O   UNL     1       2.178   9.215  17.430  0.00  0.00    +0.000 OA
ENDBRANCH  21  23
ENDBRANCH  15  17
BRANCH   2  26
ATOM     26  N   UNL     1      -1.245  14.588  23.071  0.00  0.00    +0.000 N 
ATOM     27  H   UNL     1      -1.947  15.325  23.159  0.00  0.00    +0.000 HD
ATOM     28  H   UNL     1      -0.296  14.940  23.123  0.00  0.00    +0.000 HD
ENDBRANCH   2  26
BRANCH   1  29
ATOM     29  C   UNL     1       0.885  13.936  21.071  0.00  0.00    +0.000 C 
ATOM     30  O   UNL     1       1.524  14.118  22.095  0.00  0.00    +0.000 OA
BRANCH  29  31
ATOM     31  O   UNL     1       1.272  14.318  19.826  0.00  0.00    +0.000 OA
BRANCH  31  33
ATOM     32  C   UNL     1       2.683  13.160  18.289  0.00  0.00    +0.000 C 
ATOM     33  C   UNL     1       2.643  14.016  19.540  0.00  0.00    +0.000 C 
ENDBRANCH  31  33
ENDBRANCH  29  31
ENDBRANCH   1  29
TORSDOF 6
ENDMDL
