MODEL 1
REMARK VINA RESULT:      -8.1      0.000      0.000
REMARK  Name = 
REMARK  7 active torsions:
REMARK  status: ('A' for Active; 'I' for Inactive)
REMARK    1  A    between atoms: C_1  and  C_2
REMARK    2  A    between atoms: C_2  and  C_3
REMARK    3  A    between atoms: C_3  and  C_5
REMARK    4  A    between atoms: C_7  and  C_8
REMARK    5  A    between atoms: C_15  and  C_16
REMARK    6  A    between atoms: C_19  and  S_20
REMARK    7  A    between atoms: S_20  and  N_21
REMARK                            x       y       z     vdW  Elec       q    Type
REMARK                         _______ _______ _______ _____ _____    ______ ____
ROOT
ATOM      1  C   UNL     1       5.178   4.969  16.198  0.00  0.00    +0.000 A 
ATOM      2  C   UNL     1       4.712   3.996  17.062  0.00  0.00    +0.000 A 
ATOM      3  C   UNL     1       3.773   4.594  17.959  0.00  0.00    +0.000 A 
ATOM      4  C   UNL     1       3.712   5.954  17.640  0.00  0.00    +0.000 A 
ATOM      5  N   UNL     1       4.569   6.139  16.572  0.00  0.00    +0.000 N 
ATOM      6  H   UNL     1       4.751   7.024  16.116  0.00  0.00    +0.000 HD
ENDROOT
BRANCH   3   7
ATOM      7  C   UNL     1       3.037   3.918  19.032  0.00  0.00    +0.000 A 
ATOM      8  C   UNL     1       3.734   3.342  20.105  0.00  0.00    +0.000 A 
ATOM      9  C   UNL     1       3.045   2.757  21.175  0.00  0.00    +0.000 A 
ATOM     10  C   UNL     1       1.653   2.769  21.192  0.00  0.00    +0.000 A 
ATOM     11 CL   UNL     1       0.804   2.098  22.529  0.00  0.00    +0.000 Cl
ATOM     12  C   UNL     1       0.945   3.317  20.130  0.00  0.00    +0.000 A 
ATOM     13  C   UNL     1       1.636   3.845  19.035  0.00  0.00    +0.000 A 
ENDBRANCH   3   7
BRANCH   4  14
ATOM     14  C   UNL     1       2.974   7.095  18.209  0.00  0.00    +0.000 A 
ATOM     15  C   UNL     1       2.544   7.081  19.545  0.00  0.00    +0.000 A 
ATOM     16  C   UNL     1       1.745   8.102  20.059  0.00  0.00    +0.000 A 
ATOM     17  C   UNL     1       1.446   9.206  19.261  0.00  0.00    +0.000 A 
ATOM     18  C   UNL     1       1.900   9.271  17.941  0.00  0.00    +0.000 A 
ATOM     19  C   UNL     1       2.653   8.211  17.418  0.00  0.00    +0.000 A 
BRANCH  17  20
ATOM     20  S   UNL     1       0.499  10.519  19.939  0.00  0.00    +0.000 S 
ATOM     21  O   UNL     1      -0.895  10.154  19.957  0.00  0.00    +0.000 OA
ATOM     22  O   UNL     1       1.174  11.056  21.097  0.00  0.00    +0.000 OA
BRANCH  20  23
ATOM     23  N   UNL     1       0.656  11.680  18.730  0.00  0.00    +0.000 NA
ATOM     24  H   UNL     1      -0.106  11.596  18.057  0.00  0.00    +0.000 HD
ATOM     25  H   UNL     1       0.767  12.606  19.136  0.00  0.00    +0.000 HD
ENDBRANCH  20  23
ENDBRANCH  17  20
ENDBRANCH   4  14
BRANCH   1  26
ATOM     26  C   UNL     1       6.110   4.906  15.089  0.00  0.00    +0.000 C 
ATOM     27  O   UNL     1       7.235   5.400  15.180  0.00  0.00    +0.000 OA
BRANCH  26  29
ATOM     28  C   UNL     1       6.769   3.864  12.881  0.00  0.00    +0.000 C 
ATOM     29  C   UNL     1       5.630   4.219  13.822  0.00  0.00    +0.000 C 
ENDBRANCH  26  29
ENDBRANCH   1  26
TORSDOF 6
ENDMDL
MODEL 2
REMARK VINA RESULT:      -8.1      0.721      1.005
REMARK  Name = 
REMARK  7 active torsions:
REMARK  status: ('A' for Active; 'I' for Inactive)
REMARK    1  A    between atoms: C_1  and  C_2
REMARK    2  A    between atoms: C_2  and  C_3
REMARK    3  A    between atoms: C_3  and  C_5
REMARK    4  A    between atoms: C_7  and  C_8
REMARK    5  A    between atoms: C_15  and  C_16
REMARK    6  A    between atoms: C_19  and  S_20
REMARK    7  A    between atoms: S_20  and  N_21
REMARK                            x       y       z     vdW  Elec       q    Type
REMARK                         _______ _______ _______ _____ _____    ______ ____
ROOT
ATOM      1  C   UNL     1       5.198   4.990  16.245  0.00  0.00    +0.000 A 
ATOM      2  C   UNL     1       4.740   4.005  17.098  0.00  0.00    +0.000 A 
ATOM      3  C   UNL     1       3.784   4.582  17.991  0.00  0.00    +0.000 A 
ATOM      4  C   UNL     1       3.705   5.943  17.681  0.00  0.00    +0.000 A 
ATOM      5  N   UNL     1       4.569   6.148  16.622  0.00  0.00    +0.000 N 
ATOM      6  H   UNL     1       4.742   7.040  16.174  0.00  0.00    +0.000 HD
ENDROOT
BRANCH   3   7
ATOM      7  C   UNL     1       3.049   3.887  19.053  0.00  0.00    +0.000 A 
ATOM      8  C   UNL     1       3.743   3.331  20.138  0.00  0.00    +0.000 A 
ATOM      9  C   UNL     1       3.053   2.729  21.197  0.00  0.00    +0.000 A 
ATOM     10  C   UNL     1       1.661   2.703  21.192  0.00  0.00    +0.000 A 
ATOM     11 CL   UNL     1       0.809   2.011  22.515  0.00  0.00    +0.000 Cl
ATOM     12  C   UNL     1       0.956   3.231  20.117  0.00  0.00    +0.000 A 
ATOM     13  C   UNL     1       1.651   3.776  19.033  0.00  0.00    +0.000 A 
ENDBRANCH   3   7
BRANCH   4  14
ATOM     14  C   UNL     1       2.946   7.069  18.252  0.00  0.00    +0.000 A 
ATOM     15  C   UNL     1       2.526   7.049  19.591  0.00  0.00    +0.000 A 
ATOM     16  C   UNL     1       1.707   8.054  20.107  0.00  0.00    +0.000 A 
ATOM     17  C   UNL     1       1.376   9.148  19.308  0.00  0.00    +0.000 A 
ATOM     18  C   UNL     1       1.819   9.217  17.984  0.00  0.00    +0.000 A 
ATOM     19  C   UNL     1       2.592   8.173  17.459  0.00  0.00    +0.000 A 
BRANCH  17  20
ATOM     20  S   UNL     1       0.405  10.440  19.988  0.00  0.00    +0.000 S 
ATOM     21  O   UNL     1       1.237  11.588  20.250  0.00  0.00    +0.000 OA
ATOM     22  O   UNL     1      -0.845  10.538  19.271  0.00  0.00    +0.000 OA
BRANCH  20  23
ATOM     23  N   UNL     1       0.026   9.792  21.495  0.00  0.00    +0.000 NA
ATOM     24  H   UNL     1       0.238   8.794  21.515  0.00  0.00    +0.000 HD
ATOM     25  H   UNL     1       0.459  10.336  22.237  0.00  0.00    +0.000 HD
ENDBRANCH  20  23
ENDBRANCH  17  20
ENDBRANCH   4  14
BRANCH   1  26
ATOM     26  C   UNL     1       6.141   4.949  15.144  0.00  0.00    +0.000 C 
ATOM     27  O   UNL     1       7.191   5.592  15.186  0.00  0.00    +0.000 OA
BRANCH  26  29
ATOM     28  C   UNL     1       6.814   4.133  12.847  0.00  0.00    +0.000 C 
ATOM     29  C   UNL     1       5.765   4.094  13.946  0.00  0.00    +0.000 C 
ENDBRANCH  26  29
ENDBRANCH   1  26
TORSDOF 6
ENDMDL
MODEL 3
REMARK VINA RESULT:      -8.0      0.608      1.165
REMARK  Name = 
REMARK  7 active torsions:
REMARK  status: ('A' for Active; 'I' for Inactive)
REMARK    1  A    between atoms: C_1  and  C_2
REMARK    2  A    between atoms: C_2  and  C_3
REMARK    3  A    between atoms: C_3  and  C_5
REMARK    4  A    between atoms: C_7  and  C_8
REMARK    5  A    between atoms: C_15  and  C_16
REMARK    6  A    between atoms: C_19  and  S_20
REMARK    7  A    between atoms: S_20  and  N_21
REMARK                            x       y       z     vdW  Elec       q    Type
REMARK                         _______ _______ _______ _____ _____    ______ ____
ROOT
ATOM      1  C   UNL     1       5.186   4.965  16.290  0.00  0.00    +0.000 A 
ATOM      2  C   UNL     1       4.738   3.981  17.151  0.00  0.00    +0.000 A 
ATOM      3  C   UNL     1       3.762   4.550  18.027  0.00  0.00    +0.000 A 
ATOM      4  C   UNL     1       3.660   5.906  17.699  0.00  0.00    +0.000 A 
ATOM      5  N   UNL     1       4.530   6.115  16.646  0.00  0.00    +0.000 N 
ATOM      6  H   UNL     1       4.689   7.004  16.188  0.00  0.00    +0.000 HD
ENDROOT
BRANCH   3   7
ATOM      7  C   UNL     1       3.030   3.854  19.091  0.00  0.00    +0.000 A 
ATOM      8  C   UNL     1       3.728   3.298  20.173  0.00  0.00    +0.000 A 
ATOM      9  C   UNL     1       3.041   2.694  21.233  0.00  0.00    +0.000 A 
ATOM     10  C   UNL     1       1.649   2.668  21.232  0.00  0.00    +0.000 A 
ATOM     11 CL   UNL     1       0.801   1.974  22.557  0.00  0.00    +0.000 Cl
ATOM     12  C   UNL     1       0.941   3.197  20.160  0.00  0.00    +0.000 A 
ATOM     13  C   UNL     1       1.632   3.743  19.075  0.00  0.00    +0.000 A 
ENDBRANCH   3   7
BRANCH   4  14
ATOM     14  C   UNL     1       2.872   7.023  18.247  0.00  0.00    +0.000 A 
ATOM     15  C   UNL     1       2.550   8.135  17.454  0.00  0.00    +0.000 A 
ATOM     16  C   UNL     1       1.908   9.249  17.996  0.00  0.00    +0.000 A 
ATOM     17  C   UNL     1       1.490   9.220  19.326  0.00  0.00    +0.000 A 
ATOM     18  C   UNL     1       1.755   8.106  20.128  0.00  0.00    +0.000 A 
ATOM     19  C   UNL     1       2.454   7.018  19.588  0.00  0.00    +0.000 A 
BRANCH  17  20
ATOM     20  S   UNL     1       0.620  10.597  19.978  0.00  0.00    +0.000 S 
ATOM     21  O   UNL     1       0.407  10.412  21.392  0.00  0.00    +0.000 OA
ATOM     22  O   UNL     1       1.161  11.818  19.430  0.00  0.00    +0.000 OA
BRANCH  20  23
ATOM     23  N   UNL     1      -0.887  10.391  19.255  0.00  0.00    +0.000 NA
ATOM     24  H   UNL     1      -1.007   9.422  18.956  0.00  0.00    +0.000 HD
ATOM     25  H   UNL     1      -1.624  10.746  19.858  0.00  0.00    +0.000 HD
ENDBRANCH  20  23
ENDBRANCH  17  20
ENDBRANCH   4  14
BRANCH   1  26
ATOM     26  C   UNL     1       6.140   4.929  15.199  0.00  0.00    +0.000 C 
ATOM     27  O   UNL     1       7.211   5.533  15.276  0.00  0.00    +0.000 OA
BRANCH  26  29
ATOM     28  C   UNL     1       6.819   4.160  12.888  0.00  0.00    +0.000 C 
ATOM     29  C   UNL     1       5.751   4.129  13.968  0.00  0.00    +0.000 C 
ENDBRANCH  26  29
ENDBRANCH   1  26
TORSDOF 6
ENDMDL
MODEL 4
REMARK VINA RESULT:      -7.8      0.725      1.327
REMARK  Name = 
REMARK  7 active torsions:
REMARK  status: ('A' for Active; 'I' for Inactive)
REMARK    1  A    between atoms: C_1  and  C_2
REMARK    2  A    between atoms: C_2  and  C_3
REMARK    3  A    between atoms: C_3  and  C_5
REMARK    4  A    between atoms: C_7  and  C_8
REMARK    5  A    between atoms: C_15  and  C_16
REMARK    6  A    between atoms: C_19  and  S_20
REMARK    7  A    between atoms: S_20  and  N_21
REMARK                            x       y       z     vdW  Elec       q    Type
REMARK                         _______ _______ _______ _____ _____    ______ ____
ROOT
ATOM      1  C   UNL     1       5.111   5.033  16.345  0.00  0.00    +0.000 A 
ATOM      2  C   UNL     1       4.661   4.101  17.261  0.00  0.00    +0.000 A 
ATOM      3  C   UNL     1       3.726   4.735  18.136  0.00  0.00    +0.000 A 
ATOM      4  C   UNL     1       3.650   6.077  17.751  0.00  0.00    +0.000 A 
ATOM      5  N   UNL     1       4.495   6.215  16.667  0.00  0.00    +0.000 N 
ATOM      6  H   UNL     1       4.666   7.078  16.165  0.00  0.00    +0.000 HD
ENDROOT
BRANCH   3   7
ATOM      7  C   UNL     1       3.006   4.108  19.250  0.00  0.00    +0.000 A 
ATOM      8  C   UNL     1       1.605   4.025  19.221  0.00  0.00    +0.000 A 
ATOM      9  C   UNL     1       0.906   3.366  20.239  0.00  0.00    +0.000 A 
ATOM     10  C   UNL     1       1.605   2.759  21.280  0.00  0.00    +0.000 A 
ATOM     11 CL   UNL     1       0.753   1.904  22.505  0.00  0.00    +0.000 Cl
ATOM     12  C   UNL     1       2.991   2.847  21.336  0.00  0.00    +0.000 A 
ATOM     13  C   UNL     1       3.680   3.559  20.350  0.00  0.00    +0.000 A 
ENDBRANCH   3   7
BRANCH   4  14
ATOM     14  C   UNL     1       2.908   7.239  18.269  0.00  0.00    +0.000 A 
ATOM     15  C   UNL     1       2.439   7.262  19.592  0.00  0.00    +0.000 A 
ATOM     16  C   UNL     1       1.635   8.304  20.056  0.00  0.00    +0.000 A 
ATOM     17  C   UNL     1       1.371   9.391  19.223  0.00  0.00    +0.000 A 
ATOM     18  C   UNL     1       1.865   9.418  17.916  0.00  0.00    +0.000 A 
ATOM     19  C   UNL     1       2.621   8.338  17.442  0.00  0.00    +0.000 A 
BRANCH  17  20
ATOM     20  S   UNL     1       0.419  10.729  19.840  0.00  0.00    +0.000 S 
ATOM     21  O   UNL     1       0.855  11.958  19.227  0.00  0.00    +0.000 OA
ATOM     22  O   UNL     1      -0.972  10.346  19.904  0.00  0.00    +0.000 OA
BRANCH  20  23
ATOM     23  N   UNL     1       0.957  10.792  21.435  0.00  0.00    +0.000 NA
ATOM     24  H   UNL     1       0.170  10.701  22.078  0.00  0.00    +0.000 HD
ATOM     25  H   UNL     1       1.710  10.125  21.584  0.00  0.00    +0.000 HD
ENDBRANCH  20  23
ENDBRANCH  17  20
ENDBRANCH   4  14
BRANCH   1  26
ATOM     26  C   UNL     1       6.033   4.923  15.232  0.00  0.00    +0.000 C 
ATOM     27  O   UNL     1       7.116   5.508  15.248  0.00  0.00    +0.000 OA
BRANCH  26  29
ATOM     28  C   UNL     1       6.626   4.032  12.941  0.00  0.00    +0.000 C 
ATOM     29  C   UNL     1       5.594   4.067  14.055  0.00  0.00    +0.000 C 
ENDBRANCH  26  29
ENDBRANCH   1  26
TORSDOF 6
ENDMDL
MODEL 5
REMARK VINA RESULT:      -7.6      0.416      1.397
REMARK  Name = 
REMARK  7 active torsions:
REMARK  status: ('A' for Active; 'I' for Inactive)
REMARK    1  A    between atoms: C_1  and  C_2
REMARK    2  A    between atoms: C_2  and  C_3
REMARK    3  A    between atoms: C_3  and  C_5
REMARK    4  A    between atoms: C_7  and  C_8
REMARK    5  A    between atoms: C_15  and  C_16
REMARK    6  A    between atoms: C_19  and  S_20
REMARK    7  A    between atoms: S_20  and  N_21
REMARK                            x       y       z     vdW  Elec       q    Type
REMARK                         _______ _______ _______ _____ _____    ______ ____
ROOT
ATOM      1  C   UNL     1       5.124   5.158  16.498  0.00  0.00    +0.000 A 
ATOM      2  C   UNL     1       4.676   4.222  17.410  0.00  0.00    +0.000 A 
ATOM      3  C   UNL     1       3.678   4.829  18.234  0.00  0.00    +0.000 A 
ATOM      4  C   UNL     1       3.562   6.161  17.822  0.00  0.00    +0.000 A 
ATOM      5  N   UNL     1       4.445   6.317  16.772  0.00  0.00    +0.000 N 
ATOM      6  H   UNL     1       4.600   7.179  16.262  0.00  0.00    +0.000 HD
ENDROOT
BRANCH   3   7
ATOM      7  C   UNL     1       2.939   4.189  19.328  0.00  0.00    +0.000 A 
ATOM      8  C   UNL     1       1.562   3.951  19.198  0.00  0.00    +0.000 A 
ATOM      9  C   UNL     1       0.855   3.275  20.200  0.00  0.00    +0.000 A 
ATOM     10  C   UNL     1       1.526   2.809  21.328  0.00  0.00    +0.000 A 
ATOM     11 CL   UNL     1       0.671   1.935  22.537  0.00  0.00    +0.000 Cl
ATOM     12  C   UNL     1       2.885   3.053  21.484  0.00  0.00    +0.000 A 
ATOM     13  C   UNL     1       3.574   3.781  20.509  0.00  0.00    +0.000 A 
ENDBRANCH   3   7
BRANCH   4  14
ATOM     14  C   UNL     1       2.750   7.297  18.289  0.00  0.00    +0.000 A 
ATOM     15  C   UNL     1       2.448   8.367  17.431  0.00  0.00    +0.000 A 
ATOM     16  C   UNL     1       1.781   9.501  17.896  0.00  0.00    +0.000 A 
ATOM     17  C   UNL     1       1.320   9.534  19.212  0.00  0.00    +0.000 A 
ATOM     18  C   UNL     1       1.565   8.463  20.076  0.00  0.00    +0.000 A 
ATOM     19  C   UNL     1       2.287   7.355  19.614  0.00  0.00    +0.000 A 
BRANCH  17  20
ATOM     20  S   UNL     1       0.420  10.934  19.766  0.00  0.00    +0.000 S 
ATOM     21  O   UNL     1      -0.899  10.530  20.183  0.00  0.00    +0.000 OA
ATOM     22  O   UNL     1       1.271  11.766  20.586  0.00  0.00    +0.000 OA
BRANCH  20  23
ATOM     23  N   UNL     1       0.210  11.770  18.319  0.00  0.00    +0.000 NA
ATOM     24  H   UNL     1      -0.750  11.669  17.988  0.00  0.00    +0.000 HD
ATOM     25  H   UNL     1       0.532  12.730  18.411  0.00  0.00    +0.000 HD
ENDBRANCH  20  23
ENDBRANCH  17  20
ENDBRANCH   4  14
BRANCH   1  26
ATOM     26  C   UNL     1       6.096   5.070  15.425  0.00  0.00    +0.000 C 
ATOM     27  O   UNL     1       7.140   5.721  15.464  0.00  0.00    +0.000 OA
BRANCH  26  29
ATOM     28  C   UNL     1       6.767   4.248  13.130  0.00  0.00    +0.000 C 
ATOM     29  C   UNL     1       5.758   4.152  14.262  0.00  0.00    +0.000 C 
ENDBRANCH  26  29
ENDBRANCH   1  26
TORSDOF 6
ENDMDL
MODEL 6
REMARK VINA RESULT:      -7.6      1.003      1.241
REMARK  Name = 
REMARK  7 active torsions:
REMARK  status: ('A' for Active; 'I' for Inactive)
REMARK    1  A    between atoms: C_1  and  C_2
REMARK    2  A    between atoms: C_2  and  C_3
REMARK    3  A    between atoms: C_3  and  C_5
REMARK    4  A    between atoms: C_7  and  C_8
REMARK    5  A    between atoms: C_15  and  C_16
REMARK    6  A    between atoms: C_19  and  S_20
REMARK    7  A    between atoms: S_20  and  N_21
REMARK                            x       y       z     vdW  Elec       q    Type
REMARK                         _______ _______ _______ _____ _____    ______ ____
ROOT
ATOM      1  C   UNL     1       4.866   4.720  16.284  0.00  0.00    +0.000 A 
ATOM      2  C   UNL     1       4.401   3.769  17.172  0.00  0.00    +0.000 A 
ATOM      3  C   UNL     1       3.518   4.404  18.100  0.00  0.00    +0.000 A 
ATOM      4  C   UNL     1       3.491   5.764  17.773  0.00  0.00    +0.000 A 
ATOM      5  N   UNL     1       4.312   5.912  16.672  0.00  0.00    +0.000 N 
ATOM      6  H   UNL     1       4.506   6.788  16.202  0.00  0.00    +0.000 HD
ENDROOT
BRANCH   3   7
ATOM      7  C   UNL     1       2.801   3.761  19.206  0.00  0.00    +0.000 A 
ATOM      8  C   UNL     1       3.518   3.208  20.278  0.00  0.00    +0.000 A 
ATOM      9  C   UNL     1       2.849   2.656  21.377  0.00  0.00    +0.000 A 
ATOM     10  C   UNL     1       1.458   2.677  21.425  0.00  0.00    +0.000 A 
ATOM     11 CL   UNL     1       0.634   2.046  22.796  0.00  0.00    +0.000 Cl
ATOM     12  C   UNL     1       0.730   3.202  20.364  0.00  0.00    +0.000 A 
ATOM     13  C   UNL     1       1.401   3.697  19.241  0.00  0.00    +0.000 A 
ENDBRANCH   3   7
BRANCH   4  14
ATOM     14  C   UNL     1       2.814   6.933  18.361  0.00  0.00    +0.000 A 
ATOM     15  C   UNL     1       2.447   6.947  19.715  0.00  0.00    +0.000 A 
ATOM     16  C   UNL     1       1.703   7.997  20.252  0.00  0.00    +0.000 A 
ATOM     17  C   UNL     1       1.399   9.101  19.455  0.00  0.00    +0.000 A 
ATOM     18  C   UNL     1       1.793   9.136  18.114  0.00  0.00    +0.000 A 
ATOM     19  C   UNL     1       2.489   8.048  17.571  0.00  0.00    +0.000 A 
BRANCH  17  20
ATOM     20  S   UNL     1       0.525  10.449  20.159  0.00  0.00    +0.000 S 
ATOM     21  O   UNL     1       0.098  10.108  21.492  0.00  0.00    +0.000 OA
ATOM     22  O   UNL     1       1.212  11.684  19.858  0.00  0.00    +0.000 OA
BRANCH  20  23
ATOM     23  N   UNL     1      -0.869  10.451  19.214  0.00  0.00    +0.000 NA
ATOM     24  H   UNL     1      -1.145   9.495  18.989  0.00  0.00    +0.000 HD
ATOM     25  H   UNL     1      -1.595  11.014  19.650  0.00  0.00    +0.000 HD
ENDBRANCH  20  23
ENDBRANCH  17  20
ENDBRANCH   4  14
BRANCH   1  26
ATOM     26  C   UNL     1       5.752   4.618  15.140  0.00  0.00    +0.000 C 
ATOM     27  O   UNL     1       5.312   4.344  14.022  0.00  0.00    +0.000 OA
BRANCH  26  29
ATOM     28  C   UNL     1       7.618   4.640  16.846  0.00  0.00    +0.000 C 
ATOM     29  C   UNL     1       7.231   4.852  15.392  0.00  0.00    +0.000 C 
ENDBRANCH  26  29
ENDBRANCH   1  26
TORSDOF 6
ENDMDL
MODEL 7
REMARK VINA RESULT:      -7.6      0.858      1.478
REMARK  Name = 
REMARK  7 active torsions:
REMARK  status: ('A' for Active; 'I' for Inactive)
REMARK    1  A    between atoms: C_1  and  C_2
REMARK    2  A    between atoms: C_2  and  C_3
REMARK    3  A    between atoms: C_3  and  C_5
REMARK    4  A    between atoms: C_7  and  C_8
REMARK    5  A    between atoms: C_15  and  C_16
REMARK    6  A    between atoms: C_19  and  S_20
REMARK    7  A    between atoms: S_20  and  N_21
REMARK                            x       y       z     vdW  Elec       q    Type
REMARK                         _______ _______ _______ _____ _____    ______ ____
ROOT
ATOM      1  C   UNL     1       4.848   4.784  16.378  0.00  0.00    +0.000 A 
ATOM      2  C   UNL     1       4.399   3.825  17.266  0.00  0.00    +0.000 A 
ATOM      3  C   UNL     1       3.479   4.437  18.172  0.00  0.00    +0.000 A 
ATOM      4  C   UNL     1       3.412   5.793  17.833  0.00  0.00    +0.000 A 
ATOM      5  N   UNL     1       4.248   5.960  16.746  0.00  0.00    +0.000 N 
ATOM      6  H   UNL     1       4.421   6.838  16.272  0.00  0.00    +0.000 HD
ENDROOT
BRANCH   3   7
ATOM      7  C   UNL     1       2.764   3.779  19.271  0.00  0.00    +0.000 A 
ATOM      8  C   UNL     1       3.479   3.267  20.364  0.00  0.00    +0.000 A 
ATOM      9  C   UNL     1       2.809   2.701  21.456  0.00  0.00    +0.000 A 
ATOM     10  C   UNL     1       1.416   2.668  21.473  0.00  0.00    +0.000 A 
ATOM     11 CL   UNL     1       0.589   2.020  22.834  0.00  0.00    +0.000 Cl
ATOM     12  C   UNL     1       0.692   3.152  20.391  0.00  0.00    +0.000 A 
ATOM     13  C   UNL     1       1.367   3.660  19.277  0.00  0.00    +0.000 A 
ENDBRANCH   3   7
BRANCH   4  14
ATOM     14  C   UNL     1       2.686   6.943  18.399  0.00  0.00    +0.000 A 
ATOM     15  C   UNL     1       2.367   8.055  17.604  0.00  0.00    +0.000 A 
ATOM     16  C   UNL     1       1.786   9.196  18.157  0.00  0.00    +0.000 A 
ATOM     17  C   UNL     1       1.427   9.199  19.504  0.00  0.00    +0.000 A 
ATOM     18  C   UNL     1       1.690   8.088  20.310  0.00  0.00    +0.000 A 
ATOM     19  C   UNL     1       2.327   6.970  19.757  0.00  0.00    +0.000 A 
BRANCH  17  20
ATOM     20  S   UNL     1       0.632  10.613  20.174  0.00  0.00    +0.000 S 
ATOM     21  O   UNL     1      -0.771  10.583  19.843  0.00  0.00    +0.000 OA
ATOM     22  O   UNL     1       1.106  10.846  21.518  0.00  0.00    +0.000 OA
BRANCH  20  23
ATOM     23  N   UNL     1       1.303  11.832  19.227  0.00  0.00    +0.000 NA
ATOM     24  H   UNL     1       1.266  12.725  19.720  0.00  0.00    +0.000 HD
ATOM     25  H   UNL     1       2.228  11.563  18.900  0.00  0.00    +0.000 HD
ENDBRANCH  20  23
ENDBRANCH  17  20
ENDBRANCH   4  14
BRANCH   1  26
ATOM     26  C   UNL     1       5.758   4.703  15.251  0.00  0.00    +0.000 C 
ATOM     27  O   UNL     1       5.349   4.405  14.128  0.00  0.00    +0.000 OA
BRANCH  26  29
ATOM     28  C   UNL     1       7.632   4.631  16.947  0.00  0.00    +0.000 C 
ATOM     29  C   UNL     1       7.224   4.989  15.527  0.00  0.00    +0.000 C 
ENDBRANCH  26  29
ENDBRANCH   1  26
TORSDOF 6
ENDMDL
MODEL 8
REMARK VINA RESULT:      -7.5      4.126      5.861
REMARK  Name = 
REMARK  7 active torsions:
REMARK  status: ('A' for Active; 'I' for Inactive)
REMARK    1  A    between atoms: C_1  and  C_2
REMARK    2  A    between atoms: C_2  and  C_3
REMARK    3  A    between atoms: C_3  and  C_5
REMARK    4  A    between atoms: C_7  and  C_8
REMARK    5  A    between atoms: C_15  and  C_16
REMARK    6  A    between atoms: C_19  and  S_20
REMARK    7  A    between atoms: S_20  and  N_21
REMARK                            x       y       z     vdW  Elec       q    Type
REMARK                         _______ _______ _______ _____ _____    ______ ____
ROOT
ATOM      1  C   UNL     1       6.274   4.070  13.721  0.00  0.00    +0.000 A 
ATOM      2  C   UNL     1       7.052   5.022  14.352  0.00  0.00    +0.000 A 
ATOM      3  C   UNL     1       6.523   5.250  15.661  0.00  0.00    +0.000 A 
ATOM      4  C   UNL     1       5.389   4.442  15.790  0.00  0.00    +0.000 A 
ATOM      5  N   UNL     1       5.276   3.745  14.603  0.00  0.00    +0.000 N 
ATOM      6  H   UNL     1       4.544   3.080  14.383  0.00  0.00    +0.000 HD
ENDROOT
BRANCH   3   7
ATOM      7  C   UNL     1       7.049   6.179  16.667  0.00  0.00    +0.000 A 
ATOM      8  C   UNL     1       7.612   5.683  17.852  0.00  0.00    +0.000 A 
ATOM      9  C   UNL     1       8.185   6.551  18.790  0.00  0.00    +0.000 A 
ATOM     10  C   UNL     1       8.222   7.920  18.537  0.00  0.00    +0.000 A 
ATOM     11 CL   UNL     1       8.969   8.983  19.662  0.00  0.00    +0.000 Cl
ATOM     12  C   UNL     1       7.652   8.431  17.377  0.00  0.00    +0.000 A 
ATOM     13  C   UNL     1       7.027   7.568  16.473  0.00  0.00    +0.000 A 
ENDBRANCH   3   7
BRANCH   4  14
ATOM     14  C   UNL     1       4.399   4.251  16.864  0.00  0.00    +0.000 A 
ATOM     15  C   UNL     1       3.632   5.327  17.335  0.00  0.00    +0.000 A 
ATOM     16  C   UNL     1       2.779   5.183  18.429  0.00  0.00    +0.000 A 
ATOM     17  C   UNL     1       2.610   3.924  19.006  0.00  0.00    +0.000 A 
ATOM     18  C   UNL     1       3.325   2.823  18.527  0.00  0.00    +0.000 A 
ATOM     19  C   UNL     1       4.224   2.994  17.465  0.00  0.00    +0.000 A 
BRANCH  17  20
ATOM     20  S   UNL     1       1.480   3.738  20.336  0.00  0.00    +0.000 S 
ATOM     21  O   UNL     1       1.227   5.021  20.941  0.00  0.00    +0.000 OA
ATOM     22  O   UNL     1       0.416   2.841  19.947  0.00  0.00    +0.000 OA
BRANCH  20  23
ATOM     23  N   UNL     1       2.426   2.886  21.438  0.00  0.00    +0.000 NA
ATOM     24  H   UNL     1       1.968   2.012  21.697  0.00  0.00    +0.000 HD
ATOM     25  H   UNL     1       3.376   2.784  21.090  0.00  0.00    +0.000 HD
ENDBRANCH  20  23
ENDBRANCH  17  20
ENDBRANCH   4  14
BRANCH   1  26
ATOM     26  C   UNL     1       6.377   3.456  12.412  0.00  0.00    +0.000 C 
ATOM     27  O   UNL     1       7.357   3.657  11.694  0.00  0.00    +0.000 OA
BRANCH  26  29
ATOM     28  C   UNL     1       4.167   3.336  11.189  0.00  0.00    +0.000 C 
ATOM     29  C   UNL     1       5.221   2.572  11.973  0.00  0.00    +0.000 C 
ENDBRANCH  26  29
ENDBRANCH   1  26
TORSDOF 6
ENDMDL
MODEL 9
REMARK VINA RESULT:      -7.4      1.088      1.728
REMARK  Name = 
REMARK  7 active torsions:
REMARK  status: ('A' for Active; 'I' for Inactive)
REMARK    1  A    between atoms: C_1  and  C_2
REMARK    2  A    between atoms: C_2  and  C_3
REMARK    3  A    between atoms: C_3  and  C_5
REMARK    4  A    between atoms: C_7  and  C_8
REMARK    5  A    between atoms: C_15  and  C_16
REMARK    6  A    between atoms: C_19  and  S_20
REMARK    7  A    between atoms: S_20  and  N_21
REMARK                            x       y       z     vdW  Elec       q    Type
REMARK                         _______ _______ _______ _____ _____    ______ ____
ROOT
ATOM      1  C   UNL     1       4.824   4.725  16.352  0.00  0.00    +0.000 A 
ATOM      2  C   UNL     1       4.373   3.825  17.299  0.00  0.00    +0.000 A 
ATOM      3  C   UNL     1       3.509   4.511  18.207  0.00  0.00    +0.000 A 
ATOM      4  C   UNL     1       3.478   5.851  17.808  0.00  0.00    +0.000 A 
ATOM      5  N   UNL     1       4.279   5.938  16.686  0.00  0.00    +0.000 N 
ATOM      6  H   UNL     1       4.466   6.787  16.166  0.00  0.00    +0.000 HD
ENDROOT
BRANCH   3   7
ATOM      7  C   UNL     1       2.812   3.930  19.359  0.00  0.00    +0.000 A 
ATOM      8  C   UNL     1       1.411   3.843  19.360  0.00  0.00    +0.000 A 
ATOM      9  C   UNL     1       0.733   3.225  20.418  0.00  0.00    +0.000 A 
ATOM     10  C   UNL     1       1.453   2.665  21.470  0.00  0.00    +0.000 A 
ATOM     11 CL   UNL     1       0.627   1.861  22.746  0.00  0.00    +0.000 Cl
ATOM     12  C   UNL     1       2.839   2.759  21.497  0.00  0.00    +0.000 A 
ATOM     13  C   UNL     1       3.508   3.430  20.469  0.00  0.00    +0.000 A 
ENDBRANCH   3   7
BRANCH   4  14
ATOM     14  C   UNL     1       2.815   7.052  18.345  0.00  0.00    +0.000 A 
ATOM     15  C   UNL     1       2.395   7.105  19.683  0.00  0.00    +0.000 A 
ATOM     16  C   UNL     1       1.662   8.189  20.169  0.00  0.00    +0.000 A 
ATOM     17  C   UNL     1       1.425   9.284  19.338  0.00  0.00    +0.000 A 
ATOM     18  C   UNL     1       1.872   9.279  18.014  0.00  0.00    +0.000 A 
ATOM     19  C   UNL     1       2.556   8.160  17.521  0.00  0.00    +0.000 A 
BRANCH  17  20
ATOM     20  S   UNL     1       0.565  10.672  19.979  0.00  0.00    +0.000 S 
ATOM     21  O   UNL     1       1.168  11.886  19.490  0.00  0.00    +0.000 OA
ATOM     22  O   UNL     1      -0.859  10.434  19.915  0.00  0.00    +0.000 OA
BRANCH  20  23
ATOM     23  N   UNL     1       0.978  10.576  21.609  0.00  0.00    +0.000 NA
ATOM     24  H   UNL     1       0.217  10.932  22.189  0.00  0.00    +0.000 HD
ATOM     25  H   UNL     1       1.290   9.637  21.843  0.00  0.00    +0.000 HD
ENDBRANCH  20  23
ENDBRANCH  17  20
ENDBRANCH   4  14
BRANCH   1  26
ATOM     26  C   UNL     1       5.688   4.560  15.200  0.00  0.00    +0.000 C 
ATOM     27  O   UNL     1       5.220   4.304  14.090  0.00  0.00    +0.000 OA
BRANCH  26  29
ATOM     28  C   UNL     1       7.555   4.632  16.904  0.00  0.00    +0.000 C 
ATOM     29  C   UNL     1       7.182   4.705  15.433  0.00  0.00    +0.000 C 
ENDBRANCH  26  29
ENDBRANCH   1  26
TORSDOF 6
ENDMDL
