MODEL 1
REMARK VINA RESULT:      -6.4      0.000      0.000
REMARK  Name = 
REMARK  6 active torsions:
REMARK  status: ('A' for Active; 'I' for Inactive)
REMARK    1  A    between atoms: C_1  and  O_2
REMARK    2  A    between atoms: O_2  and  C_3
REMARK    3  A    between atoms: C_6  and  N_7
REMARK    4  A    between atoms: C_8  and  C_10
REMARK    5  A    between atoms: C_10  and  C_11
REMARK    6  A    between atoms: N_13  and  N_14
REMARK                            x       y       z     vdW  Elec       q    Type
REMARK                         _______ _______ _______ _____ _____    ______ ____
ROOT
ATOM      1  N   UNL     1       5.581   4.583  14.545  0.00  0.00    +0.000 N 
ATOM      2  C   UNL     1       6.849   4.815  14.044  0.00  0.00    +0.000 C 
ATOM      3  O   UNL     1       7.809   5.251  14.679  0.00  0.00    +0.000 OA
ATOM      4  H   UNL     1       4.892   4.181  13.908  0.00  0.00    +0.000 HD
ENDROOT
BRANCH   1   8
ATOM      5  C   UNL     1       4.212   5.525  18.443  0.00  0.00    +0.000 A 
ATOM      6  C   UNL     1       4.346   4.194  18.060  0.00  0.00    +0.000 A 
ATOM      7  C   UNL     1       4.812   3.862  16.784  0.00  0.00    +0.000 A 
ATOM      8  C   UNL     1       5.129   4.856  15.858  0.00  0.00    +0.000 A 
ATOM      9  C   UNL     1       4.988   6.195  16.245  0.00  0.00    +0.000 A 
ATOM     10  C   UNL     1       4.532   6.531  17.532  0.00  0.00    +0.000 A 
BRANCH   5  12
ATOM     11  C   UNL     1       2.879   4.682  20.208  0.00  0.00    +0.000 C 
ATOM     12  O   UNL     1       3.726   5.707  19.706  0.00  0.00    +0.000 OA
ENDBRANCH   5  12
ENDBRANCH   1   8
BRANCH   2  13
ATOM     13  C   UNL     1       7.070   4.430  12.605  0.00  0.00    +0.000 C 
BRANCH  13  14
ATOM     14  C   UNL     1       6.223   3.297  12.109  0.00  0.00    +0.000 C 
ATOM     15  O   UNL     1       4.997   3.390  12.017  0.00  0.00    +0.000 OA
ATOM     16  N   UNL     1       6.930   2.158  11.752  0.00  0.00    +0.000 N 
ATOM     17  H   UNL     1       7.931   2.215  11.570  0.00  0.00    +0.000 HD
BRANCH  16  18
ATOM     18  N   UNL     1       6.224   1.054  11.226  0.00  0.00    +0.000 NA
ATOM     19  H   UNL     1       5.780   1.367  10.350  0.00  0.00    +0.000 HD
ATOM     20  H   UNL     1       5.434   0.860  11.847  0.00  0.00    +0.000 HD
ENDBRANCH  16  18
ENDBRANCH  13  14
ENDBRANCH   2  13
TORSDOF 5
ENDMDL
MODEL 2
REMARK VINA RESULT:      -6.4      0.353      1.249
REMARK  Name = 
REMARK  6 active torsions:
REMARK  status: ('A' for Active; 'I' for Inactive)
REMARK    1  A    between atoms: C_1  and  O_2
REMARK    2  A    between atoms: O_2  and  C_3
REMARK    3  A    between atoms: C_6  and  N_7
REMARK    4  A    between atoms: C_8  and  C_10
REMARK    5  A    between atoms: C_10  and  C_11
REMARK    6  A    between atoms: N_13  and  N_14
REMARK                            x       y       z     vdW  Elec       q    Type
REMARK                         _______ _______ _______ _____ _____    ______ ____
ROOT
ATOM      1  N   UNL     1       5.553   4.579  14.530  0.00  0.00    +0.000 N 
ATOM      2  C   UNL     1       6.827   4.797  14.037  0.00  0.00    +0.000 C 
ATOM      3  O   UNL     1       7.789   5.216  14.680  0.00  0.00    +0.000 OA
ATOM      4  H   UNL     1       4.862   4.191  13.886  0.00  0.00    +0.000 HD
ENDROOT
BRANCH   1   8
ATOM      5  C   UNL     1       4.204   5.265  18.487  0.00  0.00    +0.000 A 
ATOM      6  C   UNL     1       4.520   6.344  17.668  0.00  0.00    +0.000 A 
ATOM      7  C   UNL     1       4.951   6.140  16.354  0.00  0.00    +0.000 A 
ATOM      8  C   UNL     1       5.097   4.850  15.842  0.00  0.00    +0.000 A 
ATOM      9  C   UNL     1       4.783   3.766  16.671  0.00  0.00    +0.000 A 
ATOM     10  C   UNL     1       4.338   3.970  17.989  0.00  0.00    +0.000 A 
BRANCH   5  12
ATOM     11  C   UNL     1       2.440   5.898  19.933  0.00  0.00    +0.000 C 
ATOM     12  O   UNL     1       3.819   5.606  19.753  0.00  0.00    +0.000 OA
ENDBRANCH   5  12
ENDBRANCH   1   8
BRANCH   2  13
ATOM     13  C   UNL     1       7.051   4.418  12.597  0.00  0.00    +0.000 C 
BRANCH  13  14
ATOM     14  C   UNL     1       6.205   3.286  12.095  0.00  0.00    +0.000 C 
ATOM     15  O   UNL     1       4.981   3.380  11.995  0.00  0.00    +0.000 OA
ATOM     16  N   UNL     1       6.913   2.146  11.744  0.00  0.00    +0.000 N 
ATOM     17  H   UNL     1       7.916   2.201  11.568  0.00  0.00    +0.000 HD
BRANCH  16  18
ATOM     18  N   UNL     1       6.210   1.043  11.212  0.00  0.00    +0.000 NA
ATOM     19  H   UNL     1       6.893   0.463  10.704  0.00  0.00    +0.000 HD
ATOM     20  H   UNL     1       5.587   1.391  10.478  0.00  0.00    +0.000 HD
ENDBRANCH  16  18
ENDBRANCH  13  14
ENDBRANCH   2  13
TORSDOF 5
ENDMDL
MODEL 3
REMARK VINA RESULT:      -6.3      2.037      3.033
REMARK  Name = 
REMARK  6 active torsions:
REMARK  status: ('A' for Active; 'I' for Inactive)
REMARK    1  A    between atoms: C_1  and  O_2
REMARK    2  A    between atoms: O_2  and  C_3
REMARK    3  A    between atoms: C_6  and  N_7
REMARK    4  A    between atoms: C_8  and  C_10
REMARK    5  A    between atoms: C_10  and  C_11
REMARK    6  A    between atoms: N_13  and  N_14
REMARK                            x       y       z     vdW  Elec       q    Type
REMARK                         _______ _______ _______ _____ _____    ______ ____
ROOT
ATOM      1  N   UNL     1       5.555   3.865  17.113  0.00  0.00    +0.000 N 
ATOM      2  C   UNL     1       5.890   5.006  16.405  0.00  0.00    +0.000 C 
ATOM      3  O   UNL     1       5.259   6.062  16.397  0.00  0.00    +0.000 OA
ATOM      4  H   UNL     1       6.198   3.073  17.054  0.00  0.00    +0.000 HD
ENDROOT
BRANCH   1   8
ATOM      5  C   UNL     1       2.036   3.246  19.388  0.00  0.00    +0.000 A 
ATOM      6  C   UNL     1       3.238   3.515  20.033  0.00  0.00    +0.000 A 
ATOM      7  C   UNL     1       4.407   3.739  19.301  0.00  0.00    +0.000 A 
ATOM      8  C   UNL     1       4.401   3.673  17.908  0.00  0.00    +0.000 A 
ATOM      9  C   UNL     1       3.190   3.396  17.260  0.00  0.00    +0.000 A 
ATOM     10  C   UNL     1       2.010   3.183  17.995  0.00  0.00    +0.000 A 
BRANCH   5  12
ATOM     11  C   UNL     1       1.296   2.735  21.578  0.00  0.00    +0.000 C 
ATOM     12  O   UNL     1       0.978   3.025  20.223  0.00  0.00    +0.000 OA
ENDBRANCH   5  12
ENDBRANCH   1   8
BRANCH   2  13
ATOM     13  C   UNL     1       7.183   4.950  15.636  0.00  0.00    +0.000 C 
BRANCH  13  14
ATOM     14  C   UNL     1       7.043   4.673  14.169  0.00  0.00    +0.000 C 
ATOM     15  O   UNL     1       7.550   5.404  13.316  0.00  0.00    +0.000 OA
ATOM     16  N   UNL     1       6.319   3.531  13.861  0.00  0.00    +0.000 N 
ATOM     17  H   UNL     1       6.168   2.815  14.572  0.00  0.00    +0.000 HD
BRANCH  16  18
ATOM     18  N   UNL     1       6.174   3.159  12.507  0.00  0.00    +0.000 NA
ATOM     19  H   UNL     1       6.834   2.387  12.332  0.00  0.00    +0.000 HD
ATOM     20  H   UNL     1       6.532   3.926  11.930  0.00  0.00    +0.000 HD
ENDBRANCH  16  18
ENDBRANCH  13  14
ENDBRANCH   2  13
TORSDOF 5
ENDMDL
MODEL 4
REMARK VINA RESULT:      -6.2      4.497      6.391
REMARK  Name = 
REMARK  6 active torsions:
REMARK  status: ('A' for Active; 'I' for Inactive)
REMARK    1  A    between atoms: C_1  and  O_2
REMARK    2  A    between atoms: O_2  and  C_3
REMARK    3  A    between atoms: C_6  and  N_7
REMARK    4  A    between atoms: C_8  and  C_10
REMARK    5  A    between atoms: C_10  and  C_11
REMARK    6  A    between atoms: N_13  and  N_14
REMARK                            x       y       z     vdW  Elec       q    Type
REMARK                         _______ _______ _______ _____ _____    ______ ____
ROOT
ATOM      1  N   UNL     1       5.587   3.941  19.104  0.00  0.00    +0.000 N 
ATOM      2  C   UNL     1       4.247   3.831  19.431  0.00  0.00    +0.000 C 
ATOM      3  O   UNL     1       3.397   4.710  19.297  0.00  0.00    +0.000 OA
ATOM      4  H   UNL     1       6.170   3.112  19.234  0.00  0.00    +0.000 HD
ENDROOT
BRANCH   1   8
ATOM      5  C   UNL     1       7.453   7.422  17.570  0.00  0.00    +0.000 A 
ATOM      6  C   UNL     1       8.010   6.762  18.661  0.00  0.00    +0.000 A 
ATOM      7  C   UNL     1       7.420   5.603  19.172  0.00  0.00    +0.000 A 
ATOM      8  C   UNL     1       6.245   5.095  18.616  0.00  0.00    +0.000 A 
ATOM      9  C   UNL     1       5.683   5.764  17.522  0.00  0.00    +0.000 A 
ATOM     10  C   UNL     1       6.283   6.924  16.999  0.00  0.00    +0.000 A 
BRANCH   5  12
ATOM     11  C   UNL     1       8.458   9.462  18.226  0.00  0.00    +0.000 C 
ATOM     12  O   UNL     1       8.118   8.552  17.188  0.00  0.00    +0.000 OA
ENDBRANCH   5  12
ENDBRANCH   1   8
BRANCH   2  13
ATOM     13  C   UNL     1       3.798   2.483  19.929  0.00  0.00    +0.000 C 
BRANCH  13  14
ATOM     14  C   UNL     1       2.318   2.248  19.892  0.00  0.00    +0.000 C 
ATOM     15  O   UNL     1       1.625   2.284  20.910  0.00  0.00    +0.000 OA
ATOM     16  N   UNL     1       1.802   2.006  18.627  0.00  0.00    +0.000 N 
ATOM     17  H   UNL     1       2.338   2.264  17.799  0.00  0.00    +0.000 HD
BRANCH  16  18
ATOM     18  N   UNL     1       0.410   1.823  18.482  0.00  0.00    +0.000 NA
ATOM     19  H   UNL     1       0.266   0.878  18.097  0.00  0.00    +0.000 HD
ATOM     20  H   UNL     1       0.086   2.445  17.736  0.00  0.00    +0.000 HD
ENDBRANCH  16  18
ENDBRANCH  13  14
ENDBRANCH   2  13
TORSDOF 5
ENDMDL
MODEL 5
REMARK VINA RESULT:      -6.2      3.733      6.881
REMARK  Name = 
REMARK  6 active torsions:
REMARK  status: ('A' for Active; 'I' for Inactive)
REMARK    1  A    between atoms: C_1  and  O_2
REMARK    2  A    between atoms: O_2  and  C_3
REMARK    3  A    between atoms: C_6  and  N_7
REMARK    4  A    between atoms: C_8  and  C_10
REMARK    5  A    between atoms: C_10  and  C_11
REMARK    6  A    between atoms: N_13  and  N_14
REMARK                            x       y       z     vdW  Elec       q    Type
REMARK                         _______ _______ _______ _____ _____    ______ ____
ROOT
ATOM      1  N   UNL     1       4.203   4.485  19.443  0.00  0.00    +0.000 N 
ATOM      2  C   UNL     1       3.100   5.225  19.830  0.00  0.00    +0.000 C 
ATOM      3  O   UNL     1       2.646   6.207  19.243  0.00  0.00    +0.000 OA
ATOM      4  H   UNL     1       4.441   3.669  20.010  0.00  0.00    +0.000 HD
ENDROOT
BRANCH   1   8
ATOM      5  C   UNL     1       6.838   5.299  16.227  0.00  0.00    +0.000 A 
ATOM      6  C   UNL     1       5.626   4.662  15.984  0.00  0.00    +0.000 A 
ATOM      7  C   UNL     1       4.735   4.399  17.028  0.00  0.00    +0.000 A 
ATOM      8  C   UNL     1       5.051   4.747  18.341  0.00  0.00    +0.000 A 
ATOM      9  C   UNL     1       6.275   5.383  18.585  0.00  0.00    +0.000 A 
ATOM     10  C   UNL     1       7.167   5.659  17.533  0.00  0.00    +0.000 A 
BRANCH   5  12
ATOM     11  C   UNL     1       7.154   4.878  13.919  0.00  0.00    +0.000 C 
ATOM     12  O   UNL     1       7.622   5.473  15.122  0.00  0.00    +0.000 OA
ENDBRANCH   5  12
ENDBRANCH   1   8
BRANCH   2  13
ATOM     13  C   UNL     1       2.365   4.726  21.046  0.00  0.00    +0.000 C 
BRANCH  13  14
ATOM     14  C   UNL     1       1.490   3.530  20.818  0.00  0.00    +0.000 C 
ATOM     15  O   UNL     1       1.247   2.719  21.714  0.00  0.00    +0.000 OA
ATOM     16  N   UNL     1       0.973   3.426  19.535  0.00  0.00    +0.000 N 
ATOM     17  H   UNL     1       0.958   4.242  18.923  0.00  0.00    +0.000 HD
BRANCH  16  18
ATOM     18  N   UNL     1       0.098   2.360  19.237  0.00  0.00    +0.000 NA
ATOM     19  H   UNL     1      -0.386   2.600  18.359  0.00  0.00    +0.000 HD
ATOM     20  H   UNL     1      -0.649   2.360  19.938  0.00  0.00    +0.000 HD
ENDBRANCH  16  18
ENDBRANCH  13  14
ENDBRANCH   2  13
TORSDOF 5
ENDMDL
MODEL 6
REMARK VINA RESULT:      -6.2      4.372      6.667
REMARK  Name = 
REMARK  6 active torsions:
REMARK  status: ('A' for Active; 'I' for Inactive)
REMARK    1  A    between atoms: C_1  and  O_2
REMARK    2  A    between atoms: O_2  and  C_3
REMARK    3  A    between atoms: C_6  and  N_7
REMARK    4  A    between atoms: C_8  and  C_10
REMARK    5  A    between atoms: C_10  and  C_11
REMARK    6  A    between atoms: N_13  and  N_14
REMARK                            x       y       z     vdW  Elec       q    Type
REMARK                         _______ _______ _______ _____ _____    ______ ____
ROOT
ATOM      1  N   UNL     1       3.174   4.379  18.641  0.00  0.00    +0.000 N 
ATOM      2  C   UNL     1       2.359   3.550  17.891  0.00  0.00    +0.000 C 
ATOM      3  O   UNL     1       2.540   3.229  16.717  0.00  0.00    +0.000 OA
ATOM      4  H   UNL     1       2.919   4.526  19.619  0.00  0.00    +0.000 HD
ENDROOT
BRANCH   1   8
ATOM      5  C   UNL     1       6.554   6.520  17.249  0.00  0.00    +0.000 A 
ATOM      6  C   UNL     1       6.729   5.404  18.060  0.00  0.00    +0.000 A 
ATOM      7  C   UNL     1       5.628   4.673  18.516  0.00  0.00    +0.000 A 
ATOM      8  C   UNL     1       4.328   5.062  18.190  0.00  0.00    +0.000 A 
ATOM      9  C   UNL     1       4.155   6.190  17.378  0.00  0.00    +0.000 A 
ATOM     10  C   UNL     1       5.262   6.918  16.908  0.00  0.00    +0.000 A 
BRANCH   5  12
ATOM     11  C   UNL     1       8.035   8.329  17.625  0.00  0.00    +0.000 C 
ATOM     12  O   UNL     1       7.712   7.153  16.895  0.00  0.00    +0.000 OA
ENDBRANCH   5  12
ENDBRANCH   1   8
BRANCH   2  13
ATOM     13  C   UNL     1       1.188   2.943  18.617  0.00  0.00    +0.000 C 
BRANCH  13  14
ATOM     14  C   UNL     1       1.094   3.283  20.075  0.00  0.00    +0.000 C 
ATOM     15  O   UNL     1       0.614   4.348  20.467  0.00  0.00    +0.000 OA
ATOM     16  N   UNL     1       1.572   2.301  20.931  0.00  0.00    +0.000 N 
ATOM     17  H   UNL     1       1.689   1.345  20.596  0.00  0.00    +0.000 HD
BRANCH  16  18
ATOM     18  N   UNL     1       1.480   2.507  22.324  0.00  0.00    +0.000 NA
ATOM     19  H   UNL     1       0.515   2.808  22.524  0.00  0.00    +0.000 HD
ATOM     20  H   UNL     1       2.047   3.327  22.559  0.00  0.00    +0.000 HD
ENDBRANCH  16  18
ENDBRANCH  13  14
ENDBRANCH   2  13
TORSDOF 5
ENDMDL
MODEL 7
REMARK VINA RESULT:      -6.2      3.673      6.600
REMARK  Name = 
REMARK  6 active torsions:
REMARK  status: ('A' for Active; 'I' for Inactive)
REMARK    1  A    between atoms: C_1  and  O_2
REMARK    2  A    between atoms: O_2  and  C_3
REMARK    3  A    between atoms: C_6  and  N_7
REMARK    4  A    between atoms: C_8  and  C_10
REMARK    5  A    between atoms: C_10  and  C_11
REMARK    6  A    between atoms: N_13  and  N_14
REMARK                            x       y       z     vdW  Elec       q    Type
REMARK                         _______ _______ _______ _____ _____    ______ ____
ROOT
ATOM      1  N   UNL     1       4.099   3.905  18.896  0.00  0.00    +0.000 N 
ATOM      2  C   UNL     1       4.197   2.887  19.828  0.00  0.00    +0.000 C 
ATOM      3  O   UNL     1       5.157   2.132  19.975  0.00  0.00    +0.000 OA
ATOM      4  H   UNL     1       3.254   4.478  18.917  0.00  0.00    +0.000 HD
ENDROOT
BRANCH   1   8
ATOM      5  C   UNL     1       6.851   4.868  15.823  0.00  0.00    +0.000 A 
ATOM      6  C   UNL     1       7.188   5.102  17.151  0.00  0.00    +0.000 A 
ATOM      7  C   UNL     1       6.302   4.777  18.181  0.00  0.00    +0.000 A 
ATOM      8  C   UNL     1       5.048   4.232  17.900  0.00  0.00    +0.000 A 
ATOM      9  C   UNL     1       4.709   4.002  16.560  0.00  0.00    +0.000 A 
ATOM     10  C   UNL     1       5.605   4.318  15.524  0.00  0.00    +0.000 A 
BRANCH   5  12
ATOM     11  C   UNL     1       7.486   5.036  13.548  0.00  0.00    +0.000 C 
ATOM     12  O   UNL     1       7.798   5.254  14.918  0.00  0.00    +0.000 OA
ENDBRANCH   5  12
ENDBRANCH   1   8
BRANCH   2  13
ATOM     13  C   UNL     1       3.041   2.753  20.783  0.00  0.00    +0.000 C 
BRANCH  13  14
ATOM     14  C   UNL     1       1.682   2.767  20.149  0.00  0.00    +0.000 C 
ATOM     15  O   UNL     1       0.791   3.527  20.532  0.00  0.00    +0.000 OA
ATOM     16  N   UNL     1       1.525   1.876  19.098  0.00  0.00    +0.000 N 
ATOM     17  H   UNL     1       2.344   1.484  18.633  0.00  0.00    +0.000 HD
BRANCH  16  18
ATOM     18  N   UNL     1       0.296   1.851  18.403  0.00  0.00    +0.000 NA
ATOM     19  H   UNL     1      -0.359   1.288  18.964  0.00  0.00    +0.000 HD
ATOM     20  H   UNL     1       0.427   1.300  17.550  0.00  0.00    +0.000 HD
ENDBRANCH  16  18
ENDBRANCH  13  14
ENDBRANCH   2  13
TORSDOF 5
ENDMDL
MODEL 8
REMARK VINA RESULT:      -6.2      4.421      6.339
REMARK  Name = 
REMARK  6 active torsions:
REMARK  status: ('A' for Active; 'I' for Inactive)
REMARK    1  A    between atoms: C_1  and  O_2
REMARK    2  A    between atoms: O_2  and  C_3
REMARK    3  A    between atoms: C_6  and  N_7
REMARK    4  A    between atoms: C_8  and  C_10
REMARK    5  A    between atoms: C_10  and  C_11
REMARK    6  A    between atoms: N_13  and  N_14
REMARK                            x       y       z     vdW  Elec       q    Type
REMARK                         _______ _______ _______ _____ _____    ______ ____
ROOT
ATOM      1  N   UNL     1       5.503   3.876  18.678  0.00  0.00    +0.000 N 
ATOM      2  C   UNL     1       4.351   3.752  19.435  0.00  0.00    +0.000 C 
ATOM      3  O   UNL     1       3.672   4.679  19.875  0.00  0.00    +0.000 OA
ATOM      4  H   UNL     1       5.941   3.015  18.347  0.00  0.00    +0.000 HD
ENDROOT
BRANCH   1   8
ATOM      5  C   UNL     1       7.546   7.451  17.680  0.00  0.00    +0.000 A 
ATOM      6  C   UNL     1       6.411   7.081  16.966  0.00  0.00    +0.000 A 
ATOM      7  C   UNL     1       5.713   5.914  17.290  0.00  0.00    +0.000 A 
ATOM      8  C   UNL     1       6.151   5.081  18.320  0.00  0.00    +0.000 A 
ATOM      9  C   UNL     1       7.298   5.454  19.034  0.00  0.00    +0.000 A 
ATOM     10  C   UNL     1       7.994   6.634  18.717  0.00  0.00    +0.000 A 
BRANCH   5  12
ATOM     11  C   UNL     1       8.522   9.531  18.249  0.00  0.00    +0.000 C 
ATOM     12  O   UNL     1       8.143   8.600  17.245  0.00  0.00    +0.000 OA
ENDBRANCH   5  12
ENDBRANCH   1   8
BRANCH   2  13
ATOM     13  C   UNL     1       3.866   2.346  19.671  0.00  0.00    +0.000 C 
BRANCH  13  14
ATOM     14  C   UNL     1       2.376   2.179  19.691  0.00  0.00    +0.000 C 
ATOM     15  O   UNL     1       1.725   2.250  20.735  0.00  0.00    +0.000 OA
ATOM     16  N   UNL     1       1.801   1.957  18.448  0.00  0.00    +0.000 N 
ATOM     17  H   UNL     1       2.316   2.188  17.599  0.00  0.00    +0.000 HD
BRANCH  16  18
ATOM     18  N   UNL     1       0.397   1.837  18.358  0.00  0.00    +0.000 NA
ATOM     19  H   UNL     1       0.016   2.790  18.262  0.00  0.00    +0.000 HD
ATOM     20  H   UNL     1       0.049   1.523  19.268  0.00  0.00    +0.000 HD
ENDBRANCH  16  18
ENDBRANCH  13  14
ENDBRANCH   2  13
TORSDOF 5
ENDMDL
MODEL 9
REMARK VINA RESULT:      -6.1      2.049      3.020
REMARK  Name = 
REMARK  6 active torsions:
REMARK  status: ('A' for Active; 'I' for Inactive)
REMARK    1  A    between atoms: C_1  and  O_2
REMARK    2  A    between atoms: O_2  and  C_3
REMARK    3  A    between atoms: C_6  and  N_7
REMARK    4  A    between atoms: C_8  and  C_10
REMARK    5  A    between atoms: C_10  and  C_11
REMARK    6  A    between atoms: N_13  and  N_14
REMARK                            x       y       z     vdW  Elec       q    Type
REMARK                         _______ _______ _______ _____ _____    ______ ____
ROOT
ATOM      1  N   UNL     1       5.599   3.843  17.061  0.00  0.00    +0.000 N 
ATOM      2  C   UNL     1       5.806   4.951  16.258  0.00  0.00    +0.000 C 
ATOM      3  O   UNL     1       5.049   5.913  16.145  0.00  0.00    +0.000 OA
ATOM      4  H   UNL     1       6.336   3.137  17.084  0.00  0.00    +0.000 HD
ENDROOT
BRANCH   1   8
ATOM      5  C   UNL     1       2.245   3.090  19.537  0.00  0.00    +0.000 A 
ATOM      6  C   UNL     1       2.107   3.042  18.154  0.00  0.00    +0.000 A 
ATOM      7  C   UNL     1       3.205   3.270  17.319  0.00  0.00    +0.000 A 
ATOM      8  C   UNL     1       4.457   3.577  17.853  0.00  0.00    +0.000 A 
ATOM      9  C   UNL     1       4.591   3.631  19.247  0.00  0.00    +0.000 A 
ATOM     10  C   UNL     1       3.490   3.389  20.088  0.00  0.00    +0.000 A 
BRANCH   5  12
ATOM     11  C   UNL     1       1.224   2.690  21.635  0.00  0.00    +0.000 C 
ATOM     12  O   UNL     1       1.089   2.871  20.232  0.00  0.00    +0.000 OA
ENDBRANCH   5  12
ENDBRANCH   1   8
BRANCH   2  13
ATOM     13  C   UNL     1       7.116   4.991  15.516  0.00  0.00    +0.000 C 
BRANCH  13  14
ATOM     14  C   UNL     1       7.031   4.678  14.052  0.00  0.00    +0.000 C 
ATOM     15  O   UNL     1       7.567   5.390  13.200  0.00  0.00    +0.000 OA
ATOM     16  N   UNL     1       6.322   3.526  13.746  0.00  0.00    +0.000 N 
ATOM     17  H   UNL     1       6.147   2.827  14.467  0.00  0.00    +0.000 HD
BRANCH  16  18
ATOM     18  N   UNL     1       6.229   3.120  12.397  0.00  0.00    +0.000 NA
ATOM     19  H   UNL     1       6.698   3.841  11.829  0.00  0.00    +0.000 HD
ATOM     20  H   UNL     1       5.247   3.185  12.115  0.00  0.00    +0.000 HD
ENDBRANCH  16  18
ENDBRANCH  13  14
ENDBRANCH   2  13
TORSDOF 5
ENDMDL
