MODEL 1
REMARK VINA RESULT:      -7.4      0.000      0.000
REMARK  Name = 
REMARK  7 active torsions:
REMARK  status: ('A' for Active; 'I' for Inactive)
REMARK    1  A    between atoms: C_1  and  C_2
REMARK    2  A    between atoms: C_2  and  C_3
REMARK    3  A    between atoms: C_2  and  N_13
REMARK    4  A    between atoms: N_5  and  C_6
REMARK    5  A    between atoms: N_5  and  C_7
REMARK    6  A    between atoms: C_17  and  C_18
REMARK    7  A    between atoms: C_18  and  C_19
REMARK                            x       y       z     vdW  Elec       q    Type
REMARK                         _______ _______ _______ _____ _____    ______ ____
ROOT
ATOM      1  N   UNL     1       5.793   6.253  17.779  0.00  0.00    +0.000 NA
ATOM      2  C   UNL     1       6.724   5.249  18.328  0.00  0.00    +0.000 C 
ATOM      3  C   UNL     1       7.697   5.850  19.344  0.00  0.00    +0.000 C 
ATOM      4  C   UNL     1       8.476   7.013  18.744  0.00  0.00    +0.000 C 
ATOM      5  C   UNL     1       7.503   8.063  18.193  0.00  0.00    +0.000 C 
ATOM      6  C   UNL     1       6.519   7.403  17.213  0.00  0.00    +0.000 C 
ENDROOT
BRANCH   1   8
ATOM      7  C   UNL     1       5.445   5.440  15.358  0.00  0.00    +0.000 C 
ATOM      8  C   UNL     1       4.857   5.680  16.756  0.00  0.00    +0.000 C 
BRANCH   8   9
ATOM      9  C   UNL     1       4.210   4.345  17.245  0.00  0.00    +0.000 C 
ATOM     10  O   UNL     1       4.519   3.278  16.700  0.00  0.00    +0.000 OA
ATOM     11  N   UNL     1       3.235   4.373  18.259  0.00  0.00    +0.000 N 
ATOM     12  C   UNL     1       2.798   5.601  18.910  0.00  0.00    +0.000 C 
BRANCH  11  13
ATOM     13  C   UNL     1       2.479   3.110  18.503  0.00  0.00    +0.000 C 
ATOM     14  C   UNL     1       3.090   2.137  19.528  0.00  0.00    +0.000 C 
ATOM     15  C   UNL     1       2.820   2.484  20.995  0.00  0.00    +0.000 C 
ATOM     16  C   UNL     1       1.367   2.842  21.282  0.00  0.00    +0.000 C 
ATOM     17  C   UNL     1       0.760   3.806  20.267  0.00  0.00    +0.000 C 
ATOM     18  C   UNL     1       0.993   3.353  18.830  0.00  0.00    +0.000 C 
ENDBRANCH  11  13
ENDBRANCH   8   9
ENDBRANCH   1   8
BRANCH   5  19
ATOM     19  C   UNL     1       8.231   9.208  17.468  0.00  0.00    +0.000 C 
BRANCH  19  20
ATOM     20  C   UNL     1       9.005  10.093  18.361  0.00  0.00    +0.000 A 
ATOM     21  N   UNL     1       9.768  11.113  18.026  0.00  0.00    +0.000 NA
ATOM     22  N   UNL     1      10.267  11.619  19.201  0.00  0.00    +0.000 NA
ATOM     23  N   UNL     1       9.821  10.931  20.243  0.00  0.00    +0.000 NA
ATOM     24  N   UNL     1       9.034   9.983  19.721  0.00  0.00    +0.000 N 
ATOM     25  H   UNL     1       8.576   9.317  20.334  0.00  0.00    +0.000 HD
ENDBRANCH  19  20
ENDBRANCH   5  19
TORSDOF 5
ENDMDL
MODEL 2
REMARK VINA RESULT:      -7.2      4.020      5.941
REMARK  Name = 
REMARK  7 active torsions:
REMARK  status: ('A' for Active; 'I' for Inactive)
REMARK    1  A    between atoms: C_1  and  C_2
REMARK    2  A    between atoms: C_2  and  C_3
REMARK    3  A    between atoms: C_2  and  N_13
REMARK    4  A    between atoms: N_5  and  C_6
REMARK    5  A    between atoms: N_5  and  C_7
REMARK    6  A    between atoms: C_17  and  C_18
REMARK    7  A    between atoms: C_18  and  C_19
REMARK                            x       y       z     vdW  Elec       q    Type
REMARK                         _______ _______ _______ _____ _____    ______ ____
ROOT
ATOM      1  N   UNL     1       3.920   5.830  18.161  0.00  0.00    +0.000 NA
ATOM      2  C   UNL     1       4.696   5.479  19.366  0.00  0.00    +0.000 C 
ATOM      3  C   UNL     1       6.204   5.454  19.102  0.00  0.00    +0.000 C 
ATOM      4  C   UNL     1       6.551   4.506  17.962  0.00  0.00    +0.000 C 
ATOM      5  C   UNL     1       5.756   4.887  16.707  0.00  0.00    +0.000 C 
ATOM      6  C   UNL     1       4.254   4.943  17.033  0.00  0.00    +0.000 C 
ENDROOT
BRANCH   1   8
ATOM      7  C   UNL     1       1.731   4.471  18.233  0.00  0.00    +0.000 C 
ATOM      8  C   UNL     1       2.439   5.824  18.400  0.00  0.00    +0.000 C 
BRANCH   8   9
ATOM      9  C   UNL     1       2.078   6.388  19.810  0.00  0.00    +0.000 C 
ATOM     10  O   UNL     1       1.977   5.617  20.772  0.00  0.00    +0.000 OA
ATOM     11  N   UNL     1       1.807   7.761  19.963  0.00  0.00    +0.000 N 
ATOM     12  C   UNL     1       1.867   8.712  18.862  0.00  0.00    +0.000 C 
BRANCH  11  13
ATOM     13  C   UNL     1       1.226   8.192  21.268  0.00  0.00    +0.000 C 
ATOM     14  C   UNL     1       1.766   9.511  21.852  0.00  0.00    +0.000 C 
ATOM     15  C   UNL     1       1.159  10.784  21.256  0.00  0.00    +0.000 C 
ATOM     16  C   UNL     1      -0.361  10.741  21.142  0.00  0.00    +0.000 C 
ATOM     17  C   UNL     1      -0.897   9.435  20.563  0.00  0.00    +0.000 C 
ATOM     18  C   UNL     1      -0.315   8.212  21.262  0.00  0.00    +0.000 C 
ENDBRANCH  11  13
ENDBRANCH   8   9
ENDBRANCH   1   8
BRANCH   5  19
ATOM     19  C   UNL     1       5.976   3.892  15.553  0.00  0.00    +0.000 C 
BRANCH  19  20
ATOM     20  C   UNL     1       6.748   4.443  14.421  0.00  0.00    +0.000 A 
ATOM     21  N   UNL     1       6.665   4.110  13.149  0.00  0.00    +0.000 NA
ATOM     22  N   UNL     1       7.575   4.898  12.488  0.00  0.00    +0.000 NA
ATOM     23  N   UNL     1       8.206   5.705  13.331  0.00  0.00    +0.000 NA
ATOM     24  N   UNL     1       7.690   5.423  14.533  0.00  0.00    +0.000 N 
ATOM     25  H   UNL     1       8.025   5.919  15.352  0.00  0.00    +0.000 HD
ENDBRANCH  19  20
ENDBRANCH   5  19
TORSDOF 5
ENDMDL
MODEL 3
REMARK VINA RESULT:      -7.2      4.065      6.376
REMARK  Name = 
REMARK  7 active torsions:
REMARK  status: ('A' for Active; 'I' for Inactive)
REMARK    1  A    between atoms: C_1  and  C_2
REMARK    2  A    between atoms: C_2  and  C_3
REMARK    3  A    between atoms: C_2  and  N_13
REMARK    4  A    between atoms: N_5  and  C_6
REMARK    5  A    between atoms: N_5  and  C_7
REMARK    6  A    between atoms: C_17  and  C_18
REMARK    7  A    between atoms: C_18  and  C_19
REMARK                            x       y       z     vdW  Elec       q    Type
REMARK                         _______ _______ _______ _____ _____    ______ ____
ROOT
ATOM      1  N   UNL     1       3.699   5.986  18.465  0.00  0.00    +0.000 NA
ATOM      2  C   UNL     1       4.544   5.479  19.563  0.00  0.00    +0.000 C 
ATOM      3  C   UNL     1       6.019   5.379  19.166  0.00  0.00    +0.000 C 
ATOM      4  C   UNL     1       6.201   4.517  17.924  0.00  0.00    +0.000 C 
ATOM      5  C   UNL     1       5.336   5.060  16.780  0.00  0.00    +0.000 C 
ATOM      6  C   UNL     1       3.873   5.184  17.242  0.00  0.00    +0.000 C 
ENDROOT
BRANCH   1   8
ATOM      7  C   UNL     1       1.659   4.807  19.510  0.00  0.00    +0.000 C 
ATOM      8  C   UNL     1       2.247   6.055  18.834  0.00  0.00    +0.000 C 
BRANCH   8   9
ATOM      9  C   UNL     1       1.937   7.288  19.740  0.00  0.00    +0.000 C 
ATOM     10  O   UNL     1       1.824   7.138  20.963  0.00  0.00    +0.000 OA
ATOM     11  N   UNL     1       1.724   8.549  19.153  0.00  0.00    +0.000 N 
ATOM     12  C   UNL     1       1.800   8.782  17.717  0.00  0.00    +0.000 C 
BRANCH  11  13
ATOM     13  C   UNL     1       1.187   9.623  20.038  0.00  0.00    +0.000 C 
ATOM     14  C   UNL     1       1.635  11.061  19.715  0.00  0.00    +0.000 C 
ATOM     15  C   UNL     1       0.874  11.738  18.572  0.00  0.00    +0.000 C 
ATOM     16  C   UNL     1      -0.639  11.573  18.662  0.00  0.00    +0.000 C 
ATOM     17  C   UNL     1      -1.084  10.150  18.982  0.00  0.00    +0.000 C 
ATOM     18  C   UNL     1      -0.346   9.571  20.184  0.00  0.00    +0.000 C 
ENDBRANCH  11  13
ENDBRANCH   8   9
ENDBRANCH   1   8
BRANCH   5  19
ATOM     19  C   UNL     1       5.386   4.161  15.532  0.00  0.00    +0.000 C 
BRANCH  19  20
ATOM     20  C   UNL     1       6.402   4.564  14.539  0.00  0.00    +0.000 A 
ATOM     21  N   UNL     1       6.508   4.171  13.287  0.00  0.00    +0.000 NA
ATOM     22  N   UNL     1       7.603   4.822  12.773  0.00  0.00    +0.000 NA
ATOM     23  N   UNL     1       8.163   5.605  13.686  0.00  0.00    +0.000 NA
ATOM     24  N   UNL     1       7.414   5.446  14.785  0.00  0.00    +0.000 N 
ATOM     25  H   UNL     1       7.654   5.948  15.633  0.00  0.00    +0.000 HD
ENDBRANCH  19  20
ENDBRANCH   5  19
TORSDOF 5
ENDMDL
MODEL 4
REMARK VINA RESULT:      -6.9      4.106      7.108
REMARK  Name = 
REMARK  7 active torsions:
REMARK  status: ('A' for Active; 'I' for Inactive)
REMARK    1  A    between atoms: C_1  and  C_2
REMARK    2  A    between atoms: C_2  and  C_3
REMARK    3  A    between atoms: C_2  and  N_13
REMARK    4  A    between atoms: N_5  and  C_6
REMARK    5  A    between atoms: N_5  and  C_7
REMARK    6  A    between atoms: C_17  and  C_18
REMARK    7  A    between atoms: C_18  and  C_19
REMARK                            x       y       z     vdW  Elec       q    Type
REMARK                         _______ _______ _______ _____ _____    ______ ____
ROOT
ATOM      1  N   UNL     1       6.171   4.945  14.967  0.00  0.00    +0.000 NA
ATOM      2  C   UNL     1       7.596   5.050  14.599  0.00  0.00    +0.000 C 
ATOM      3  C   UNL     1       7.798   5.235  13.094  0.00  0.00    +0.000 C 
ATOM      4  C   UNL     1       7.135   4.114  12.304  0.00  0.00    +0.000 C 
ATOM      5  C   UNL     1       5.650   4.024  12.675  0.00  0.00    +0.000 C 
ATOM      6  C   UNL     1       5.497   3.883  14.199  0.00  0.00    +0.000 C 
ENDROOT
BRANCH   1   8
ATOM      7  C   UNL     1       7.026   5.331  17.367  0.00  0.00    +0.000 C 
ATOM      8  C   UNL     1       5.963   4.728  16.436  0.00  0.00    +0.000 C 
BRANCH   8   9
ATOM      9  C   UNL     1       4.564   5.239  16.905  0.00  0.00    +0.000 C 
ATOM     10  O   UNL     1       4.294   6.444  16.831  0.00  0.00    +0.000 OA
ATOM     11  N   UNL     1       3.645   4.334  17.468  0.00  0.00    +0.000 N 
ATOM     12  C   UNL     1       3.920   2.912  17.622  0.00  0.00    +0.000 C 
BRANCH  11  13
ATOM     13  C   UNL     1       2.438   4.918  18.123  0.00  0.00    +0.000 C 
ATOM     14  C   UNL     1       1.147   4.082  18.044  0.00  0.00    +0.000 C 
ATOM     15  C   UNL     1       1.045   2.943  19.062  0.00  0.00    +0.000 C 
ATOM     16  C   UNL     1       1.422   3.355  20.480  0.00  0.00    +0.000 C 
ATOM     17  C   UNL     1       2.701   4.183  20.561  0.00  0.00    +0.000 C 
ATOM     18  C   UNL     1       2.695   5.350  19.580  0.00  0.00    +0.000 C 
ENDBRANCH  11  13
ENDBRANCH   8   9
ENDBRANCH   1   8
BRANCH   5  19
ATOM     19  C   UNL     1       4.951   2.832  11.996  0.00  0.00    +0.000 C 
BRANCH  19  20
ATOM     20  C   UNL     1       3.988   3.217  10.944  0.00  0.00    +0.000 A 
ATOM     21  N   UNL     1       3.162   2.435  10.280  0.00  0.00    +0.000 NA
ATOM     22  N   UNL     1       2.473   3.253   9.418  0.00  0.00    +0.000 NA
ATOM     23  N   UNL     1       2.860   4.514   9.547  0.00  0.00    +0.000 NA
ATOM     24  N   UNL     1       3.801   4.493  10.498  0.00  0.00    +0.000 N 
ATOM     25  H   UNL     1       4.259   5.356  10.771  0.00  0.00    +0.000 HD
ENDBRANCH  19  20
ENDBRANCH   5  19
TORSDOF 5
ENDMDL
MODEL 5
REMARK VINA RESULT:      -6.9      4.142      5.957
REMARK  Name = 
REMARK  7 active torsions:
REMARK  status: ('A' for Active; 'I' for Inactive)
REMARK    1  A    between atoms: C_1  and  C_2
REMARK    2  A    between atoms: C_2  and  C_3
REMARK    3  A    between atoms: C_2  and  N_13
REMARK    4  A    between atoms: N_5  and  C_6
REMARK    5  A    between atoms: N_5  and  C_7
REMARK    6  A    between atoms: C_17  and  C_18
REMARK    7  A    between atoms: C_18  and  C_19
REMARK                            x       y       z     vdW  Elec       q    Type
REMARK                         _______ _______ _______ _____ _____    ______ ____
ROOT
ATOM      1  N   UNL     1       3.262   7.705  18.161  0.00  0.00    +0.000 NA
ATOM      2  C   UNL     1       2.490   8.537  17.218  0.00  0.00    +0.000 C 
ATOM      3  C   UNL     1       1.906   9.785  17.885  0.00  0.00    +0.000 C 
ATOM      4  C   UNL     1       1.045   9.419  19.087  0.00  0.00    +0.000 C 
ATOM      5  C   UNL     1       1.859   8.571  20.072  0.00  0.00    +0.000 C 
ATOM      6  C   UNL     1       2.461   7.356  19.347  0.00  0.00    +0.000 C 
ENDROOT
BRANCH   1   8
ATOM      7  C   UNL     1       5.192   6.589  16.868  0.00  0.00    +0.000 C 
ATOM      8  C   UNL     1       3.810   6.462  17.525  0.00  0.00    +0.000 C 
BRANCH   8   9
ATOM      9  C   UNL     1       3.861   5.269  18.532  0.00  0.00    +0.000 C 
ATOM     10  O   UNL     1       4.808   5.173  19.321  0.00  0.00    +0.000 OA
ATOM     11  N   UNL     1       2.862   4.279  18.490  0.00  0.00    +0.000 N 
ATOM     12  C   UNL     1       1.744   4.314  17.556  0.00  0.00    +0.000 C 
BRANCH  11  13
ATOM     13  C   UNL     1       3.100   3.047  19.297  0.00  0.00    +0.000 C 
ATOM     14  C   UNL     1       3.525   3.261  20.762  0.00  0.00    +0.000 C 
ATOM     15  C   UNL     1       2.382   3.574  21.731  0.00  0.00    +0.000 C 
ATOM     16  C   UNL     1       1.175   2.656  21.572  0.00  0.00    +0.000 C 
ATOM     17  C   UNL     1       0.754   2.443  20.121  0.00  0.00    +0.000 C 
ATOM     18  C   UNL     1       1.927   2.050  19.231  0.00  0.00    +0.000 C 
ENDBRANCH  11  13
ENDBRANCH   8   9
ENDBRANCH   1   8
BRANCH   5  19
ATOM     19  C   UNL     1       1.007   8.070  21.253  0.00  0.00    +0.000 C 
BRANCH  19  20
ATOM     20  C   UNL     1       0.408   9.149  22.064  0.00  0.00    +0.000 A 
ATOM     21  N   UNL     1       0.809  10.399  22.171  0.00  0.00    +0.000 NA
ATOM     22  N   UNL     1      -0.068  11.009  23.033  0.00  0.00    +0.000 NA
ATOM     23  N   UNL     1      -0.996  10.158  23.450  0.00  0.00    +0.000 NA
ATOM     24  N   UNL     1      -0.701   9.001  22.845  0.00  0.00    +0.000 N 
ATOM     25  H   UNL     1      -1.278   8.184  23.016  0.00  0.00    +0.000 HD
ENDBRANCH  19  20
ENDBRANCH   5  19
TORSDOF 5
ENDMDL
MODEL 6
REMARK VINA RESULT:      -6.8      1.167      1.489
REMARK  Name = 
REMARK  7 active torsions:
REMARK  status: ('A' for Active; 'I' for Inactive)
REMARK    1  A    between atoms: C_1  and  C_2
REMARK    2  A    between atoms: C_2  and  C_3
REMARK    3  A    between atoms: C_2  and  N_13
REMARK    4  A    between atoms: N_5  and  C_6
REMARK    5  A    between atoms: N_5  and  C_7
REMARK    6  A    between atoms: C_17  and  C_18
REMARK    7  A    between atoms: C_18  and  C_19
REMARK                            x       y       z     vdW  Elec       q    Type
REMARK                         _______ _______ _______ _____ _____    ______ ____
ROOT
ATOM      1  N   UNL     1       5.569   6.102  17.929  0.00  0.00    +0.000 NA
ATOM      2  C   UNL     1       6.459   5.033  18.420  0.00  0.00    +0.000 C 
ATOM      3  C   UNL     1       7.537   5.561  19.370  0.00  0.00    +0.000 C 
ATOM      4  C   UNL     1       8.357   6.666  18.717  0.00  0.00    +0.000 C 
ATOM      5  C   UNL     1       7.428   7.784  18.226  0.00  0.00    +0.000 C 
ATOM      6  C   UNL     1       6.338   7.198  17.313  0.00  0.00    +0.000 C 
ENDROOT
BRANCH   1   8
ATOM      7  C   UNL     1       4.833   4.259  16.283  0.00  0.00    +0.000 C 
ATOM      8  C   UNL     1       4.530   5.599  16.970  0.00  0.00    +0.000 C 
BRANCH   8   9
ATOM      9  C   UNL     1       3.125   5.491  17.642  0.00  0.00    +0.000 C 
ATOM     10  O   UNL     1       2.387   6.484  17.685  0.00  0.00    +0.000 OA
ATOM     11  N   UNL     1       2.735   4.284  18.252  0.00  0.00    +0.000 N 
ATOM     12  C   UNL     1       3.575   3.095  18.273  0.00  0.00    +0.000 C 
BRANCH  11  13
ATOM     13  C   UNL     1       1.500   4.320  19.089  0.00  0.00    +0.000 C 
ATOM     14  C   UNL     1       0.800   2.970  19.329  0.00  0.00    +0.000 C 
ATOM     15  C   UNL     1       1.419   2.101  20.427  0.00  0.00    +0.000 C 
ATOM     16  C   UNL     1       1.732   2.866  21.709  0.00  0.00    +0.000 C 
ATOM     17  C   UNL     1       2.426   4.203  21.473  0.00  0.00    +0.000 C 
ATOM     18  C   UNL     1       1.705   5.051  20.430  0.00  0.00    +0.000 C 
ENDBRANCH  11  13
ENDBRANCH   8   9
ENDBRANCH   1   8
BRANCH   5  19
ATOM     19  C   UNL     1       8.187   8.875  17.451  0.00  0.00    +0.000 C 
BRANCH  19  20
ATOM     20  C   UNL     1       8.727   9.955  18.303  0.00  0.00    +0.000 A 
ATOM     21  N   UNL     1       8.862  11.230  18.002  0.00  0.00    +0.000 NA
ATOM     22  N   UNL     1       9.402  11.829  19.113  0.00  0.00    +0.000 NA
ATOM     23  N   UNL     1       9.594  10.947  20.084  0.00  0.00    +0.000 NA
ATOM     24  N   UNL     1       9.172   9.781  19.581  0.00  0.00    +0.000 N 
ATOM     25  H   UNL     1       9.226   8.940  20.147  0.00  0.00    +0.000 HD
ENDBRANCH  19  20
ENDBRANCH   5  19
TORSDOF 5
ENDMDL
MODEL 7
REMARK VINA RESULT:      -6.7      4.627      6.953
REMARK  Name = 
REMARK  7 active torsions:
REMARK  status: ('A' for Active; 'I' for Inactive)
REMARK    1  A    between atoms: C_1  and  C_2
REMARK    2  A    between atoms: C_2  and  C_3
REMARK    3  A    between atoms: C_2  and  N_13
REMARK    4  A    between atoms: N_5  and  C_6
REMARK    5  A    between atoms: N_5  and  C_7
REMARK    6  A    between atoms: C_17  and  C_18
REMARK    7  A    between atoms: C_18  and  C_19
REMARK                            x       y       z     vdW  Elec       q    Type
REMARK                         _______ _______ _______ _____ _____    ______ ____
ROOT
ATOM      1  N   UNL     1       2.540   7.091  19.670  0.00  0.00    +0.000 NA
ATOM      2  C   UNL     1       2.340   7.399  18.242  0.00  0.00    +0.000 C 
ATOM      3  C   UNL     1       2.075   8.887  17.997  0.00  0.00    +0.000 C 
ATOM      4  C   UNL     1       0.885   9.378  18.809  0.00  0.00    +0.000 C 
ATOM      5  C   UNL     1       1.107   9.074  20.296  0.00  0.00    +0.000 C 
ATOM      6  C   UNL     1       1.413   7.578  20.485  0.00  0.00    +0.000 C 
ENDROOT
BRANCH   1   8
ATOM      7  C   UNL     1       1.539   4.823  20.375  0.00  0.00    +0.000 C 
ATOM      8  C   UNL     1       2.766   5.630  19.924  0.00  0.00    +0.000 C 
BRANCH   8   9
ATOM      9  C   UNL     1       3.386   4.915  18.682  0.00  0.00    +0.000 C 
ATOM     10  O   UNL     1       2.662   4.247  17.934  0.00  0.00    +0.000 OA
ATOM     11  N   UNL     1       4.774   4.983  18.460  0.00  0.00    +0.000 N 
ATOM     12  C   UNL     1       5.685   5.717  19.329  0.00  0.00    +0.000 C 
BRANCH  11  13
ATOM     13  C   UNL     1       5.334   4.080  17.413  0.00  0.00    +0.000 C 
ATOM     14  C   UNL     1       4.726   4.209  16.004  0.00  0.00    +0.000 C 
ATOM     15  C   UNL     1       5.264   5.374  15.168  0.00  0.00    +0.000 C 
ATOM     16  C   UNL     1       6.783   5.495  15.193  0.00  0.00    +0.000 C 
ATOM     17  C   UNL     1       7.386   5.367  16.588  0.00  0.00    +0.000 C 
ATOM     18  C   UNL     1       6.872   4.138  17.329  0.00  0.00    +0.000 C 
ENDBRANCH  11  13
ENDBRANCH   8   9
ENDBRANCH   1   8
BRANCH   5  19
ATOM     19  C   UNL     1      -0.115   9.441  21.156  0.00  0.00    +0.000 C 
BRANCH  19  20
ATOM     20  C   UNL     1      -0.090  10.821  21.681  0.00  0.00    +0.000 A 
ATOM     21  N   UNL     1       0.653  11.829  21.272  0.00  0.00    +0.000 NA
ATOM     22  N   UNL     1       0.314  12.899  22.063  0.00  0.00    +0.000 NA
ATOM     23  N   UNL     1      -0.621  12.565  22.941  0.00  0.00    +0.000 NA
ATOM     24  N   UNL     1      -0.875  11.273  22.702  0.00  0.00    +0.000 N 
ATOM     25  H   UNL     1      -1.565  10.784  23.264  0.00  0.00    +0.000 HD
ENDBRANCH  19  20
ENDBRANCH   5  19
TORSDOF 5
ENDMDL
MODEL 8
REMARK VINA RESULT:      -6.7      4.170      6.366
REMARK  Name = 
REMARK  7 active torsions:
REMARK  status: ('A' for Active; 'I' for Inactive)
REMARK    1  A    between atoms: C_1  and  C_2
REMARK    2  A    between atoms: C_2  and  C_3
REMARK    3  A    between atoms: C_2  and  N_13
REMARK    4  A    between atoms: N_5  and  C_6
REMARK    5  A    between atoms: N_5  and  C_7
REMARK    6  A    between atoms: C_17  and  C_18
REMARK    7  A    between atoms: C_18  and  C_19
REMARK                            x       y       z     vdW  Elec       q    Type
REMARK                         _______ _______ _______ _____ _____    ______ ____
ROOT
ATOM      1  N   UNL     1       3.487   6.084  19.182  0.00  0.00    +0.000 NA
ATOM      2  C   UNL     1       2.939   4.716  19.127  0.00  0.00    +0.000 C 
ATOM      3  C   UNL     1       3.856   3.693  19.802  0.00  0.00    +0.000 C 
ATOM      4  C   UNL     1       5.255   3.721  19.201  0.00  0.00    +0.000 C 
ATOM      5  C   UNL     1       5.827   5.142  19.280  0.00  0.00    +0.000 C 
ATOM      6  C   UNL     1       4.851   6.138  18.629  0.00  0.00    +0.000 C 
ENDROOT
BRANCH   1   8
ATOM      7  C   UNL     1       1.530   6.521  17.562  0.00  0.00    +0.000 C 
ATOM      8  C   UNL     1       2.612   7.090  18.493  0.00  0.00    +0.000 C 
BRANCH   8   9
ATOM      9  C   UNL     1       1.919   8.049  19.511  0.00  0.00    +0.000 C 
ATOM     10  O   UNL     1       1.586   7.626  20.625  0.00  0.00    +0.000 OA
ATOM     11  N   UNL     1       1.620   9.371  19.131  0.00  0.00    +0.000 N 
ATOM     12  C   UNL     1       1.947   9.916  17.820  0.00  0.00    +0.000 C 
BRANCH  11  13
ATOM     13  C   UNL     1       0.739  10.153  20.047  0.00  0.00    +0.000 C 
ATOM     14  C   UNL     1       1.128  11.626  20.273  0.00  0.00    +0.000 C 
ATOM     15  C   UNL     1       0.693  12.591  19.166  0.00  0.00    +0.000 C 
ATOM     16  C   UNL     1      -0.752  12.400  18.721  0.00  0.00    +0.000 C 
ATOM     17  C   UNL     1      -1.138  10.942  18.496  0.00  0.00    +0.000 C 
ATOM     18  C   UNL     1      -0.753  10.054  19.675  0.00  0.00    +0.000 C 
ENDBRANCH  11  13
ENDBRANCH   8   9
ENDBRANCH   1   8
BRANCH   5  19
ATOM     19  C   UNL     1       7.193   5.260  18.581  0.00  0.00    +0.000 C 
BRANCH  19  20
ATOM     20  C   UNL     1       7.126   5.185  17.108  0.00  0.00    +0.000 A 
ATOM     21  N   UNL     1       7.399   6.133  16.237  0.00  0.00    +0.000 NA
ATOM     22  N   UNL     1       7.194   5.583  14.995  0.00  0.00    +0.000 NA
ATOM     23  N   UNL     1       6.806   4.319  15.094  0.00  0.00    +0.000 NA
ATOM     24  N   UNL     1       6.765   4.070  16.408  0.00  0.00    +0.000 N 
ATOM     25  H   UNL     1       6.484   3.152  16.737  0.00  0.00    +0.000 HD
ENDBRANCH  19  20
ENDBRANCH   5  19
TORSDOF 5
ENDMDL
MODEL 9
REMARK VINA RESULT:      -6.5      5.418      7.684
REMARK  Name = 
REMARK  7 active torsions:
REMARK  status: ('A' for Active; 'I' for Inactive)
REMARK    1  A    between atoms: C_1  and  C_2
REMARK    2  A    between atoms: C_2  and  C_3
REMARK    3  A    between atoms: C_2  and  N_13
REMARK    4  A    between atoms: N_5  and  C_6
REMARK    5  A    between atoms: N_5  and  C_7
REMARK    6  A    between atoms: C_17  and  C_18
REMARK    7  A    between atoms: C_18  and  C_19
REMARK                            x       y       z     vdW  Elec       q    Type
REMARK                         _______ _______ _______ _____ _____    ______ ____
ROOT
ATOM      1  N   UNL     1       1.850   7.609  20.289  0.00  0.00    +0.000 NA
ATOM      2  C   UNL     1       1.521   6.207  20.612  0.00  0.00    +0.000 C 
ATOM      3  C   UNL     1       2.687   5.255  20.336  0.00  0.00    +0.000 C 
ATOM      4  C   UNL     1       3.159   5.362  18.892  0.00  0.00    +0.000 C 
ATOM      5  C   UNL     1       3.519   6.817  18.568  0.00  0.00    +0.000 C 
ATOM      6  C   UNL     1       2.334   7.738  18.903  0.00  0.00    +0.000 C 
ENDROOT
BRANCH   1   8
ATOM      7  C   UNL     1      -0.374   8.064  21.509  0.00  0.00    +0.000 C 
ATOM      8  C   UNL     1       0.702   8.545  20.524  0.00  0.00    +0.000 C 
BRANCH   8   9
ATOM      9  C   UNL     1       1.189   9.954  20.988  0.00  0.00    +0.000 C 
ATOM     10  O   UNL     1       1.569  10.118  22.154  0.00  0.00    +0.000 OA
ATOM     11  N   UNL     1       1.131  11.041  20.096  0.00  0.00    +0.000 N 
ATOM     12  C   UNL     1       0.653  10.921  18.725  0.00  0.00    +0.000 C 
BRANCH  11  13
ATOM     13  C   UNL     1       1.368  12.397  20.670  0.00  0.00    +0.000 C 
ATOM     14  C   UNL     1       2.060  13.417  19.747  0.00  0.00    +0.000 C 
ATOM     15  C   UNL     1       1.143  14.100  18.728  0.00  0.00    +0.000 C 
ATOM     16  C   UNL     1      -0.167  14.603  19.325  0.00  0.00    +0.000 C 
ATOM     17  C   UNL     1      -0.853  13.594  20.240  0.00  0.00    +0.000 C 
ATOM     18  C   UNL     1       0.099  13.020  21.283  0.00  0.00    +0.000 C 
ENDBRANCH  11  13
ENDBRANCH   8   9
ENDBRANCH   1   8
BRANCH   5  19
ATOM     19  C   UNL     1       3.891   7.010  17.087  0.00  0.00    +0.000 C 
BRANCH  19  20
ATOM     20  C   UNL     1       5.302   6.705  16.775  0.00  0.00    +0.000 A 
ATOM     21  N   UNL     1       6.378   7.339  17.196  0.00  0.00    +0.000 NA
ATOM     22  N   UNL     1       7.449   6.682  16.641  0.00  0.00    +0.000 NA
ATOM     23  N   UNL     1       7.048   5.662  15.896  0.00  0.00    +0.000 NA
ATOM     24  N   UNL     1       5.712   5.674  15.981  0.00  0.00    +0.000 N 
ATOM     25  H   UNL     1       5.170   4.978  15.480  0.00  0.00    +0.000 HD
ENDBRANCH  19  20
ENDBRANCH   5  19
TORSDOF 5
ENDMDL
