MODEL 1
REMARK VINA RESULT:      -8.2      0.000      0.000
REMARK  Name = 
REMARK  3 active torsions:
REMARK  status: ('A' for Active; 'I' for Inactive)
REMARK    1  A    between atoms: C_5  and  C_6
REMARK    2  A    between atoms: C_6  and  N_7
REMARK    3  A    between atoms: C_10  and  C_11
REMARK                            x       y       z     vdW  Elec       q    Type
REMARK                         _______ _______ _______ _____ _____    ______ ____
ROOT
ATOM      1  N   UNL     1       1.521   7.088  20.055  0.00  0.00    +0.000 NA
ATOM      2  C   UNL     1       2.312   7.575  18.920  0.00  0.00    +0.000 C 
ATOM      3  C   UNL     1       2.416   6.582  17.767  0.00  0.00    +0.000 C 
ATOM      4  C   UNL     1       2.857   5.196  18.230  0.00  0.00    +0.000 C 
ATOM      5  C   UNL     1       1.942   4.724  19.362  0.00  0.00    +0.000 C 
ATOM      6  C   UNL     1       1.862   5.737  20.505  0.00  0.00    +0.000 C 
ENDROOT
BRANCH   4   7
ATOM      7  C   UNL     1       4.314   5.077  18.565  0.00  0.00    +0.000 A 
ATOM      8  N   UNL     1       4.844   5.231  19.836  0.00  0.00    +0.000 NA
ATOM      9  N   UNL     1       6.174   5.085  19.777  0.00  0.00    +0.000 NA
ATOM     10  N   UNL     1       6.480   4.846  18.494  0.00  0.00    +0.000 N 
ATOM     11  C   UNL     1       7.774   4.647  17.982  0.00  0.00    +0.000 A 
ATOM     12  N   UNL     1       7.988   4.424  16.705  0.00  0.00    +0.000 NA
ATOM     13  C   UNL     1       6.856   4.406  15.929  0.00  0.00    +0.000 A 
ATOM     14  N   UNL     1       6.837   4.192  14.579  0.00  0.00    +0.000 N 
ATOM     15  C   UNL     1       5.542   4.247  14.120  0.00  0.00    +0.000 A 
ATOM     16  C   UNL     1       4.700   4.497  15.192  0.00  0.00    +0.000 A 
ATOM     17  C   UNL     1       5.540   4.590  16.304  0.00  0.00    +0.000 A 
ATOM     18  C   UNL     1       5.361   4.835  17.724  0.00  0.00    +0.000 A 
ATOM     19  H   UNL     1       7.658   4.022  14.017  0.00  0.00    +0.000 HD
ENDBRANCH   4   7
BRANCH   1  20
ATOM     20  C   UNL     1       1.526   8.047  21.186  0.00  0.00    +0.000 C 
BRANCH  20  25
ATOM     21 BR   UNL     1      -1.423  12.087  22.972  0.00  0.00    +0.000 Br
ATOM     22  C   UNL     1      -0.585  10.901  21.798  0.00  0.00    +0.000 A 
ATOM     23  C   UNL     1      -0.659  10.971  20.427  0.00  0.00    +0.000 A 
ATOM     24  C   UNL     1       0.112   9.890  19.937  0.00  0.00    +0.000 A 
ATOM     25  C   UNL     1       0.626   9.238  21.041  0.00  0.00    +0.000 A 
ATOM     26  O   UNL     1       0.183   9.845  22.183  0.00  0.00    +0.000 OA
ENDBRANCH  20  25
ENDBRANCH   1  20
TORSDOF 3
ENDMDL
MODEL 2
REMARK VINA RESULT:      -7.9      0.966      1.103
REMARK  Name = 
REMARK  3 active torsions:
REMARK  status: ('A' for Active; 'I' for Inactive)
REMARK    1  A    between atoms: C_5  and  C_6
REMARK    2  A    between atoms: C_6  and  N_7
REMARK    3  A    between atoms: C_10  and  C_11
REMARK                            x       y       z     vdW  Elec       q    Type
REMARK                         _______ _______ _______ _____ _____    ______ ____
ROOT
ATOM      1  N   UNL     1       1.608   7.215  20.077  0.00  0.00    +0.000 NA
ATOM      2  C   UNL     1       2.420   7.712  18.961  0.00  0.00    +0.000 C 
ATOM      3  C   UNL     1       2.497   6.753  17.777  0.00  0.00    +0.000 C 
ATOM      4  C   UNL     1       2.891   5.340  18.196  0.00  0.00    +0.000 C 
ATOM      5  C   UNL     1       1.958   4.861  19.310  0.00  0.00    +0.000 C 
ATOM      6  C   UNL     1       1.905   5.840  20.484  0.00  0.00    +0.000 C 
ENDROOT
BRANCH   4   7
ATOM      7  C   UNL     1       4.342   5.164  18.533  0.00  0.00    +0.000 A 
ATOM      8  N   UNL     1       4.878   5.298  19.804  0.00  0.00    +0.000 NA
ATOM      9  N   UNL     1       6.201   5.100  19.746  0.00  0.00    +0.000 NA
ATOM     10  N   UNL     1       6.498   4.847  18.463  0.00  0.00    +0.000 N 
ATOM     11  C   UNL     1       7.784   4.597  17.952  0.00  0.00    +0.000 A 
ATOM     12  N   UNL     1       7.989   4.363  16.675  0.00  0.00    +0.000 NA
ATOM     13  C   UNL     1       6.858   4.389  15.899  0.00  0.00    +0.000 A 
ATOM     14  N   UNL     1       6.830   4.174  14.549  0.00  0.00    +0.000 N 
ATOM     15  C   UNL     1       5.539   4.279  14.090  0.00  0.00    +0.000 A 
ATOM     16  C   UNL     1       4.707   4.564  15.161  0.00  0.00    +0.000 A 
ATOM     17  C   UNL     1       5.550   4.626  16.274  0.00  0.00    +0.000 A 
ATOM     18  C   UNL     1       5.380   4.880  17.693  0.00  0.00    +0.000 A 
ATOM     19  H   UNL     1       7.644   3.971  13.988  0.00  0.00    +0.000 HD
ENDBRANCH   4   7
BRANCH   1  20
ATOM     20  C   UNL     1       1.639   8.136  21.238  0.00  0.00    +0.000 C 
BRANCH  20  25
ATOM     21 BR   UNL     1      -1.069  12.071  18.916  0.00  0.00    +0.000 Br
ATOM     22  C   UNL     1      -0.450  10.890  20.223  0.00  0.00    +0.000 A 
ATOM     23  C   UNL     1      -0.882  10.867  21.528  0.00  0.00    +0.000 A 
ATOM     24  C   UNL     1      -0.158   9.831  22.163  0.00  0.00    +0.000 A 
ATOM     25  C   UNL     1       0.659   9.271  21.201  0.00  0.00    +0.000 A 
ATOM     26  O   UNL     1       0.496   9.933  20.015  0.00  0.00    +0.000 OA
ENDBRANCH  20  25
ENDBRANCH   1  20
TORSDOF 3
ENDMDL
MODEL 3
REMARK VINA RESULT:      -7.9      2.009      2.744
REMARK  Name = 
REMARK  3 active torsions:
REMARK  status: ('A' for Active; 'I' for Inactive)
REMARK    1  A    between atoms: C_5  and  C_6
REMARK    2  A    between atoms: C_6  and  N_7
REMARK    3  A    between atoms: C_10  and  C_11
REMARK                            x       y       z     vdW  Elec       q    Type
REMARK                         _______ _______ _______ _____ _____    ______ ____
ROOT
ATOM      1  N   UNL     1       1.844   3.377  19.669  0.00  0.00    +0.000 NA
ATOM      2  C   UNL     1       2.194   3.876  18.334  0.00  0.00    +0.000 C 
ATOM      3  C   UNL     1       3.219   3.015  17.602  0.00  0.00    +0.000 C 
ATOM      4  C   UNL     1       4.450   2.724  18.454  0.00  0.00    +0.000 C 
ATOM      5  C   UNL     1       4.012   2.140  19.798  0.00  0.00    +0.000 C 
ATOM      6  C   UNL     1       2.989   3.026  20.511  0.00  0.00    +0.000 C 
ENDROOT
BRANCH   4   7
ATOM      7  C   UNL     1       5.404   3.873  18.598  0.00  0.00    +0.000 A 
ATOM      8  N   UNL     1       5.747   4.465  19.802  0.00  0.00    +0.000 NA
ATOM      9  N   UNL     1       6.597   5.473  19.570  0.00  0.00    +0.000 NA
ATOM     10  N   UNL     1       6.787   5.520  18.243  0.00  0.00    +0.000 N 
ATOM     11  C   UNL     1       7.599   6.444  17.562  0.00  0.00    +0.000 A 
ATOM     12  N   UNL     1       7.725   6.425  16.254  0.00  0.00    +0.000 NA
ATOM     13  C   UNL     1       7.004   5.441  15.624  0.00  0.00    +0.000 A 
ATOM     14  N   UNL     1       6.983   5.230  14.273  0.00  0.00    +0.000 N 
ATOM     15  C   UNL     1       6.156   4.172  13.982  0.00  0.00    +0.000 A 
ATOM     16  C   UNL     1       5.630   3.680  15.166  0.00  0.00    +0.000 A 
ATOM     17  C   UNL     1       6.174   4.483  16.171  0.00  0.00    +0.000 A 
ATOM     18  C   UNL     1       6.068   4.552  17.618  0.00  0.00    +0.000 A 
ATOM     19  H   UNL     1       7.501   5.779  13.603  0.00  0.00    +0.000 HD
ENDBRANCH   4   7
BRANCH   1  20
ATOM     20  C   UNL     1       0.919   4.293  20.377  0.00  0.00    +0.000 C 
BRANCH  20  25
ATOM     21 BR   UNL     1       0.629   9.341  22.007  0.00  0.00    +0.000 Br
ATOM     22  C   UNL     1       1.169   7.821  21.065  0.00  0.00    +0.000 A 
ATOM     23  C   UNL     1       2.161   7.799  20.113  0.00  0.00    +0.000 A 
ATOM     24  C   UNL     1       2.240   6.461  19.660  0.00  0.00    +0.000 A 
ATOM     25  C   UNL     1       1.303   5.743  20.378  0.00  0.00    +0.000 A 
ATOM     26  O   UNL     1       0.632   6.580  21.225  0.00  0.00    +0.000 OA
ENDBRANCH  20  25
ENDBRANCH   1  20
TORSDOF 3
ENDMDL
MODEL 4
REMARK VINA RESULT:      -7.5      2.493      3.122
REMARK  Name = 
REMARK  3 active torsions:
REMARK  status: ('A' for Active; 'I' for Inactive)
REMARK    1  A    between atoms: C_5  and  C_6
REMARK    2  A    between atoms: C_6  and  N_7
REMARK    3  A    between atoms: C_10  and  C_11
REMARK                            x       y       z     vdW  Elec       q    Type
REMARK                         _______ _______ _______ _____ _____    ______ ____
ROOT
ATOM      1  N   UNL     1       1.893   3.410  19.758  0.00  0.00    +0.000 NA
ATOM      2  C   UNL     1       2.224   3.877  18.408  0.00  0.00    +0.000 C 
ATOM      3  C   UNL     1       3.245   3.003  17.684  0.00  0.00    +0.000 C 
ATOM      4  C   UNL     1       4.488   2.739  18.528  0.00  0.00    +0.000 C 
ATOM      5  C   UNL     1       4.069   2.186  19.891  0.00  0.00    +0.000 C 
ATOM      6  C   UNL     1       3.050   3.085  20.595  0.00  0.00    +0.000 C 
ENDROOT
BRANCH   4   7
ATOM      7  C   UNL     1       5.437   3.895  18.632  0.00  0.00    +0.000 A 
ATOM      8  N   UNL     1       5.793   4.519  19.817  0.00  0.00    +0.000 NA
ATOM      9  N   UNL     1       6.635   5.524  19.549  0.00  0.00    +0.000 NA
ATOM     10  N   UNL     1       6.808   5.539  18.220  0.00  0.00    +0.000 N 
ATOM     11  C   UNL     1       7.606   6.451  17.506  0.00  0.00    +0.000 A 
ATOM     12  N   UNL     1       7.717   6.400  16.198  0.00  0.00    +0.000 NA
ATOM     13  C   UNL     1       6.993   5.398  15.601  0.00  0.00    +0.000 A 
ATOM     14  N   UNL     1       6.956   5.154  14.256  0.00  0.00    +0.000 N 
ATOM     15  C   UNL     1       6.131   4.085  14.001  0.00  0.00    +0.000 A 
ATOM     16  C   UNL     1       5.622   3.619  15.203  0.00  0.00    +0.000 A 
ATOM     17  C   UNL     1       6.174   4.450  16.182  0.00  0.00    +0.000 A 
ATOM     18  C   UNL     1       6.086   4.553  17.627  0.00  0.00    +0.000 A 
ATOM     19  H   UNL     1       7.463   5.689  13.566  0.00  0.00    +0.000 HD
ENDBRANCH   4   7
BRANCH   1  20
ATOM     20  C   UNL     1       0.972   4.339  20.455  0.00  0.00    +0.000 C 
BRANCH  20  25
ATOM     21 BR   UNL     1       2.626   8.699  17.913  0.00  0.00    +0.000 Br
ATOM     22  C   UNL     1       1.982   7.587  19.267  0.00  0.00    +0.000 A 
ATOM     23  C   UNL     1       1.636   8.007  20.530  0.00  0.00    +0.000 A 
ATOM     24  C   UNL     1       1.205   6.852  21.224  0.00  0.00    +0.000 A 
ATOM     25  C   UNL     1       1.297   5.798  20.335  0.00  0.00    +0.000 A 
ATOM     26  O   UNL     1       1.792   6.244  19.141  0.00  0.00    +0.000 OA
ENDBRANCH  20  25
ENDBRANCH   1  20
TORSDOF 3
ENDMDL
MODEL 5
REMARK VINA RESULT:      -7.3      4.224      8.039
REMARK  Name = 
REMARK  3 active torsions:
REMARK  status: ('A' for Active; 'I' for Inactive)
REMARK    1  A    between atoms: C_5  and  C_6
REMARK    2  A    between atoms: C_6  and  N_7
REMARK    3  A    between atoms: C_10  and  C_11
REMARK                            x       y       z     vdW  Elec       q    Type
REMARK                         _______ _______ _______ _____ _____    ______ ____
ROOT
ATOM      1  N   UNL     1       4.341   4.209  18.534  0.00  0.00    +0.000 NA
ATOM      2  C   UNL     1       4.448   5.201  19.609  0.00  0.00    +0.000 C 
ATOM      3  C   UNL     1       3.119   5.524  20.287  0.00  0.00    +0.000 C 
ATOM      4  C   UNL     1       2.024   5.872  19.283  0.00  0.00    +0.000 C 
ATOM      5  C   UNL     1       1.921   4.760  18.237  0.00  0.00    +0.000 C 
ATOM      6  C   UNL     1       3.266   4.462  17.572  0.00  0.00    +0.000 C 
ENDROOT
BRANCH   4   7
ATOM      7  C   UNL     1       2.135   7.239  18.676  0.00  0.00    +0.000 A 
ATOM      8  N   UNL     1       2.770   7.518  17.476  0.00  0.00    +0.000 NA
ATOM      9  N   UNL     1       2.707   8.835  17.242  0.00  0.00    +0.000 NA
ATOM     10  N   UNL     1       2.048   9.380  18.275  0.00  0.00    +0.000 N 
ATOM     11  C   UNL     1       1.772  10.748  18.443  0.00  0.00    +0.000 A 
ATOM     12  N   UNL     1       1.123  11.201  19.492  0.00  0.00    +0.000 NA
ATOM     13  C   UNL     1       0.749  10.237  20.395  0.00  0.00    +0.000 A 
ATOM     14  N   UNL     1       0.066  10.475  21.555  0.00  0.00    +0.000 N 
ATOM     15  C   UNL     1      -0.137   9.291  22.223  0.00  0.00    +0.000 A 
ATOM     16  C   UNL     1       0.419   8.260  21.482  0.00  0.00    +0.000 A 
ATOM     17  C   UNL     1       0.962   8.873  20.350  0.00  0.00    +0.000 A 
ATOM     18  C   UNL     1       1.684   8.427  19.173  0.00  0.00    +0.000 A 
ATOM     19  H   UNL     1      -0.234  11.388  21.863  0.00  0.00    +0.000 HD
ENDBRANCH   4   7
BRANCH   1  20
ATOM     20  C   UNL     1       5.636   3.997  17.845  0.00  0.00    +0.000 C 
BRANCH  20  25
ATOM     21 BR   UNL     1       6.106   3.395  12.589  0.00  0.00    +0.000 Br
ATOM     22  C   UNL     1       5.906   4.206  14.259  0.00  0.00    +0.000 A 
ATOM     23  C   UNL     1       5.749   5.557  14.461  0.00  0.00    +0.000 A 
ATOM     24  C   UNL     1       5.635   5.734  15.860  0.00  0.00    +0.000 A 
ATOM     25  C   UNL     1       5.711   4.476  16.426  0.00  0.00    +0.000 A 
ATOM     26  O   UNL     1       5.897   3.540  15.447  0.00  0.00    +0.000 OA
ENDBRANCH  20  25
ENDBRANCH   1  20
TORSDOF 3
ENDMDL
MODEL 6
REMARK VINA RESULT:      -7.2      4.607      8.361
REMARK  Name = 
REMARK  3 active torsions:
REMARK  status: ('A' for Active; 'I' for Inactive)
REMARK    1  A    between atoms: C_5  and  C_6
REMARK    2  A    between atoms: C_6  and  N_7
REMARK    3  A    between atoms: C_10  and  C_11
REMARK                            x       y       z     vdW  Elec       q    Type
REMARK                         _______ _______ _______ _____ _____    ______ ____
ROOT
ATOM      1  N   UNL     1       6.710   4.217  15.188  0.00  0.00    +0.000 NA
ATOM      2  C   UNL     1       7.271   5.202  16.119  0.00  0.00    +0.000 C 
ATOM      3  C   UNL     1       7.247   4.757  17.579  0.00  0.00    +0.000 C 
ATOM      4  C   UNL     1       5.870   4.264  18.014  0.00  0.00    +0.000 C 
ATOM      5  C   UNL     1       5.383   3.189  17.041  0.00  0.00    +0.000 C 
ATOM      6  C   UNL     1       5.414   3.666  15.587  0.00  0.00    +0.000 C 
ENDROOT
BRANCH   4   7
ATOM      7  C   UNL     1       4.857   5.346  18.247  0.00  0.00    +0.000 A 
ATOM      8  N   UNL     1       4.877   6.588  17.633  0.00  0.00    +0.000 NA
ATOM      9  N   UNL     1       3.847   7.316  18.082  0.00  0.00    +0.000 NA
ATOM     10  N   UNL     1       3.189   6.551  18.965  0.00  0.00    +0.000 N 
ATOM     11  C   UNL     1       2.048   6.933  19.692  0.00  0.00    +0.000 A 
ATOM     12  N   UNL     1       1.465   6.121  20.546  0.00  0.00    +0.000 NA
ATOM     13  C   UNL     1       2.063   4.891  20.665  0.00  0.00    +0.000 A 
ATOM     14  N   UNL     1       1.632   3.889  21.489  0.00  0.00    +0.000 N 
ATOM     15  C   UNL     1       2.461   2.800  21.366  0.00  0.00    +0.000 A 
ATOM     16  C   UNL     1       3.449   3.095  20.441  0.00  0.00    +0.000 A 
ATOM     17  C   UNL     1       3.179   4.399  20.019  0.00  0.00    +0.000 A 
ATOM     18  C   UNL     1       3.784   5.336  19.090  0.00  0.00    +0.000 A 
ATOM     19  H   UNL     1       0.826   3.955  22.093  0.00  0.00    +0.000 HD
ENDBRANCH   4   7
BRANCH   1  20
ATOM     20  C   UNL     1       6.670   4.729  13.798  0.00  0.00    +0.000 C 
BRANCH  20  25
ATOM     21 BR   UNL     1       2.981   3.178  10.304  0.00  0.00    +0.000 Br
ATOM     22  C   UNL     1       4.537   3.187  11.338  0.00  0.00    +0.000 A 
ATOM     23  C   UNL     1       5.517   2.223  11.289  0.00  0.00    +0.000 A 
ATOM     24  C   UNL     1       6.502   2.617  12.226  0.00  0.00    +0.000 A 
ATOM     25  C   UNL     1       6.070   3.809  12.776  0.00  0.00    +0.000 A 
ATOM     26  O   UNL     1       4.856   4.149  12.247  0.00  0.00    +0.000 OA
ENDBRANCH  20  25
ENDBRANCH   1  20
TORSDOF 3
ENDMDL
MODEL 7
REMARK VINA RESULT:      -7.2      4.229      8.300
REMARK  Name = 
REMARK  3 active torsions:
REMARK  status: ('A' for Active; 'I' for Inactive)
REMARK    1  A    between atoms: C_5  and  C_6
REMARK    2  A    between atoms: C_6  and  N_7
REMARK    3  A    between atoms: C_10  and  C_11
REMARK                            x       y       z     vdW  Elec       q    Type
REMARK                         _______ _______ _______ _____ _____    ______ ____
ROOT
ATOM      1  N   UNL     1       4.836   4.998  18.257  0.00  0.00    +0.000 NA
ATOM      2  C   UNL     1       4.687   5.846  19.445  0.00  0.00    +0.000 C 
ATOM      3  C   UNL     1       3.269   5.880  20.007  0.00  0.00    +0.000 C 
ATOM      4  C   UNL     1       2.226   6.191  18.938  0.00  0.00    +0.000 C 
ATOM      5  C   UNL     1       2.394   5.222  17.766  0.00  0.00    +0.000 C 
ATOM      6  C   UNL     1       3.824   5.214  17.221  0.00  0.00    +0.000 C 
ENDROOT
BRANCH   4   7
ATOM      7  C   UNL     1       2.172   7.627  18.508  0.00  0.00    +0.000 A 
ATOM      8  N   UNL     1       2.704   8.115  17.324  0.00  0.00    +0.000 NA
ATOM      9  N   UNL     1       2.504   9.437  17.266  0.00  0.00    +0.000 NA
ATOM     10  N   UNL     1       1.861   9.781  18.391  0.00  0.00    +0.000 N 
ATOM     11  C   UNL     1       1.469  11.084  18.747  0.00  0.00    +0.000 A 
ATOM     12  N   UNL     1       0.846  11.337  19.877  0.00  0.00    +0.000 NA
ATOM     13  C   UNL     1       0.620  10.235  20.664  0.00  0.00    +0.000 A 
ATOM     14  N   UNL     1      -0.011  10.258  21.877  0.00  0.00    +0.000 N 
ATOM     15  C   UNL     1      -0.062   8.986  22.396  0.00  0.00    +0.000 A 
ATOM     16  C   UNL     1       0.542   8.116  21.502  0.00  0.00    +0.000 A 
ATOM     17  C   UNL     1       0.955   8.916  20.434  0.00  0.00    +0.000 A 
ATOM     18  C   UNL     1       1.643   8.694  19.175  0.00  0.00    +0.000 A 
ATOM     19  H   UNL     1      -0.375  11.092  22.314  0.00  0.00    +0.000 HD
ENDBRANCH   4   7
BRANCH   1  20
ATOM     20  C   UNL     1       6.204   5.070  17.693  0.00  0.00    +0.000 C 
BRANCH  20  25
ATOM     21 BR   UNL     1       8.098   5.580  12.757  0.00  0.00    +0.000 Br
ATOM     22  C   UNL     1       7.132   4.926  14.214  0.00  0.00    +0.000 A 
ATOM     23  C   UNL     1       6.298   3.833  14.176  0.00  0.00    +0.000 A 
ATOM     24  C   UNL     1       5.775   3.693  15.484  0.00  0.00    +0.000 A 
ATOM     25  C   UNL     1       6.337   4.699  16.245  0.00  0.00    +0.000 A 
ATOM     26  O   UNL     1       7.154   5.468  15.464  0.00  0.00    +0.000 OA
ENDBRANCH  20  25
ENDBRANCH   1  20
TORSDOF 3
ENDMDL
MODEL 8
REMARK VINA RESULT:      -7.1      4.353      9.392
REMARK  Name = 
REMARK  3 active torsions:
REMARK  status: ('A' for Active; 'I' for Inactive)
REMARK    1  A    between atoms: C_5  and  C_6
REMARK    2  A    between atoms: C_6  and  N_7
REMARK    3  A    between atoms: C_10  and  C_11
REMARK                            x       y       z     vdW  Elec       q    Type
REMARK                         _______ _______ _______ _____ _____    ______ ____
ROOT
ATOM      1  N   UNL     1       1.866   8.261  19.865  0.00  0.00    +0.000 NA
ATOM      2  C   UNL     1       1.846   8.600  18.438  0.00  0.00    +0.000 C 
ATOM      3  C   UNL     1       1.782  10.099  18.158  0.00  0.00    +0.000 C 
ATOM      4  C   UNL     1       0.663  10.788  18.934  0.00  0.00    +0.000 C 
ATOM      5  C   UNL     1       0.792  10.450  20.420  0.00  0.00    +0.000 C 
ATOM      6  C   UNL     1       0.849   8.941  20.669  0.00  0.00    +0.000 C 
ENDROOT
BRANCH   4   7
ATOM      7  C   UNL     1      -0.717  10.551  18.396  0.00  0.00    +0.000 A 
ATOM      8  N   UNL     1      -1.032   9.617  17.422  0.00  0.00    +0.000 NA
ATOM      9  N   UNL     1      -2.343   9.683  17.159  0.00  0.00    +0.000 NA
ATOM     10  N   UNL     1      -2.848  10.642  17.949  0.00  0.00    +0.000 N 
ATOM     11  C   UNL     1      -4.192  11.054  17.984  0.00  0.00    +0.000 A 
ATOM     12  N   UNL     1      -4.604  12.010  18.786  0.00  0.00    +0.000 NA
ATOM     13  C   UNL     1      -3.622  12.562  19.570  0.00  0.00    +0.000 A 
ATOM     14  N   UNL     1      -3.818  13.566  20.477  0.00  0.00    +0.000 N 
ATOM     15  C   UNL     1      -2.625  13.883  21.082  0.00  0.00    +0.000 A 
ATOM     16  C   UNL     1      -1.632  13.067  20.563  0.00  0.00    +0.000 A 
ATOM     17  C   UNL     1      -2.277  12.254  19.627  0.00  0.00    +0.000 A 
ATOM     18  C   UNL     1      -1.876  11.194  18.720  0.00  0.00    +0.000 A 
ATOM     19  H   UNL     1      -4.710  14.001  20.662  0.00  0.00    +0.000 HD
ENDBRANCH   4   7
BRANCH   1  20
ATOM     20  C   UNL     1       1.834   6.796  20.087  0.00  0.00    +0.000 C 
BRANCH  20  25
ATOM     21 BR   UNL     1       6.309   4.774  18.062  0.00  0.00    +0.000 Br
ATOM     22  C   UNL     1       4.495   5.144  18.307  0.00  0.00    +0.000 A 
ATOM     23  C   UNL     1       3.477   4.616  17.547  0.00  0.00    +0.000 A 
ATOM     24  C   UNL     1       2.278   5.158  18.068  0.00  0.00    +0.000 A 
ATOM     25  C   UNL     1       2.636   5.969  19.127  0.00  0.00    +0.000 A 
ATOM     26  O   UNL     1       3.997   5.978  19.262  0.00  0.00    +0.000 OA
ENDBRANCH  20  25
ENDBRANCH   1  20
TORSDOF 3
ENDMDL
MODEL 9
REMARK VINA RESULT:      -7.1      3.491      7.616
REMARK  Name = 
REMARK  3 active torsions:
REMARK  status: ('A' for Active; 'I' for Inactive)
REMARK    1  A    between atoms: C_5  and  C_6
REMARK    2  A    between atoms: C_6  and  N_7
REMARK    3  A    between atoms: C_10  and  C_11
REMARK                            x       y       z     vdW  Elec       q    Type
REMARK                         _______ _______ _______ _____ _____    ______ ____
ROOT
ATOM      1  N   UNL     1       4.346   4.554  18.354  0.00  0.00    +0.000 NA
ATOM      2  C   UNL     1       4.390   5.466  19.502  0.00  0.00    +0.000 C 
ATOM      3  C   UNL     1       3.036   5.685  20.170  0.00  0.00    +0.000 C 
ATOM      4  C   UNL     1       1.947   6.063  19.170  0.00  0.00    +0.000 C 
ATOM      5  C   UNL     1       1.911   5.030  18.043  0.00  0.00    +0.000 C 
ATOM      6  C   UNL     1       3.280   4.836  17.389  0.00  0.00    +0.000 C 
ENDROOT
BRANCH   4   7
ATOM      7  C   UNL     1       2.014   7.475  18.669  0.00  0.00    +0.000 A 
ATOM      8  N   UNL     1       2.614   7.861  17.481  0.00  0.00    +0.000 NA
ATOM      9  N   UNL     1       2.517   9.190  17.351  0.00  0.00    +0.000 NA
ATOM     10  N   UNL     1       1.870   9.638  18.437  0.00  0.00    +0.000 N 
ATOM     11  C   UNL     1       1.568  10.982  18.716  0.00  0.00    +0.000 A 
ATOM     12  N   UNL     1       0.934  11.338  19.811  0.00  0.00    +0.000 NA
ATOM     13  C   UNL     1       0.603  10.298  20.644  0.00  0.00    +0.000 A 
ATOM     14  N   UNL     1      -0.058  10.430  21.834  0.00  0.00    +0.000 N 
ATOM     15  C   UNL     1      -0.220   9.193  22.412  0.00  0.00    +0.000 A 
ATOM     16  C   UNL     1       0.341   8.236  21.582  0.00  0.00    +0.000 A 
ATOM     17  C   UNL     1       0.844   8.948  20.489  0.00  0.00    +0.000 A 
ATOM     18  C   UNL     1       1.549   8.611  19.266  0.00  0.00    +0.000 A 
ATOM     19  H   UNL     1      -0.371  11.309  22.217  0.00  0.00    +0.000 HD
ENDBRANCH   4   7
BRANCH   1  20
ATOM     20  C   UNL     1       5.662   4.445  17.682  0.00  0.00    +0.000 C 
BRANCH  20  25
ATOM     21 BR   UNL     1       8.084   9.173  17.651  0.00  0.00    +0.000 Br
ATOM     22  C   UNL     1       7.685   7.400  18.081  0.00  0.00    +0.000 A 
ATOM     23  C   UNL     1       8.368   6.643  19.004  0.00  0.00    +0.000 A 
ATOM     24  C   UNL     1       7.741   5.375  19.013  0.00  0.00    +0.000 A 
ATOM     25  C   UNL     1       6.700   5.441  18.107  0.00  0.00    +0.000 A 
ATOM     26  O   UNL     1       6.677   6.675  17.520  0.00  0.00    +0.000 OA
ENDBRANCH  20  25
ENDBRANCH   1  20
TORSDOF 3
ENDMDL
