MODEL 1
REMARK VINA RESULT:      -8.0      0.000      0.000
REMARK  Name = 
REMARK  9 active torsions:
REMARK  status: ('A' for Active; 'I' for Inactive)
REMARK    1  A    between atoms: C_1  and  C_2
REMARK    2  A    between atoms: C_6  and  C_7
REMARK    3  A    between atoms: C_7  and  C_8
REMARK    4  A    between atoms: C_8  and  C_9
REMARK    5  A    between atoms: C_8  and  N_10
REMARK    6  A    between atoms: C_11  and  C_13
REMARK    7  A    between atoms: C_13  and  C_14
REMARK    8  A    between atoms: C_14  and  C_15
REMARK    9  A    between atoms: C_18  and  C_19
REMARK                            x       y       z     vdW  Elec       q    Type
REMARK                         _______ _______ _______ _____ _____    ______ ____
ROOT
ATOM      1  N   UNL     1       4.748   6.821  17.568  0.00  0.00    +0.000 N 
ATOM      2  C   UNL     1       5.398   5.685  17.142  0.00  0.00    +0.000 C 
ATOM      3  O   UNL     1       4.860   4.584  17.062  0.00  0.00    +0.000 OA
ATOM      4  H   UNL     1       5.207   7.720  17.478  0.00  0.00    +0.000 HD
ENDROOT
BRANCH   1   5
ATOM      5  C   UNL     1       3.318   6.810  17.857  0.00  0.00    +0.000 C 
ATOM      6  C   UNL     1       2.748   8.223  17.686  0.00  0.00    +0.000 C 
BRANCH   5   7
ATOM      7  C   UNL     1       3.004   6.278  19.266  0.00  0.00    +0.000 C 
BRANCH   7  13
ATOM      8  C   UNL     1       1.532   2.510  21.968  0.00  0.00    +0.000 C 
ATOM      9  C   UNL     1       1.549   3.168  20.621  0.00  0.00    +0.000 A 
ATOM     10  C   UNL     1       0.895   2.592  19.540  0.00  0.00    +0.000 A 
ATOM     11  C   UNL     1       0.980   3.217  18.300  0.00  0.00    +0.000 A 
ATOM     12  C   UNL     1       1.695   4.403  18.177  0.00  0.00    +0.000 A 
ATOM     13  C   UNL     1       2.302   4.941  19.309  0.00  0.00    +0.000 A 
ATOM     14  N   UNL     1       2.242   4.330  20.520  0.00  0.00    +0.000 NA
ENDBRANCH   7  13
ENDBRANCH   5   7
ENDBRANCH   1   5
BRANCH   2  15
ATOM     15  C   UNL     1       6.850   5.886  16.782  0.00  0.00    +0.000 C 
BRANCH  15  16
ATOM     16  C   UNL     1       7.634   6.363  17.998  0.00  0.00    +0.000 C 
BRANCH  16  17
ATOM     17  C   UNL     1       7.864   7.828  17.968  0.00  0.00    +0.000 A 
ATOM     18  N   UNL     1       7.264   8.741  17.238  0.00  0.00    +0.000 NA
ATOM     19  N   UNL     1       7.828   9.948  17.593  0.00  0.00    +0.000 NA
ATOM     20  C   UNL     1       8.740   9.688  18.514  0.00  0.00    +0.000 A 
ATOM     21  O   UNL     1       8.818   8.348  18.803  0.00  0.00    +0.000 OA
BRANCH  20  22
ATOM     22  C   UNL     1       9.630  10.604  19.215  0.00  0.00    +0.000 A 
ATOM     23  C   UNL     1       9.268  11.067  20.490  0.00  0.00    +0.000 A 
ATOM     24  C   UNL     1      10.071  11.977  21.181  0.00  0.00    +0.000 A 
ATOM     25  C   UNL     1      11.252  12.438  20.605  0.00  0.00    +0.000 A 
ATOM     26  C   UNL     1      11.637  11.975  19.348  0.00  0.00    +0.000 A 
ATOM     27  C   UNL     1      10.832  11.061  18.657  0.00  0.00    +0.000 A 
ENDBRANCH  20  22
ENDBRANCH  16  17
ENDBRANCH  15  16
ENDBRANCH   2  15
TORSDOF 7
ENDMDL
MODEL 2
REMARK VINA RESULT:      -7.9      2.206      3.491
REMARK  Name = 
REMARK  9 active torsions:
REMARK  status: ('A' for Active; 'I' for Inactive)
REMARK    1  A    between atoms: C_1  and  C_2
REMARK    2  A    between atoms: C_6  and  C_7
REMARK    3  A    between atoms: C_7  and  C_8
REMARK    4  A    between atoms: C_8  and  C_9
REMARK    5  A    between atoms: C_8  and  N_10
REMARK    6  A    between atoms: C_11  and  C_13
REMARK    7  A    between atoms: C_13  and  C_14
REMARK    8  A    between atoms: C_14  and  C_15
REMARK    9  A    between atoms: C_18  and  C_19
REMARK                            x       y       z     vdW  Elec       q    Type
REMARK                         _______ _______ _______ _____ _____    ______ ____
ROOT
ATOM      1  N   UNL     1       6.219   5.677  17.314  0.00  0.00    +0.000 N 
ATOM      2  C   UNL     1       7.459   5.518  17.890  0.00  0.00    +0.000 C 
ATOM      3  O   UNL     1       8.112   4.481  17.825  0.00  0.00    +0.000 OA
ATOM      4  H   UNL     1       5.797   6.597  17.285  0.00  0.00    +0.000 HD
ENDROOT
BRANCH   1   5
ATOM      5  C   UNL     1       5.636   4.633  16.478  0.00  0.00    +0.000 C 
ATOM      6  C   UNL     1       5.579   5.111  15.023  0.00  0.00    +0.000 C 
BRANCH   5   7
ATOM      7  C   UNL     1       4.235   4.209  16.953  0.00  0.00    +0.000 C 
BRANCH   7  13
ATOM      8  C   UNL     1       2.380   8.603  17.911  0.00  0.00    +0.000 C 
ATOM      9  C   UNL     1       2.653   7.213  18.402  0.00  0.00    +0.000 A 
ATOM     10  C   UNL     1       2.263   6.819  19.675  0.00  0.00    +0.000 A 
ATOM     11  C   UNL     1       2.582   5.534  20.102  0.00  0.00    +0.000 A 
ATOM     12  C   UNL     1       3.259   4.675  19.243  0.00  0.00    +0.000 A 
ATOM     13  C   UNL     1       3.594   5.125  17.969  0.00  0.00    +0.000 A 
ATOM     14  N   UNL     1       3.305   6.383  17.549  0.00  0.00    +0.000 NA
ENDBRANCH   7  13
ENDBRANCH   5   7
ENDBRANCH   1   5
BRANCH   2  15
ATOM     15  C   UNL     1       7.968   6.730  18.635  0.00  0.00    +0.000 C 
BRANCH  15  16
ATOM     16  C   UNL     1       7.916   7.960  17.738  0.00  0.00    +0.000 C 
BRANCH  16  17
ATOM     17  C   UNL     1       8.576   9.130  18.366  0.00  0.00    +0.000 A 
ATOM     18  N   UNL     1       8.965   9.286  19.611  0.00  0.00    +0.000 NA
ATOM     19  N   UNL     1       9.534  10.540  19.682  0.00  0.00    +0.000 NA
ATOM     20  C   UNL     1       9.449  11.067  18.472  0.00  0.00    +0.000 A 
ATOM     21  O   UNL     1       8.845  10.219  17.578  0.00  0.00    +0.000 OA
BRANCH  20  22
ATOM     22  C   UNL     1       9.889  12.374  18.004  0.00  0.00    +0.000 A 
ATOM     23  C   UNL     1      11.058  12.465  17.230  0.00  0.00    +0.000 A 
ATOM     24  C   UNL     1      11.538  13.702  16.792  0.00  0.00    +0.000 A 
ATOM     25  C   UNL     1      10.853  14.869  17.124  0.00  0.00    +0.000 A 
ATOM     26  C   UNL     1       9.682  14.797  17.875  0.00  0.00    +0.000 A 
ATOM     27  C   UNL     1       9.200  13.556  18.311  0.00  0.00    +0.000 A 
ENDBRANCH  20  22
ENDBRANCH  16  17
ENDBRANCH  15  16
ENDBRANCH   2  15
TORSDOF 7
ENDMDL
MODEL 3
REMARK VINA RESULT:      -7.8      4.423      7.040
REMARK  Name = 
REMARK  9 active torsions:
REMARK  status: ('A' for Active; 'I' for Inactive)
REMARK    1  A    between atoms: C_1  and  C_2
REMARK    2  A    between atoms: C_6  and  C_7
REMARK    3  A    between atoms: C_7  and  C_8
REMARK    4  A    between atoms: C_8  and  C_9
REMARK    5  A    between atoms: C_8  and  N_10
REMARK    6  A    between atoms: C_11  and  C_13
REMARK    7  A    between atoms: C_13  and  C_14
REMARK    8  A    between atoms: C_14  and  C_15
REMARK    9  A    between atoms: C_18  and  C_19
REMARK                            x       y       z     vdW  Elec       q    Type
REMARK                         _______ _______ _______ _____ _____    ______ ____
ROOT
ATOM      1  N   UNL     1       4.313   5.839  18.255  0.00  0.00    +0.000 N 
ATOM      2  C   UNL     1       4.559   4.692  17.536  0.00  0.00    +0.000 C 
ATOM      3  O   UNL     1       3.699   4.092  16.897  0.00  0.00    +0.000 OA
ATOM      4  H   UNL     1       5.090   6.360  18.643  0.00  0.00    +0.000 HD
ENDROOT
BRANCH   1   5
ATOM      5  C   UNL     1       3.007   6.489  18.217  0.00  0.00    +0.000 C 
ATOM      6  C   UNL     1       3.169   7.938  17.742  0.00  0.00    +0.000 C 
BRANCH   5   7
ATOM      7  C   UNL     1       2.288   6.452  19.576  0.00  0.00    +0.000 C 
BRANCH   7  13
ATOM      8  C   UNL     1       0.538   2.011  18.643  0.00  0.00    +0.000 C 
ATOM      9  C   UNL     1       1.190   2.929  19.632  0.00  0.00    +0.000 A 
ATOM     10  C   UNL     1       1.529   2.481  20.902  0.00  0.00    +0.000 A 
ATOM     11  C   UNL     1       2.088   3.384  21.800  0.00  0.00    +0.000 A 
ATOM     12  C   UNL     1       2.312   4.698  21.402  0.00  0.00    +0.000 A 
ATOM     13  C   UNL     1       1.975   5.073  20.104  0.00  0.00    +0.000 A 
ATOM     14  N   UNL     1       1.411   4.204  19.225  0.00  0.00    +0.000 NA
ENDBRANCH   7  13
ENDBRANCH   5   7
ENDBRANCH   1   5
BRANCH   2  15
ATOM     15  C   UNL     1       5.987   4.204  17.595  0.00  0.00    +0.000 C 
BRANCH  15  16
ATOM     16  C   UNL     1       6.925   5.245  16.999  0.00  0.00    +0.000 C 
BRANCH  16  17
ATOM     17  C   UNL     1       7.047   5.103  15.528  0.00  0.00    +0.000 A 
ATOM     18  N   UNL     1       7.834   5.751  14.700  0.00  0.00    +0.000 NA
ATOM     19  N   UNL     1       7.576   5.241  13.446  0.00  0.00    +0.000 NA
ATOM     20  C   UNL     1       6.642   4.316  13.594  0.00  0.00    +0.000 A 
ATOM     21  O   UNL     1       6.255   4.174  14.903  0.00  0.00    +0.000 OA
BRANCH  20  22
ATOM     22  C   UNL     1       6.005   3.481  12.585  0.00  0.00    +0.000 A 
ATOM     23  C   UNL     1       4.699   3.786  12.169  0.00  0.00    +0.000 A 
ATOM     24  C   UNL     1       4.035   2.989  11.234  0.00  0.00    +0.000 A 
ATOM     25  C   UNL     1       4.670   1.871  10.700  0.00  0.00    +0.000 A 
ATOM     26  C   UNL     1       5.972   1.561  11.087  0.00  0.00    +0.000 A 
ATOM     27  C   UNL     1       6.638   2.363  12.022  0.00  0.00    +0.000 A 
ENDBRANCH  20  22
ENDBRANCH  16  17
ENDBRANCH  15  16
ENDBRANCH   2  15
TORSDOF 7
ENDMDL
MODEL 4
REMARK VINA RESULT:      -7.6      4.427      8.205
REMARK  Name = 
REMARK  9 active torsions:
REMARK  status: ('A' for Active; 'I' for Inactive)
REMARK    1  A    between atoms: C_1  and  C_2
REMARK    2  A    between atoms: C_6  and  C_7
REMARK    3  A    between atoms: C_7  and  C_8
REMARK    4  A    between atoms: C_8  and  C_9
REMARK    5  A    between atoms: C_8  and  N_10
REMARK    6  A    between atoms: C_11  and  C_13
REMARK    7  A    between atoms: C_13  and  C_14
REMARK    8  A    between atoms: C_14  and  C_15
REMARK    9  A    between atoms: C_18  and  C_19
REMARK                            x       y       z     vdW  Elec       q    Type
REMARK                         _______ _______ _______ _____ _____    ______ ____
ROOT
ATOM      1  N   UNL     1       4.089   6.498  17.724  0.00  0.00    +0.000 N 
ATOM      2  C   UNL     1       3.013   7.024  18.402  0.00  0.00    +0.000 C 
ATOM      3  O   UNL     1       2.744   6.751  19.569  0.00  0.00    +0.000 OA
ATOM      4  H   UNL     1       4.334   6.870  16.815  0.00  0.00    +0.000 HD
ENDROOT
BRANCH   1   5
ATOM      5  C   UNL     1       5.062   5.645  18.398  0.00  0.00    +0.000 C 
ATOM      6  C   UNL     1       6.481   6.102  18.041  0.00  0.00    +0.000 C 
BRANCH   5   7
ATOM      7  C   UNL     1       4.881   4.156  18.053  0.00  0.00    +0.000 C 
BRANCH   7  13
ATOM      8  C   UNL     1       2.176   2.786  21.856  0.00  0.00    +0.000 C 
ATOM      9  C   UNL     1       2.280   2.934  20.368  0.00  0.00    +0.000 A 
ATOM     10  C   UNL     1       1.221   2.579  19.542  0.00  0.00    +0.000 A 
ATOM     11  C   UNL     1       1.383   2.689  18.166  0.00  0.00    +0.000 A 
ATOM     12  C   UNL     1       2.584   3.167  17.653  0.00  0.00    +0.000 A 
ATOM     13  C   UNL     1       3.594   3.533  18.539  0.00  0.00    +0.000 A 
ATOM     14  N   UNL     1       3.454   3.411  19.884  0.00  0.00    +0.000 NA
ENDBRANCH   7  13
ENDBRANCH   5   7
ENDBRANCH   1   5
BRANCH   2  15
ATOM     15  C   UNL     1       2.160   7.973  17.594  0.00  0.00    +0.000 C 
BRANCH  15  16
ATOM     16  C   UNL     1       2.234   9.378  18.179  0.00  0.00    +0.000 C 
BRANCH  16  17
ATOM     17  C   UNL     1       0.915   9.841  18.673  0.00  0.00    +0.000 A 
ATOM     18  N   UNL     1       0.532  10.071  19.909  0.00  0.00    +0.000 NA
ATOM     19  N   UNL     1      -0.776  10.498  19.833  0.00  0.00    +0.000 NA
ATOM     20  C   UNL     1      -1.106  10.495  18.552  0.00  0.00    +0.000 A 
ATOM     21  O   UNL     1      -0.070  10.084  17.751  0.00  0.00    +0.000 OA
BRANCH  20  22
ATOM     22  C   UNL     1      -2.372  10.850  17.926  0.00  0.00    +0.000 A 
ATOM     23  C   UNL     1      -3.339  11.536  18.678  0.00  0.00    +0.000 A 
ATOM     24  C   UNL     1      -4.582  11.861  18.129  0.00  0.00    +0.000 A 
ATOM     25  C   UNL     1      -4.876  11.503  16.816  0.00  0.00    +0.000 A 
ATOM     26  C   UNL     1      -3.922  10.837  16.048  0.00  0.00    +0.000 A 
ATOM     27  C   UNL     1      -2.675  10.515  16.598  0.00  0.00    +0.000 A 
ENDBRANCH  20  22
ENDBRANCH  16  17
ENDBRANCH  15  16
ENDBRANCH   2  15
TORSDOF 7
ENDMDL
MODEL 5
REMARK VINA RESULT:      -7.6      4.319      6.543
REMARK  Name = 
REMARK  9 active torsions:
REMARK  status: ('A' for Active; 'I' for Inactive)
REMARK    1  A    between atoms: C_1  and  C_2
REMARK    2  A    between atoms: C_6  and  C_7
REMARK    3  A    between atoms: C_7  and  C_8
REMARK    4  A    between atoms: C_8  and  C_9
REMARK    5  A    between atoms: C_8  and  N_10
REMARK    6  A    between atoms: C_11  and  C_13
REMARK    7  A    between atoms: C_13  and  C_14
REMARK    8  A    between atoms: C_14  and  C_15
REMARK    9  A    between atoms: C_18  and  C_19
REMARK                            x       y       z     vdW  Elec       q    Type
REMARK                         _______ _______ _______ _____ _____    ______ ____
ROOT
ATOM      1  N   UNL     1       4.746   5.375  17.188  0.00  0.00    +0.000 N 
ATOM      2  C   UNL     1       5.326   6.621  17.272  0.00  0.00    +0.000 C 
ATOM      3  O   UNL     1       6.537   6.803  17.358  0.00  0.00    +0.000 OA
ATOM      4  H   UNL     1       3.758   5.299  16.979  0.00  0.00    +0.000 HD
ENDROOT
BRANCH   1   5
ATOM      5  C   UNL     1       5.560   4.169  17.088  0.00  0.00    +0.000 C 
ATOM      6  C   UNL     1       5.527   3.645  15.647  0.00  0.00    +0.000 C 
BRANCH   5   7
ATOM      7  C   UNL     1       5.110   3.068  18.064  0.00  0.00    +0.000 C 
BRANCH   7  13
ATOM      8  C   UNL     1       1.829   5.339  20.846  0.00  0.00    +0.000 C 
ATOM      9  C   UNL     1       2.096   4.289  19.809  0.00  0.00    +0.000 A 
ATOM     10  C   UNL     1       1.060   3.530  19.283  0.00  0.00    +0.000 A 
ATOM     11  C   UNL     1       1.365   2.536  18.359  0.00  0.00    +0.000 A 
ATOM     12  C   UNL     1       2.686   2.341  17.973  0.00  0.00    +0.000 A 
ATOM     13  C   UNL     1       3.673   3.158  18.519  0.00  0.00    +0.000 A 
ATOM     14  N   UNL     1       3.389   4.118  19.435  0.00  0.00    +0.000 NA
ENDBRANCH   7  13
ENDBRANCH   5   7
ENDBRANCH   1   5
BRANCH   2  15
ATOM     15  C   UNL     1       4.350   7.773  17.261  0.00  0.00    +0.000 C 
BRANCH  15  16
ATOM     16  C   UNL     1       2.999   7.325  17.805  0.00  0.00    +0.000 C 
BRANCH  16  17
ATOM     17  C   UNL     1       2.173   8.474  18.249  0.00  0.00    +0.000 A 
ATOM     18  N   UNL     1       1.821   9.545  17.575  0.00  0.00    +0.000 NA
ATOM     19  N   UNL     1       1.044  10.298  18.429  0.00  0.00    +0.000 NA
ATOM     20  C   UNL     1       0.979   9.636  19.571  0.00  0.00    +0.000 A 
ATOM     21  O   UNL     1       1.680   8.457  19.529  0.00  0.00    +0.000 OA
BRANCH  20  22
ATOM     22  C   UNL     1       0.294   9.994  20.806  0.00  0.00    +0.000 A 
ATOM     23  C   UNL     1       0.514   9.222  21.959  0.00  0.00    +0.000 A 
ATOM     24  C   UNL     1      -0.151   9.505  23.154  0.00  0.00    +0.000 A 
ATOM     25  C   UNL     1      -1.050  10.567  23.213  0.00  0.00    +0.000 A 
ATOM     26  C   UNL     1      -1.269  11.355  22.084  0.00  0.00    +0.000 A 
ATOM     27  C   UNL     1      -0.599  11.072  20.888  0.00  0.00    +0.000 A 
ENDBRANCH  20  22
ENDBRANCH  16  17
ENDBRANCH  15  16
ENDBRANCH   2  15
TORSDOF 7
ENDMDL
MODEL 6
REMARK VINA RESULT:      -7.6      2.290      2.839
REMARK  Name = 
REMARK  9 active torsions:
REMARK  status: ('A' for Active; 'I' for Inactive)
REMARK    1  A    between atoms: C_1  and  C_2
REMARK    2  A    between atoms: C_6  and  C_7
REMARK    3  A    between atoms: C_7  and  C_8
REMARK    4  A    between atoms: C_8  and  C_9
REMARK    5  A    between atoms: C_8  and  N_10
REMARK    6  A    between atoms: C_11  and  C_13
REMARK    7  A    between atoms: C_13  and  C_14
REMARK    8  A    between atoms: C_14  and  C_15
REMARK    9  A    between atoms: C_18  and  C_19
REMARK                            x       y       z     vdW  Elec       q    Type
REMARK                         _______ _______ _______ _____ _____    ______ ____
ROOT
ATOM      1  N   UNL     1       6.585   6.092  18.529  0.00  0.00    +0.000 N 
ATOM      2  C   UNL     1       7.172   6.943  17.620  0.00  0.00    +0.000 C 
ATOM      3  O   UNL     1       6.852   7.001  16.436  0.00  0.00    +0.000 OA
ATOM      4  H   UNL     1       6.797   6.193  19.514  0.00  0.00    +0.000 HD
ENDROOT
BRANCH   1   5
ATOM      5  C   UNL     1       5.445   5.262  18.158  0.00  0.00    +0.000 C 
ATOM      6  C   UNL     1       4.150   6.069  18.309  0.00  0.00    +0.000 C 
BRANCH   5   7
ATOM      7  C   UNL     1       5.363   3.967  18.984  0.00  0.00    +0.000 C 
BRANCH   7  13
ATOM      8  C   UNL     1       1.431   2.632  21.518  0.00  0.00    +0.000 C 
ATOM      9  C   UNL     1       2.112   2.697  20.184  0.00  0.00    +0.000 A 
ATOM     10  C   UNL     1       1.485   2.216  19.042  0.00  0.00    +0.000 A 
ATOM     11  C   UNL     1       2.176   2.255  17.836  0.00  0.00    +0.000 A 
ATOM     12  C   UNL     1       3.460   2.788  17.799  0.00  0.00    +0.000 A 
ATOM     13  C   UNL     1       4.018   3.280  18.976  0.00  0.00    +0.000 A 
ATOM     14  N   UNL     1       3.359   3.229  20.162  0.00  0.00    +0.000 NA
ENDBRANCH   7  13
ENDBRANCH   5   7
ENDBRANCH   1   5
BRANCH   2  15
ATOM     15  C   UNL     1       8.270   7.812  18.187  0.00  0.00    +0.000 C 
BRANCH  15  16
ATOM     16  C   UNL     1       8.122   9.243  17.684  0.00  0.00    +0.000 C 
BRANCH  16  17
ATOM     17  C   UNL     1       8.902  10.201  18.504  0.00  0.00    +0.000 A 
ATOM     18  N   UNL     1       9.404  10.037  19.707  0.00  0.00    +0.000 NA
ATOM     19  N   UNL     1      10.051  11.214  20.017  0.00  0.00    +0.000 NA
ATOM     20  C   UNL     1       9.896  12.020  18.981  0.00  0.00    +0.000 A 
ATOM     21  O   UNL     1       9.168  11.437  17.974  0.00  0.00    +0.000 OA
BRANCH  20  22
ATOM     22  C   UNL     1      10.373  13.384  18.794  0.00  0.00    +0.000 A 
ATOM     23  C   UNL     1      11.034  14.028  19.853  0.00  0.00    +0.000 A 
ATOM     24  C   UNL     1      11.473  15.348  19.731  0.00  0.00    +0.000 A 
ATOM     25  C   UNL     1      11.256  16.045  18.545  0.00  0.00    +0.000 A 
ATOM     26  C   UNL     1      10.618  15.417  17.478  0.00  0.00    +0.000 A 
ATOM     27  C   UNL     1      10.181  14.092  17.600  0.00  0.00    +0.000 A 
ENDBRANCH  20  22
ENDBRANCH  16  17
ENDBRANCH  15  16
ENDBRANCH   2  15
TORSDOF 7
ENDMDL
MODEL 7
REMARK VINA RESULT:      -7.5      3.979      6.929
REMARK  Name = 
REMARK  9 active torsions:
REMARK  status: ('A' for Active; 'I' for Inactive)
REMARK    1  A    between atoms: C_1  and  C_2
REMARK    2  A    between atoms: C_6  and  C_7
REMARK    3  A    between atoms: C_7  and  C_8
REMARK    4  A    between atoms: C_8  and  C_9
REMARK    5  A    between atoms: C_8  and  N_10
REMARK    6  A    between atoms: C_11  and  C_13
REMARK    7  A    between atoms: C_13  and  C_14
REMARK    8  A    between atoms: C_14  and  C_15
REMARK    9  A    between atoms: C_18  and  C_19
REMARK                            x       y       z     vdW  Elec       q    Type
REMARK                         _______ _______ _______ _____ _____    ______ ____
ROOT
ATOM      1  N   UNL     1       4.343   6.070  18.219  0.00  0.00    +0.000 N 
ATOM      2  C   UNL     1       5.397   6.606  17.514  0.00  0.00    +0.000 C 
ATOM      3  O   UNL     1       5.262   7.386  16.575  0.00  0.00    +0.000 OA
ATOM      4  H   UNL     1       4.527   5.546  19.066  0.00  0.00    +0.000 HD
ENDROOT
BRANCH   1   5
ATOM      5  C   UNL     1       2.970   6.489  17.958  0.00  0.00    +0.000 C 
ATOM      6  C   UNL     1       2.637   7.719  18.810  0.00  0.00    +0.000 C 
BRANCH   5   7
ATOM      7  C   UNL     1       1.950   5.368  18.222  0.00  0.00    +0.000 C 
BRANCH   7  13
ATOM      8  C   UNL     1       4.492   2.108  20.787  0.00  0.00    +0.000 C 
ATOM      9  C   UNL     1       3.695   2.399  19.551  0.00  0.00    +0.000 A 
ATOM     10  C   UNL     1       3.468   1.411  18.603  0.00  0.00    +0.000 A 
ATOM     11  C   UNL     1       2.763   1.742  17.450  0.00  0.00    +0.000 A 
ATOM     12  C   UNL     1       2.289   3.039  17.286  0.00  0.00    +0.000 A 
ATOM     13  C   UNL     1       2.527   3.974  18.290  0.00  0.00    +0.000 A 
ATOM     14  N   UNL     1       3.230   3.666  19.410  0.00  0.00    +0.000 NA
ENDBRANCH   7  13
ENDBRANCH   5   7
ENDBRANCH   1   5
BRANCH   2  15
ATOM     15  C   UNL     1       6.762   6.151  17.975  0.00  0.00    +0.000 C 
BRANCH  15  16
ATOM     16  C   UNL     1       7.102   4.799  17.361  0.00  0.00    +0.000 C 
BRANCH  16  17
ATOM     17  C   UNL     1       7.145   4.859  15.880  0.00  0.00    +0.000 A 
ATOM     18  N   UNL     1       7.821   5.680  15.108  0.00  0.00    +0.000 NA
ATOM     19  N   UNL     1       7.532   5.314  13.811  0.00  0.00    +0.000 NA
ATOM     20  C   UNL     1       6.693   4.295  13.879  0.00  0.00    +0.000 A 
ATOM     21  O   UNL     1       6.399   3.949  15.175  0.00  0.00    +0.000 OA
BRANCH  20  22
ATOM     22  C   UNL     1       6.069   3.540  12.801  0.00  0.00    +0.000 A 
ATOM     23  C   UNL     1       4.766   3.874  12.396  0.00  0.00    +0.000 A 
ATOM     24  C   UNL     1       4.115   3.152  11.393  0.00  0.00    +0.000 A 
ATOM     25  C   UNL     1       4.761   2.082  10.778  0.00  0.00    +0.000 A 
ATOM     26  C   UNL     1       6.060   1.747  11.153  0.00  0.00    +0.000 A 
ATOM     27  C   UNL     1       6.713   2.474  12.157  0.00  0.00    +0.000 A 
ENDBRANCH  20  22
ENDBRANCH  16  17
ENDBRANCH  15  16
ENDBRANCH   2  15
TORSDOF 7
ENDMDL
MODEL 8
REMARK VINA RESULT:      -7.5      4.114      7.636
REMARK  Name = 
REMARK  9 active torsions:
REMARK  status: ('A' for Active; 'I' for Inactive)
REMARK    1  A    between atoms: C_1  and  C_2
REMARK    2  A    between atoms: C_6  and  C_7
REMARK    3  A    between atoms: C_7  and  C_8
REMARK    4  A    between atoms: C_8  and  C_9
REMARK    5  A    between atoms: C_8  and  N_10
REMARK    6  A    between atoms: C_11  and  C_13
REMARK    7  A    between atoms: C_13  and  C_14
REMARK    8  A    between atoms: C_14  and  C_15
REMARK    9  A    between atoms: C_18  and  C_19
REMARK                            x       y       z     vdW  Elec       q    Type
REMARK                         _______ _______ _______ _____ _____    ______ ____
ROOT
ATOM      1  N   UNL     1       3.345   4.686  19.382  0.00  0.00    +0.000 N 
ATOM      2  C   UNL     1       2.456   5.531  18.759  0.00  0.00    +0.000 C 
ATOM      3  O   UNL     1       1.711   5.183  17.846  0.00  0.00    +0.000 OA
ATOM      4  H   UNL     1       3.827   4.999  20.216  0.00  0.00    +0.000 HD
ENDROOT
BRANCH   1   5
ATOM      5  C   UNL     1       3.385   3.263  19.063  0.00  0.00    +0.000 C 
ATOM      6  C   UNL     1       3.864   2.475  20.288  0.00  0.00    +0.000 C 
BRANCH   5   7
ATOM      7  C   UNL     1       4.279   2.954  17.850  0.00  0.00    +0.000 C 
BRANCH   7  13
ATOM      8  C   UNL     1       7.995   5.854  19.053  0.00  0.00    +0.000 C 
ATOM      9  C   UNL     1       7.028   5.413  17.996  0.00  0.00    +0.000 A 
ATOM     10  C   UNL     1       7.067   5.964  16.722  0.00  0.00    +0.000 A 
ATOM     11  C   UNL     1       6.117   5.557  15.790  0.00  0.00    +0.000 A 
ATOM     12  C   UNL     1       5.172   4.602  16.148  0.00  0.00    +0.000 A 
ATOM     13  C   UNL     1       5.209   4.068  17.433  0.00  0.00    +0.000 A 
ATOM     14  N   UNL     1       6.119   4.473  18.356  0.00  0.00    +0.000 NA
ENDBRANCH   7  13
ENDBRANCH   5   7
ENDBRANCH   1   5
BRANCH   2  15
ATOM     15  C   UNL     1       2.465   6.950  19.275  0.00  0.00    +0.000 C 
BRANCH  15  16
ATOM     16  C   UNL     1       2.356   7.934  18.117  0.00  0.00    +0.000 C 
BRANCH  16  17
ATOM     17  C   UNL     1       1.760   9.223  18.541  0.00  0.00    +0.000 A 
ATOM     18  N   UNL     1       1.902  10.414  18.003  0.00  0.00    +0.000 NA
ATOM     19  N   UNL     1       1.132  11.272  18.759  0.00  0.00    +0.000 NA
ATOM     20  C   UNL     1       0.575  10.546  19.713  0.00  0.00    +0.000 A 
ATOM     21  O   UNL     1       0.933   9.223  19.636  0.00  0.00    +0.000 OA
BRANCH  20  22
ATOM     22  C   UNL     1      -0.320  10.962  20.784  0.00  0.00    +0.000 A 
ATOM     23  C   UNL     1      -1.342  11.884  20.502  0.00  0.00    +0.000 A 
ATOM     24  C   UNL     1      -2.198  12.341  21.507  0.00  0.00    +0.000 A 
ATOM     25  C   UNL     1      -2.044  11.881  22.812  0.00  0.00    +0.000 A 
ATOM     26  C   UNL     1      -1.047  10.952  23.108  0.00  0.00    +0.000 A 
ATOM     27  C   UNL     1      -0.192  10.493  22.099  0.00  0.00    +0.000 A 
ENDBRANCH  20  22
ENDBRANCH  16  17
ENDBRANCH  15  16
ENDBRANCH   2  15
TORSDOF 7
ENDMDL
MODEL 9
REMARK VINA RESULT:      -7.5      4.131      7.460
REMARK  Name = 
REMARK  9 active torsions:
REMARK  status: ('A' for Active; 'I' for Inactive)
REMARK    1  A    between atoms: C_1  and  C_2
REMARK    2  A    between atoms: C_6  and  C_7
REMARK    3  A    between atoms: C_7  and  C_8
REMARK    4  A    between atoms: C_8  and  C_9
REMARK    5  A    between atoms: C_8  and  N_10
REMARK    6  A    between atoms: C_11  and  C_13
REMARK    7  A    between atoms: C_13  and  C_14
REMARK    8  A    between atoms: C_14  and  C_15
REMARK    9  A    between atoms: C_18  and  C_19
REMARK                            x       y       z     vdW  Elec       q    Type
REMARK                         _______ _______ _______ _____ _____    ______ ____
ROOT
ATOM      1  N   UNL     1       3.021   4.256  18.952  0.00  0.00    +0.000 N 
ATOM      2  C   UNL     1       1.803   4.449  19.564  0.00  0.00    +0.000 C 
ATOM      3  O   UNL     1       0.850   3.686  19.438  0.00  0.00    +0.000 OA
ATOM      4  H   UNL     1       3.805   4.844  19.208  0.00  0.00    +0.000 HD
ENDROOT
BRANCH   1   5
ATOM      5  C   UNL     1       3.295   3.049  18.180  0.00  0.00    +0.000 C 
ATOM      6  C   UNL     1       3.769   1.935  19.120  0.00  0.00    +0.000 C 
BRANCH   5   7
ATOM      7  C   UNL     1       4.332   3.281  17.067  0.00  0.00    +0.000 C 
BRANCH   7  13
ATOM      8  C   UNL     1       7.903   5.730  19.283  0.00  0.00    +0.000 C 
ATOM      9  C   UNL     1       6.867   5.712  18.200  0.00  0.00    +0.000 A 
ATOM     10  C   UNL     1       6.722   6.791  17.337  0.00  0.00    +0.000 A 
ATOM     11  C   UNL     1       5.715   6.747  16.379  0.00  0.00    +0.000 A 
ATOM     12  C   UNL     1       4.896   5.626  16.296  0.00  0.00    +0.000 A 
ATOM     13  C   UNL     1       5.115   4.568  17.173  0.00  0.00    +0.000 A 
ATOM     14  N   UNL     1       6.083   4.608  18.125  0.00  0.00    +0.000 NA
ENDBRANCH   7  13
ENDBRANCH   5   7
ENDBRANCH   1   5
BRANCH   2  15
ATOM     15  C   UNL     1       1.714   5.695  20.413  0.00  0.00    +0.000 C 
BRANCH  15  16
ATOM     16  C   UNL     1       2.787   6.694  19.998  0.00  0.00    +0.000 C 
BRANCH  16  17
ATOM     17  C   UNL     1       2.240   7.761  19.126  0.00  0.00    +0.000 A 
ATOM     18  N   UNL     1       2.535   8.036  17.875  0.00  0.00    +0.000 NA
ATOM     19  N   UNL     1       1.743   9.108  17.520  0.00  0.00    +0.000 NA
ATOM     20  C   UNL     1       1.021   9.418  18.583  0.00  0.00    +0.000 A 
ATOM     21  O   UNL     1       1.287   8.597  19.650  0.00  0.00    +0.000 OA
BRANCH  20  22
ATOM     22  C   UNL     1       0.034  10.476  18.749  0.00  0.00    +0.000 A 
ATOM     23  C   UNL     1       0.217  11.429  19.765  0.00  0.00    +0.000 A 
ATOM     24  C   UNL     1      -0.724  12.438  19.985  0.00  0.00    +0.000 A 
ATOM     25  C   UNL     1      -1.866  12.507  19.191  0.00  0.00    +0.000 A 
ATOM     26  C   UNL     1      -2.056  11.582  18.167  0.00  0.00    +0.000 A 
ATOM     27  C   UNL     1      -1.110  10.573  17.945  0.00  0.00    +0.000 A 
ENDBRANCH  20  22
ENDBRANCH  16  17
ENDBRANCH  15  16
ENDBRANCH   2  15
TORSDOF 7
ENDMDL
