MODEL 1
REMARK VINA RESULT:      -4.9      0.000      0.000
REMARK  Name = 
REMARK  4 active torsions:
REMARK  status: ('A' for Active; 'I' for Inactive)
REMARK    1  A    between atoms: C_1  and  O_2
REMARK    2  A    between atoms: O_2  and  C_3
REMARK    3  A    between atoms: C_8  and  C_9
REMARK    4  A    between atoms: C_9  and  O_10
REMARK                            x       y       z     vdW  Elec       q    Type
REMARK                         _______ _______ _______ _____ _____    ______ ____
ROOT
ATOM      1  C   UNL     1       3.751   4.495  19.548  0.00  0.00    +0.000 C 
ATOM      2  C   UNL     1       4.038   3.463  18.750  0.00  0.00    +0.000 C 
ATOM      3  C   UNL     1       3.174   2.299  18.490  0.00  0.00    +0.000 C 
ATOM      4  O   UNL     1       3.632   1.284  17.997  0.00  0.00    +0.000 OA
ATOM      5  S   UNL     1       1.470   2.457  18.811  0.00  0.00    +0.000 S 
ATOM      6  C   UNL     1       1.416   3.543  20.267  0.00  0.00    +0.000 C 
ATOM      7  C   UNL     1       2.479   4.647  20.333  0.00  0.00    +0.000 C 
ENDROOT
BRANCH   1   9
ATOM      8  C   UNL     1       5.951   5.268  19.012  0.00  0.00    +0.000 C 
ATOM      9  O   UNL     1       4.670   5.539  19.574  0.00  0.00    +0.000 OA
ENDBRANCH   1   9
BRANCH   6  10
ATOM     10  C   UNL     1       1.343   2.727  21.570  0.00  0.00    +0.000 C 
BRANCH  10  11
ATOM     11  O   UNL     1       2.628   2.456  22.110  0.00  0.00    +0.000 OA
ATOM     12  H   UNL     1       3.262   3.064  21.689  0.00  0.00    +0.000 HD
ENDBRANCH  10  11
ENDBRANCH   6  10
TORSDOF 3
ENDMDL
MODEL 2
REMARK VINA RESULT:      -4.9      3.262      5.066
REMARK  Name = 
REMARK  4 active torsions:
REMARK  status: ('A' for Active; 'I' for Inactive)
REMARK    1  A    between atoms: C_1  and  O_2
REMARK    2  A    between atoms: O_2  and  C_3
REMARK    3  A    between atoms: C_8  and  C_9
REMARK    4  A    between atoms: C_9  and  O_10
REMARK                            x       y       z     vdW  Elec       q    Type
REMARK                         _______ _______ _______ _____ _____    ______ ____
ROOT
ATOM      1  C   UNL     1       4.302   4.928  18.204  0.00  0.00    +0.000 C 
ATOM      2  C   UNL     1       4.255   5.586  17.041  0.00  0.00    +0.000 C 
ATOM      3  C   UNL     1       5.411   5.966  16.211  0.00  0.00    +0.000 C 
ATOM      4  O   UNL     1       5.297   6.808  15.339  0.00  0.00    +0.000 OA
ATOM      5  S   UNL     1       6.906   5.106  16.447  0.00  0.00    +0.000 S 
ATOM      6  C   UNL     1       6.919   4.767  18.233  0.00  0.00    +0.000 C 
ATOM      7  C   UNL     1       5.560   4.461  18.877  0.00  0.00    +0.000 C 
ENDROOT
BRANCH   1   9
ATOM      8  C   UNL     1       1.949   4.599  17.910  0.00  0.00    +0.000 C 
ATOM      9  O   UNL     1       3.081   4.583  18.775  0.00  0.00    +0.000 OA
ENDBRANCH   1   9
BRANCH   6  10
ATOM     10  C   UNL     1       7.697   5.850  19.001  0.00  0.00    +0.000 C 
BRANCH  10  11
ATOM     11  O   UNL     1       7.919   5.496  20.357  0.00  0.00    +0.000 OA
ATOM     12  H   UNL     1       7.882   6.312  20.888  0.00  0.00    +0.000 HD
ENDBRANCH  10  11
ENDBRANCH   6  10
TORSDOF 3
ENDMDL
MODEL 3
REMARK VINA RESULT:      -4.9      3.490      5.753
REMARK  Name = 
REMARK  4 active torsions:
REMARK  status: ('A' for Active; 'I' for Inactive)
REMARK    1  A    between atoms: C_1  and  O_2
REMARK    2  A    between atoms: O_2  and  C_3
REMARK    3  A    between atoms: C_8  and  C_9
REMARK    4  A    between atoms: C_9  and  O_10
REMARK                            x       y       z     vdW  Elec       q    Type
REMARK                         _______ _______ _______ _____ _____    ______ ____
ROOT
ATOM      1  C   UNL     1       4.405   5.136  18.088  0.00  0.00    +0.000 C 
ATOM      2  C   UNL     1       5.231   5.183  19.139  0.00  0.00    +0.000 C 
ATOM      3  C   UNL     1       6.648   5.582  19.113  0.00  0.00    +0.000 C 
ATOM      4  O   UNL     1       7.386   5.311  20.043  0.00  0.00    +0.000 OA
ATOM      5  S   UNL     1       7.204   6.537  17.767  0.00  0.00    +0.000 S 
ATOM      6  C   UNL     1       6.232   5.900  16.369  0.00  0.00    +0.000 C 
ATOM      7  C   UNL     1       4.788   5.484  16.678  0.00  0.00    +0.000 C 
ENDROOT
BRANCH   1   9
ATOM      8  C   UNL     1       2.496   3.796  17.555  0.00  0.00    +0.000 C 
ATOM      9  O   UNL     1       3.076   4.825  18.353  0.00  0.00    +0.000 OA
ENDBRANCH   1   9
BRANCH   6  10
ATOM     10  C   UNL     1       7.002   4.808  15.606  0.00  0.00    +0.000 C 
BRANCH  10  11
ATOM     11  O   UNL     1       7.689   5.321  14.475  0.00  0.00    +0.000 OA
ATOM     12  H   UNL     1       7.154   5.123  13.686  0.00  0.00    +0.000 HD
ENDBRANCH  10  11
ENDBRANCH   6  10
TORSDOF 3
ENDMDL
MODEL 4
REMARK VINA RESULT:      -4.9      3.131      5.514
REMARK  Name = 
REMARK  4 active torsions:
REMARK  status: ('A' for Active; 'I' for Inactive)
REMARK    1  A    between atoms: C_1  and  O_2
REMARK    2  A    between atoms: O_2  and  C_3
REMARK    3  A    between atoms: C_8  and  C_9
REMARK    4  A    between atoms: C_9  and  O_10
REMARK                            x       y       z     vdW  Elec       q    Type
REMARK                         _______ _______ _______ _____ _____    ______ ____
ROOT
ATOM      1  C   UNL     1       4.426   3.701  18.092  0.00  0.00    +0.000 C 
ATOM      2  C   UNL     1       5.162   4.199  19.090  0.00  0.00    +0.000 C 
ATOM      3  C   UNL     1       6.210   5.228  18.966  0.00  0.00    +0.000 C 
ATOM      4  O   UNL     1       7.018   5.399  19.861  0.00  0.00    +0.000 OA
ATOM      5  S   UNL     1       6.189   6.251  17.558  0.00  0.00    +0.000 S 
ATOM      6  C   UNL     1       5.596   5.146  16.243  0.00  0.00    +0.000 C 
ATOM      7  C   UNL     1       4.544   4.107  16.650  0.00  0.00    +0.000 C 
ENDROOT
BRANCH   1   9
ATOM      8  C   UNL     1       2.154   2.997  17.822  0.00  0.00    +0.000 C 
ATOM      9  O   UNL     1       3.422   2.805  18.444  0.00  0.00    +0.000 OA
ENDBRANCH   1   9
BRANCH   6  10
ATOM     10  C   UNL     1       6.770   4.515  15.474  0.00  0.00    +0.000 C 
BRANCH  10  11
ATOM     11  O   UNL     1       7.663   5.489  14.955  0.00  0.00    +0.000 OA
ATOM     12  H   UNL     1       7.141   6.279  14.728  0.00  0.00    +0.000 HD
ENDBRANCH  10  11
ENDBRANCH   6  10
TORSDOF 3
ENDMDL
MODEL 5
REMARK VINA RESULT:      -4.8      3.917      4.885
REMARK  Name = 
REMARK  4 active torsions:
REMARK  status: ('A' for Active; 'I' for Inactive)
REMARK    1  A    between atoms: C_1  and  O_2
REMARK    2  A    between atoms: O_2  and  C_3
REMARK    3  A    between atoms: C_8  and  C_9
REMARK    4  A    between atoms: C_9  and  O_10
REMARK                            x       y       z     vdW  Elec       q    Type
REMARK                         _______ _______ _______ _____ _____    ______ ____
ROOT
ATOM      1  C   UNL     1       6.615   5.580  16.489  0.00  0.00    +0.000 C 
ATOM      2  C   UNL     1       7.239   5.447  17.664  0.00  0.00    +0.000 C 
ATOM      3  C   UNL     1       6.593   5.292  18.978  0.00  0.00    +0.000 C 
ATOM      4  O   UNL     1       7.222   5.476  20.004  0.00  0.00    +0.000 OA
ATOM      5  S   UNL     1       4.942   4.739  19.018  0.00  0.00    +0.000 S 
ATOM      6  C   UNL     1       4.211   5.491  17.534  0.00  0.00    +0.000 C 
ATOM      7  C   UNL     1       5.124   5.599  16.306  0.00  0.00    +0.000 C 
ENDROOT
BRANCH   1   9
ATOM      8  C   UNL     1       6.972   4.854  14.237  0.00  0.00    +0.000 C 
ATOM      9  O   UNL     1       7.420   5.615  15.355  0.00  0.00    +0.000 OA
ENDBRANCH   1   9
BRANCH   6  10
ATOM     10  C   UNL     1       3.522   6.826  17.866  0.00  0.00    +0.000 C 
BRANCH  10  11
ATOM     11  O   UNL     1       2.901   6.811  19.142  0.00  0.00    +0.000 OA
ATOM     12  H   UNL     1       2.148   7.428  19.114  0.00  0.00    +0.000 HD
ENDBRANCH  10  11
ENDBRANCH   6  10
TORSDOF 3
ENDMDL
MODEL 6
REMARK VINA RESULT:      -4.8      1.172      1.365
REMARK  Name = 
REMARK  4 active torsions:
REMARK  status: ('A' for Active; 'I' for Inactive)
REMARK    1  A    between atoms: C_1  and  O_2
REMARK    2  A    between atoms: O_2  and  C_3
REMARK    3  A    between atoms: C_8  and  C_9
REMARK    4  A    between atoms: C_9  and  O_10
REMARK                            x       y       z     vdW  Elec       q    Type
REMARK                         _______ _______ _______ _____ _____    ______ ____
ROOT
ATOM      1  C   UNL     1       2.864   4.941  19.302  0.00  0.00    +0.000 C 
ATOM      2  C   UNL     1       3.323   3.991  18.482  0.00  0.00    +0.000 C 
ATOM      3  C   UNL     1       2.803   2.617  18.367  0.00  0.00    +0.000 C 
ATOM      4  O   UNL     1       3.461   1.748  17.824  0.00  0.00    +0.000 OA
ATOM      5  S   UNL     1       1.187   2.304  18.936  0.00  0.00    +0.000 S 
ATOM      6  C   UNL     1       1.025   3.408  20.371  0.00  0.00    +0.000 C 
ATOM      7  C   UNL     1       1.724   4.769  20.265  0.00  0.00    +0.000 C 
ENDROOT
BRANCH   1   9
ATOM      8  C   UNL     1       2.637   7.206  18.561  0.00  0.00    +0.000 C 
ATOM      9  O   UNL     1       3.439   6.202  19.179  0.00  0.00    +0.000 OA
ENDBRANCH   1   9
BRANCH   6  10
ATOM     10  C   UNL     1       1.373   2.676  21.680  0.00  0.00    +0.000 C 
BRANCH  10  11
ATOM     11  O   UNL     1       2.772   2.621  21.913  0.00  0.00    +0.000 OA
ATOM     12  H   UNL     1       3.015   1.688  22.049  0.00  0.00    +0.000 HD
ENDBRANCH  10  11
ENDBRANCH   6  10
TORSDOF 3
ENDMDL
MODEL 7
REMARK VINA RESULT:      -4.8      1.855      1.971
REMARK  Name = 
REMARK  4 active torsions:
REMARK  status: ('A' for Active; 'I' for Inactive)
REMARK    1  A    between atoms: C_1  and  O_2
REMARK    2  A    between atoms: O_2  and  C_3
REMARK    3  A    between atoms: C_8  and  C_9
REMARK    4  A    between atoms: C_9  and  O_10
REMARK                            x       y       z     vdW  Elec       q    Type
REMARK                         _______ _______ _______ _____ _____    ______ ____
ROOT
ATOM      1  C   UNL     1       3.544   4.916  17.971  0.00  0.00    +0.000 C 
ATOM      2  C   UNL     1       4.452   4.109  18.529  0.00  0.00    +0.000 C 
ATOM      3  C   UNL     1       4.168   2.889  19.305  0.00  0.00    +0.000 C 
ATOM      4  O   UNL     1       5.024   2.393  20.015  0.00  0.00    +0.000 OA
ATOM      5  S   UNL     1       2.617   2.127  19.093  0.00  0.00    +0.000 S 
ATOM      6  C   UNL     1       1.492   3.530  18.832  0.00  0.00    +0.000 C 
ATOM      7  C   UNL     1       2.057   4.718  18.043  0.00  0.00    +0.000 C 
ENDROOT
BRANCH   1   9
ATOM      8  C   UNL     1       5.303   5.759  16.583  0.00  0.00    +0.000 C 
ATOM      9  O   UNL     1       4.033   5.964  17.197  0.00  0.00    +0.000 OA
ENDBRANCH   1   9
BRANCH   6  10
ATOM     10  C   UNL     1       0.831   3.969  20.151  0.00  0.00    +0.000 C 
BRANCH  10  11
ATOM     11  O   UNL     1       0.807   2.928  21.115  0.00  0.00    +0.000 OA
ATOM     12  H   UNL     1       0.209   3.201  21.834  0.00  0.00    +0.000 HD
ENDBRANCH  10  11
ENDBRANCH   6  10
TORSDOF 3
ENDMDL
MODEL 8
REMARK VINA RESULT:      -4.7      2.885      4.722
REMARK  Name = 
REMARK  4 active torsions:
REMARK  status: ('A' for Active; 'I' for Inactive)
REMARK    1  A    between atoms: C_1  and  O_2
REMARK    2  A    between atoms: O_2  and  C_3
REMARK    3  A    between atoms: C_8  and  C_9
REMARK    4  A    between atoms: C_9  and  O_10
REMARK                            x       y       z     vdW  Elec       q    Type
REMARK                         _______ _______ _______ _____ _____    ______ ____
ROOT
ATOM      1  C   UNL     1       2.648   4.008  17.628  0.00  0.00    +0.000 C 
ATOM      2  C   UNL     1       2.192   5.132  18.190  0.00  0.00    +0.000 C 
ATOM      3  C   UNL     1       2.937   6.393  18.340  0.00  0.00    +0.000 C 
ATOM      4  O   UNL     1       2.557   7.250  19.117  0.00  0.00    +0.000 OA
ATOM      5  S   UNL     1       4.309   6.660  17.301  0.00  0.00    +0.000 S 
ATOM      6  C   UNL     1       5.020   4.999  17.107  0.00  0.00    +0.000 C 
ATOM      7  C   UNL     1       4.022   3.835  17.046  0.00  0.00    +0.000 C 
ENDROOT
BRANCH   1   9
ATOM      8  C   UNL     1       1.001   2.620  18.671  0.00  0.00    +0.000 C 
ATOM      9  O   UNL     1       1.742   2.960  17.503  0.00  0.00    +0.000 OA
ENDBRANCH   1   9
BRANCH   6  10
ATOM     10  C   UNL     1       6.143   4.749  18.130  0.00  0.00    +0.000 C 
BRANCH  10  11
ATOM     11  O   UNL     1       5.870   3.639  18.971  0.00  0.00    +0.000 OA
ATOM     12  H   UNL     1       6.042   2.829  18.460  0.00  0.00    +0.000 HD
ENDBRANCH  10  11
ENDBRANCH   6  10
TORSDOF 3
ENDMDL
MODEL 9
REMARK VINA RESULT:      -4.7      1.721      2.213
REMARK  Name = 
REMARK  4 active torsions:
REMARK  status: ('A' for Active; 'I' for Inactive)
REMARK    1  A    between atoms: C_1  and  O_2
REMARK    2  A    between atoms: O_2  and  C_3
REMARK    3  A    between atoms: C_8  and  C_9
REMARK    4  A    between atoms: C_9  and  O_10
REMARK                            x       y       z     vdW  Elec       q    Type
REMARK                         _______ _______ _______ _____ _____    ______ ____
ROOT
ATOM      1  C   UNL     1       2.591   5.641  19.778  0.00  0.00    +0.000 C 
ATOM      2  C   UNL     1       3.845   5.273  19.501  0.00  0.00    +0.000 C 
ATOM      3  C   UNL     1       4.330   3.892  19.341  0.00  0.00    +0.000 C 
ATOM      4  O   UNL     1       5.521   3.643  19.387  0.00  0.00    +0.000 OA
ATOM      5  S   UNL     1       3.162   2.651  18.983  0.00  0.00    +0.000 S 
ATOM      6  C   UNL     1       1.688   3.182  19.905  0.00  0.00    +0.000 C 
ATOM      7  C   UNL     1       1.442   4.694  19.982  0.00  0.00    +0.000 C 
ENDROOT
BRANCH   1   9
ATOM      8  C   UNL     1       2.444   7.685  18.541  0.00  0.00    +0.000 C 
ATOM      9  O   UNL     1       2.329   7.007  19.789  0.00  0.00    +0.000 OA
ENDBRANCH   1   9
BRANCH   6  10
ATOM     10  C   UNL     1       1.624   2.511  21.289  0.00  0.00    +0.000 C 
BRANCH  10  11
ATOM     11  O   UNL     1       2.251   3.290  22.296  0.00  0.00    +0.000 OA
ATOM     12  H   UNL     1       2.865   2.711  22.782  0.00  0.00    +0.000 HD
ENDBRANCH  10  11
ENDBRANCH   6  10
TORSDOF 3
ENDMDL
