MODEL 1
REMARK VINA RESULT:      -7.3      0.000      0.000
REMARK  Name = 
REMARK  7 active torsions:
REMARK  status: ('A' for Active; 'I' for Inactive)
REMARK    1  A    between atoms: C_1  and  C_2
REMARK    2  A    between atoms: C_2  and  O_3
REMARK    3  A    between atoms: O_3  and  C_4
REMARK    4  A    between atoms: C_7  and  C_8
REMARK    5  A    between atoms: C_12  and  O_13
REMARK    6  A    between atoms: O_13  and  C_14
REMARK    7  A    between atoms: C_14  and  C_15
REMARK                            x       y       z     vdW  Elec       q    Type
REMARK                         _______ _______ _______ _____ _____    ______ ____
ROOT
ATOM      1  C   UNL     1       2.635   7.422  18.439  0.00  0.00    +0.000 A 
ATOM      2  C   UNL     1       2.078   8.537  17.851  0.00  0.00    +0.000 A 
ATOM      3  N   UNL     1       1.326   9.127  18.825  0.00  0.00    +0.000 N 
ATOM      4  N   UNL     1       0.527  10.214  18.645  0.00  0.00    +0.000 NA
ATOM      5  C   UNL     1      -0.087  10.541  19.733  0.00  0.00    +0.000 A 
ATOM      6  C   UNL     1       0.051   9.923  21.068  0.00  0.00    +0.000 A 
ATOM      7  C   UNL     1       0.830   8.837  21.142  0.00  0.00    +0.000 A 
ATOM      8  C   UNL     1       1.495   8.378  19.980  0.00  0.00    +0.000 A 
ATOM      9  N   UNL     1       2.262   7.331  19.764  0.00  0.00    +0.000 NA
ENDROOT
BRANCH   1  13
ATOM     10  C   UNL     1       5.043   4.546  16.416  0.00  0.00    +0.000 A 
ATOM     11  C   UNL     1       5.350   5.904  16.328  0.00  0.00    +0.000 A 
ATOM     12  C   UNL     1       4.574   6.849  16.999  0.00  0.00    +0.000 A 
ATOM     13  C   UNL     1       3.469   6.448  17.760  0.00  0.00    +0.000 A 
ATOM     14  C   UNL     1       3.160   5.083  17.838  0.00  0.00    +0.000 A 
ATOM     15  C   UNL     1       3.936   4.136  17.157  0.00  0.00    +0.000 A 
BRANCH  10  16
ATOM     16  O   UNL     1       5.886   3.723  15.723  0.00  0.00    +0.000 OA
BRANCH  16  18
ATOM     17  C   UNL     1       6.150   3.809  13.365  0.00  0.00    +0.000 C 
ATOM     18  C   UNL     1       6.662   4.335  14.694  0.00  0.00    +0.000 C 
ENDBRANCH  16  18
ENDBRANCH  10  16
ENDBRANCH   1  13
BRANCH   5  19
ATOM     19  O   UNL     1      -1.011  11.528  19.798  0.00  0.00    +0.000 OA
BRANCH  19  20
ATOM     20  C   UNL     1      -1.559  11.945  18.538  0.00  0.00    +0.000 C 
BRANCH  20  21
ATOM     21  C   UNL     1      -2.917  11.333  18.388  0.00  0.00    +0.000 C 
ATOM     22  C   UNL     1      -3.596  11.354  17.041  0.00  0.00    +0.000 C 
ATOM     23  C   UNL     1      -3.114  10.051  17.616  0.00  0.00    +0.000 C 
ENDBRANCH  20  21
ENDBRANCH  19  20
ENDBRANCH   5  19
TORSDOF 6
ENDMDL
MODEL 2
REMARK VINA RESULT:      -7.2      2.463      8.799
REMARK  Name = 
REMARK  7 active torsions:
REMARK  status: ('A' for Active; 'I' for Inactive)
REMARK    1  A    between atoms: C_1  and  C_2
REMARK    2  A    between atoms: C_2  and  O_3
REMARK    3  A    between atoms: O_3  and  C_4
REMARK    4  A    between atoms: C_7  and  C_8
REMARK    5  A    between atoms: C_12  and  O_13
REMARK    6  A    between atoms: O_13  and  C_14
REMARK    7  A    between atoms: C_14  and  C_15
REMARK                            x       y       z     vdW  Elec       q    Type
REMARK                         _______ _______ _______ _____ _____    ______ ____
ROOT
ATOM      1  C   UNL     1       3.003   6.978  18.218  0.00  0.00    +0.000 A 
ATOM      2  C   UNL     1       3.904   7.394  17.262  0.00  0.00    +0.000 A 
ATOM      3  N   UNL     1       4.525   6.260  16.826  0.00  0.00    +0.000 N 
ATOM      4  N   UNL     1       5.557   6.226  15.940  0.00  0.00    +0.000 NA
ATOM      5  C   UNL     1       5.965   5.019  15.727  0.00  0.00    +0.000 A 
ATOM      6  C   UNL     1       5.400   3.766  16.272  0.00  0.00    +0.000 A 
ATOM      7  C   UNL     1       4.410   3.900  17.163  0.00  0.00    +0.000 A 
ATOM      8  C   UNL     1       3.943   5.194  17.495  0.00  0.00    +0.000 A 
ATOM      9  N   UNL     1       3.039   5.606  18.358  0.00  0.00    +0.000 NA
ENDROOT
BRANCH   1  13
ATOM     10  C   UNL     1       0.554   9.558  20.565  0.00  0.00    +0.000 A 
ATOM     11  C   UNL     1       0.858   9.889  19.245  0.00  0.00    +0.000 A 
ATOM     12  C   UNL     1       1.648   9.042  18.467  0.00  0.00    +0.000 A 
ATOM     13  C   UNL     1       2.156   7.854  19.006  0.00  0.00    +0.000 A 
ATOM     14  C   UNL     1       1.855   7.530  20.336  0.00  0.00    +0.000 A 
ATOM     15  C   UNL     1       1.068   8.386  21.118  0.00  0.00    +0.000 A 
BRANCH  10  16
ATOM     16  O   UNL     1      -0.236  10.464  21.214  0.00  0.00    +0.000 OA
BRANCH  16  18
ATOM     17  C   UNL     1      -1.401  11.307  23.103  0.00  0.00    +0.000 C 
ATOM     18  C   UNL     1      -0.594  10.143  22.558  0.00  0.00    +0.000 C 
ENDBRANCH  16  18
ENDBRANCH  10  16
ENDBRANCH   1  13
BRANCH   5  19
ATOM     19  O   UNL     1       7.039   4.720  14.961  0.00  0.00    +0.000 OA
BRANCH  19  20
ATOM     20  C   UNL     1       6.821   4.774  13.543  0.00  0.00    +0.000 C 
BRANCH  20  21
ATOM     21  C   UNL     1       6.209   3.478  13.110  0.00  0.00    +0.000 C 
ATOM     22  C   UNL     1       5.184   3.473  12.004  0.00  0.00    +0.000 C 
ATOM     23  C   UNL     1       6.540   2.868  11.769  0.00  0.00    +0.000 C 
ENDBRANCH  20  21
ENDBRANCH  19  20
ENDBRANCH   5  19
TORSDOF 6
ENDMDL
MODEL 3
REMARK VINA RESULT:      -7.0      2.364      8.737
REMARK  Name = 
REMARK  7 active torsions:
REMARK  status: ('A' for Active; 'I' for Inactive)
REMARK    1  A    between atoms: C_1  and  C_2
REMARK    2  A    between atoms: C_2  and  O_3
REMARK    3  A    between atoms: O_3  and  C_4
REMARK    4  A    between atoms: C_7  and  C_8
REMARK    5  A    between atoms: C_12  and  O_13
REMARK    6  A    between atoms: O_13  and  C_14
REMARK    7  A    between atoms: C_14  and  C_15
REMARK                            x       y       z     vdW  Elec       q    Type
REMARK                         _______ _______ _______ _____ _____    ______ ____
ROOT
ATOM      1  C   UNL     1       3.140   7.125  18.085  0.00  0.00    +0.000 A 
ATOM      2  C   UNL     1       3.904   7.461  16.988  0.00  0.00    +0.000 A 
ATOM      3  N   UNL     1       4.692   6.374  16.742  0.00  0.00    +0.000 N 
ATOM      4  N   UNL     1       5.667   6.314  15.796  0.00  0.00    +0.000 NA
ATOM      5  C   UNL     1       6.269   5.171  15.803  0.00  0.00    +0.000 A 
ATOM      6  C   UNL     1       5.961   3.994  16.642  0.00  0.00    +0.000 A 
ATOM      7  C   UNL     1       5.010   4.158  17.569  0.00  0.00    +0.000 A 
ATOM      8  C   UNL     1       4.341   5.401  17.666  0.00  0.00    +0.000 A 
ATOM      9  N   UNL     1       3.424   5.840  18.501  0.00  0.00    +0.000 NA
ENDROOT
BRANCH   1  13
ATOM     10  C   UNL     1       0.324   9.692  19.993  0.00  0.00    +0.000 A 
ATOM     11  C   UNL     1       0.938   8.667  20.713  0.00  0.00    +0.000 A 
ATOM     12  C   UNL     1       1.871   7.832  20.097  0.00  0.00    +0.000 A 
ATOM     13  C   UNL     1       2.194   8.004  18.745  0.00  0.00    +0.000 A 
ATOM     14  C   UNL     1       1.566   9.030  18.024  0.00  0.00    +0.000 A 
ATOM     15  C   UNL     1       0.624   9.862  18.642  0.00  0.00    +0.000 A 
BRANCH  10  16
ATOM     16  O   UNL     1      -0.561  10.445  20.712  0.00  0.00    +0.000 OA
BRANCH  16  18
ATOM     17  C   UNL     1      -1.009  10.650  23.034  0.00  0.00    +0.000 C 
ATOM     18  C   UNL     1      -0.061  11.033  21.912  0.00  0.00    +0.000 C 
ENDBRANCH  16  18
ENDBRANCH  10  16
ENDBRANCH   1  13
BRANCH   5  19
ATOM     19  O   UNL     1       7.339   4.888  15.023  0.00  0.00    +0.000 OA
BRANCH  19  20
ATOM     20  C   UNL     1       7.082   4.854  13.611  0.00  0.00    +0.000 C 
BRANCH  20  21
ATOM     21  C   UNL     1       6.264   3.637  13.310  0.00  0.00    +0.000 C 
ATOM     22  C   UNL     1       5.117   3.737  12.335  0.00  0.00    +0.000 C 
ATOM     23  C   UNL     1       6.347   2.954  11.966  0.00  0.00    +0.000 C 
ENDBRANCH  20  21
ENDBRANCH  19  20
ENDBRANCH   5  19
TORSDOF 6
ENDMDL
MODEL 4
REMARK VINA RESULT:      -7.0      1.554      1.820
REMARK  Name = 
REMARK  7 active torsions:
REMARK  status: ('A' for Active; 'I' for Inactive)
REMARK    1  A    between atoms: C_1  and  C_2
REMARK    2  A    between atoms: C_2  and  O_3
REMARK    3  A    between atoms: O_3  and  C_4
REMARK    4  A    between atoms: C_7  and  C_8
REMARK    5  A    between atoms: C_12  and  O_13
REMARK    6  A    between atoms: O_13  and  C_14
REMARK    7  A    between atoms: C_14  and  C_15
REMARK                            x       y       z     vdW  Elec       q    Type
REMARK                         _______ _______ _______ _____ _____    ______ ____
ROOT
ATOM      1  C   UNL     1       2.943   7.036  18.352  0.00  0.00    +0.000 A 
ATOM      2  C   UNL     1       2.447   8.252  17.935  0.00  0.00    +0.000 A 
ATOM      3  N   UNL     1       1.708   8.724  18.980  0.00  0.00    +0.000 N 
ATOM      4  N   UNL     1       0.963   9.863  18.959  0.00  0.00    +0.000 NA
ATOM      5  C   UNL     1       0.349  10.052  20.079  0.00  0.00    +0.000 A 
ATOM      6  C   UNL     1       0.438   9.235  21.308  0.00  0.00    +0.000 A 
ATOM      7  C   UNL     1       1.166   8.114  21.223  0.00  0.00    +0.000 A 
ATOM      8  C   UNL     1       1.825   7.804  20.010  0.00  0.00    +0.000 A 
ATOM      9  N   UNL     1       2.546   6.765  19.645  0.00  0.00    +0.000 NA
ENDROOT
BRANCH   1  13
ATOM     10  C   UNL     1       5.243   4.374  15.946  0.00  0.00    +0.000 A 
ATOM     11  C   UNL     1       5.411   5.753  15.823  0.00  0.00    +0.000 A 
ATOM     12  C   UNL     1       4.670   6.630  16.617  0.00  0.00    +0.000 A 
ATOM     13  C   UNL     1       3.741   6.136  17.540  0.00  0.00    +0.000 A 
ATOM     14  C   UNL     1       3.570   4.749  17.654  0.00  0.00    +0.000 A 
ATOM     15  C   UNL     1       4.308   3.872  16.850  0.00  0.00    +0.000 A 
BRANCH  10  16
ATOM     16  O   UNL     1       6.034   3.626  15.121  0.00  0.00    +0.000 OA
BRANCH  16  18
ATOM     17  C   UNL     1       6.128   3.527  12.751  0.00  0.00    +0.000 C 
ATOM     18  C   UNL     1       6.572   4.296  13.982  0.00  0.00    +0.000 C 
ENDBRANCH  16  18
ENDBRANCH  10  16
ENDBRANCH   1  13
BRANCH   5  19
ATOM     19  O   UNL     1      -0.530  11.061  20.286  0.00  0.00    +0.000 OA
BRANCH  19  20
ATOM     20  C   UNL     1      -0.813  11.362  21.661  0.00  0.00    +0.000 C 
BRANCH  20  21
ATOM     21  C   UNL     1      -1.645  12.606  21.710  0.00  0.00    +0.000 C 
ATOM     22  C   UNL     1      -2.784  12.776  20.737  0.00  0.00    +0.000 C 
ATOM     23  C   UNL     1      -3.073  12.571  22.198  0.00  0.00    +0.000 C 
ENDBRANCH  20  21
ENDBRANCH  19  20
ENDBRANCH   5  19
TORSDOF 6
ENDMDL
MODEL 5
REMARK VINA RESULT:      -7.0      1.995      2.676
REMARK  Name = 
REMARK  7 active torsions:
REMARK  status: ('A' for Active; 'I' for Inactive)
REMARK    1  A    between atoms: C_1  and  C_2
REMARK    2  A    between atoms: C_2  and  O_3
REMARK    3  A    between atoms: O_3  and  C_4
REMARK    4  A    between atoms: C_7  and  C_8
REMARK    5  A    between atoms: C_12  and  O_13
REMARK    6  A    between atoms: O_13  and  C_14
REMARK    7  A    between atoms: C_14  and  C_15
REMARK                            x       y       z     vdW  Elec       q    Type
REMARK                         _______ _______ _______ _____ _____    ______ ____
ROOT
ATOM      1  C   UNL     1       2.830   7.210  18.265  0.00  0.00    +0.000 A 
ATOM      2  C   UNL     1       2.480   7.095  19.593  0.00  0.00    +0.000 A 
ATOM      3  N   UNL     1       1.789   8.234  19.890  0.00  0.00    +0.000 N 
ATOM      4  N   UNL     1       1.335   8.573  21.127  0.00  0.00    +0.000 NA
ATOM      5  C   UNL     1       0.735   9.716  21.119  0.00  0.00    +0.000 A 
ATOM      6  C   UNL     1       0.462  10.584  19.954  0.00  0.00    +0.000 A 
ATOM      7  C   UNL     1       0.978  10.188  18.784  0.00  0.00    +0.000 A 
ATOM      8  C   UNL     1       1.700   8.972  18.720  0.00  0.00    +0.000 A 
ATOM      9  N   UNL     1       2.342   8.385  17.732  0.00  0.00    +0.000 NA
ENDROOT
BRANCH   1  13
ATOM     10  C   UNL     1       5.151   4.387  16.073  0.00  0.00    +0.000 A 
ATOM     11  C   UNL     1       5.412   5.752  15.955  0.00  0.00    +0.000 A 
ATOM     12  C   UNL     1       4.665   6.680  16.680  0.00  0.00    +0.000 A 
ATOM     13  C   UNL     1       3.634   6.254  17.527  0.00  0.00    +0.000 A 
ATOM     14  C   UNL     1       3.370   4.882  17.635  0.00  0.00    +0.000 A 
ATOM     15  C   UNL     1       4.117   3.952  16.900  0.00  0.00    +0.000 A 
BRANCH  10  16
ATOM     16  O   UNL     1       5.959   3.583  15.320  0.00  0.00    +0.000 OA
BRANCH  16  18
ATOM     17  C   UNL     1       6.001   3.581  12.946  0.00  0.00    +0.000 C 
ATOM     18  C   UNL     1       6.596   4.197  14.200  0.00  0.00    +0.000 C 
ENDBRANCH  16  18
ENDBRANCH  10  16
ENDBRANCH   1  13
BRANCH   5  19
ATOM     19  O   UNL     1       0.276  10.324  22.238  0.00  0.00    +0.000 OA
BRANCH  19  20
ATOM     20  C   UNL     1      -1.039  10.892  22.136  0.00  0.00    +0.000 C 
BRANCH  20  21
ATOM     21  C   UNL     1      -1.091  12.116  22.998  0.00  0.00    +0.000 C 
ATOM     22  C   UNL     1      -1.310  13.464  22.359  0.00  0.00    +0.000 C 
ATOM     23  C   UNL     1      -2.386  12.860  23.218  0.00  0.00    +0.000 C 
ENDBRANCH  20  21
ENDBRANCH  19  20
ENDBRANCH   5  19
TORSDOF 6
ENDMDL
MODEL 6
REMARK VINA RESULT:      -7.0      1.290      1.914
REMARK  Name = 
REMARK  7 active torsions:
REMARK  status: ('A' for Active; 'I' for Inactive)
REMARK    1  A    between atoms: C_1  and  C_2
REMARK    2  A    between atoms: C_2  and  O_3
REMARK    3  A    between atoms: O_3  and  C_4
REMARK    4  A    between atoms: C_7  and  C_8
REMARK    5  A    between atoms: C_12  and  O_13
REMARK    6  A    between atoms: O_13  and  C_14
REMARK    7  A    between atoms: C_14  and  C_15
REMARK                            x       y       z     vdW  Elec       q    Type
REMARK                         _______ _______ _______ _____ _____    ______ ____
ROOT
ATOM      1  C   UNL     1       2.915   7.040  18.341  0.00  0.00    +0.000 A 
ATOM      2  C   UNL     1       2.373   8.226  17.895  0.00  0.00    +0.000 A 
ATOM      3  N   UNL     1       1.645   8.713  18.941  0.00  0.00    +0.000 N 
ATOM      4  N   UNL     1       0.866   9.828  18.900  0.00  0.00    +0.000 NA
ATOM      5  C   UNL     1       0.272  10.038  20.027  0.00  0.00    +0.000 A 
ATOM      6  C   UNL     1       0.414   9.266  21.280  0.00  0.00    +0.000 A 
ATOM      7  C   UNL     1       1.173   8.165  21.216  0.00  0.00    +0.000 A 
ATOM      8  C   UNL     1       1.813   7.832  19.999  0.00  0.00    +0.000 A 
ATOM      9  N   UNL     1       2.556   6.803  19.652  0.00  0.00    +0.000 NA
ENDROOT
BRANCH   1  13
ATOM     10  C   UNL     1       5.238   4.368  15.970  0.00  0.00    +0.000 A 
ATOM     11  C   UNL     1       5.434   5.745  15.870  0.00  0.00    +0.000 A 
ATOM     12  C   UNL     1       4.686   6.625  16.653  0.00  0.00    +0.000 A 
ATOM     13  C   UNL     1       3.721   6.136  17.542  0.00  0.00    +0.000 A 
ATOM     14  C   UNL     1       3.521   4.752  17.632  0.00  0.00    +0.000 A 
ATOM     15  C   UNL     1       4.268   3.871  16.838  0.00  0.00    +0.000 A 
BRANCH  10  16
ATOM     16  O   UNL     1       6.040   3.616  15.158  0.00  0.00    +0.000 OA
BRANCH  16  18
ATOM     17  C   UNL     1       5.943   3.542  12.787  0.00  0.00    +0.000 C 
ATOM     18  C   UNL     1       6.536   4.261  13.986  0.00  0.00    +0.000 C 
ENDBRANCH  16  18
ENDBRANCH  10  16
ENDBRANCH   1  13
BRANCH   5  19
ATOM     19  O   UNL     1      -0.631  11.027  20.220  0.00  0.00    +0.000 OA
BRANCH  19  20
ATOM     20  C   UNL     1      -0.736  11.984  19.155  0.00  0.00    +0.000 C 
BRANCH  20  21
ATOM     21  C   UNL     1      -0.152  13.280  19.626  0.00  0.00    +0.000 C 
ATOM     22  C   UNL     1       1.222  13.688  19.160  0.00  0.00    +0.000 C 
ATOM     23  C   UNL     1       0.015  14.449  18.685  0.00  0.00    +0.000 C 
ENDBRANCH  20  21
ENDBRANCH  19  20
ENDBRANCH   5  19
TORSDOF 6
ENDMDL
MODEL 7
REMARK VINA RESULT:      -7.0      1.752      2.283
REMARK  Name = 
REMARK  7 active torsions:
REMARK  status: ('A' for Active; 'I' for Inactive)
REMARK    1  A    between atoms: C_1  and  C_2
REMARK    2  A    between atoms: C_2  and  O_3
REMARK    3  A    between atoms: O_3  and  C_4
REMARK    4  A    between atoms: C_7  and  C_8
REMARK    5  A    between atoms: C_12  and  O_13
REMARK    6  A    between atoms: O_13  and  C_14
REMARK    7  A    between atoms: C_14  and  C_15
REMARK                            x       y       z     vdW  Elec       q    Type
REMARK                         _______ _______ _______ _____ _____    ______ ____
ROOT
ATOM      1  C   UNL     1       3.005   6.935  18.319  0.00  0.00    +0.000 A 
ATOM      2  C   UNL     1       2.519   8.184  17.996  0.00  0.00    +0.000 A 
ATOM      3  N   UNL     1       1.780   8.579  19.073  0.00  0.00    +0.000 N 
ATOM      4  N   UNL     1       1.044   9.721  19.140  0.00  0.00    +0.000 NA
ATOM      5  C   UNL     1       0.427   9.827  20.269  0.00  0.00    +0.000 A 
ATOM      6  C   UNL     1       0.507   8.915  21.430  0.00  0.00    +0.000 A 
ATOM      7  C   UNL     1       1.226   7.799  21.260  0.00  0.00    +0.000 A 
ATOM      8  C   UNL     1       1.887   7.580  20.029  0.00  0.00    +0.000 A 
ATOM      9  N   UNL     1       2.602   6.567  19.586  0.00  0.00    +0.000 NA
ENDROOT
BRANCH   1  13
ATOM     10  C   UNL     1       5.379   4.486  15.763  0.00  0.00    +0.000 A 
ATOM     11  C   UNL     1       4.458   3.904  16.634  0.00  0.00    +0.000 A 
ATOM     12  C   UNL     1       3.668   4.702  17.464  0.00  0.00    +0.000 A 
ATOM     13  C   UNL     1       3.799   6.096  17.441  0.00  0.00    +0.000 A 
ATOM     14  C   UNL     1       4.733   6.674  16.571  0.00  0.00    +0.000 A 
ATOM     15  C   UNL     1       5.530   5.872  15.745  0.00  0.00    +0.000 A 
BRANCH  10  16
ATOM     16  O   UNL     1       6.081   3.598  14.999  0.00  0.00    +0.000 OA
BRANCH  16  18
ATOM     17  C   UNL     1       5.595   3.434  12.681  0.00  0.00    +0.000 C 
ATOM     18  C   UNL     1       6.507   4.064  13.719  0.00  0.00    +0.000 C 
ENDBRANCH  16  18
ENDBRANCH  10  16
ENDBRANCH   1  13
BRANCH   5  19
ATOM     19  O   UNL     1      -0.445  10.823  20.551  0.00  0.00    +0.000 OA
BRANCH  19  20
ATOM     20  C   UNL     1      -0.613  11.120  21.946  0.00  0.00    +0.000 C 
BRANCH  20  21
ATOM     21  C   UNL     1      -1.393  12.393  22.067  0.00  0.00    +0.000 C 
ATOM     22  C   UNL     1      -2.677  12.552  21.293  0.00  0.00    +0.000 C 
ATOM     23  C   UNL     1      -2.716  12.431  22.792  0.00  0.00    +0.000 C 
ENDBRANCH  20  21
ENDBRANCH  19  20
ENDBRANCH   5  19
TORSDOF 6
ENDMDL
MODEL 8
REMARK VINA RESULT:      -6.9      1.945      2.840
REMARK  Name = 
REMARK  7 active torsions:
REMARK  status: ('A' for Active; 'I' for Inactive)
REMARK    1  A    between atoms: C_1  and  C_2
REMARK    2  A    between atoms: C_2  and  O_3
REMARK    3  A    between atoms: O_3  and  C_4
REMARK    4  A    between atoms: C_7  and  C_8
REMARK    5  A    between atoms: C_12  and  O_13
REMARK    6  A    between atoms: O_13  and  C_14
REMARK    7  A    between atoms: C_14  and  C_15
REMARK                            x       y       z     vdW  Elec       q    Type
REMARK                         _______ _______ _______ _____ _____    ______ ____
ROOT
ATOM      1  C   UNL     1       2.793   7.250  18.244  0.00  0.00    +0.000 A 
ATOM      2  C   UNL     1       2.411   7.084  19.557  0.00  0.00    +0.000 A 
ATOM      3  N   UNL     1       1.675   8.190  19.868  0.00  0.00    +0.000 N 
ATOM      4  N   UNL     1       1.177   8.476  21.102  0.00  0.00    +0.000 NA
ATOM      5  C   UNL     1       0.541   9.600  21.111  0.00  0.00    +0.000 A 
ATOM      6  C   UNL     1       0.271  10.494  19.965  0.00  0.00    +0.000 A 
ATOM      7  C   UNL     1       0.831  10.150  18.799  0.00  0.00    +0.000 A 
ATOM      8  C   UNL     1       1.593   8.961  18.719  0.00  0.00    +0.000 A 
ATOM      9  N   UNL     1       2.281   8.425  17.732  0.00  0.00    +0.000 NA
ENDROOT
BRANCH   1  13
ATOM     10  C   UNL     1       5.345   4.605  16.087  0.00  0.00    +0.000 A 
ATOM     11  C   UNL     1       4.310   4.096  16.872  0.00  0.00    +0.000 A 
ATOM     12  C   UNL     1       3.463   4.958  17.570  0.00  0.00    +0.000 A 
ATOM     13  C   UNL     1       3.648   6.344  17.500  0.00  0.00    +0.000 A 
ATOM     14  C   UNL     1       4.695   6.849  16.717  0.00  0.00    +0.000 A 
ATOM     15  C   UNL     1       5.549   5.982  16.023  0.00  0.00    +0.000 A 
BRANCH  10  16
ATOM     16  O   UNL     1       6.095   3.659  15.447  0.00  0.00    +0.000 OA
BRANCH  16  18
ATOM     17  C   UNL     1       5.724   3.618  13.103  0.00  0.00    +0.000 C 
ATOM     18  C   UNL     1       6.676   4.048  14.204  0.00  0.00    +0.000 C 
ENDBRANCH  16  18
ENDBRANCH  10  16
ENDBRANCH   1  13
BRANCH   5  19
ATOM     19  O   UNL     1       0.032  10.158  22.234  0.00  0.00    +0.000 OA
BRANCH  19  20
ATOM     20  C   UNL     1      -0.393  11.524  22.107  0.00  0.00    +0.000 C 
BRANCH  20  21
ATOM     21  C   UNL     1      -1.501  11.767  23.083  0.00  0.00    +0.000 C 
ATOM     22  C   UNL     1      -1.897  13.182  23.421  0.00  0.00    +0.000 C 
ATOM     23  C   UNL     1      -2.835  12.311  22.631  0.00  0.00    +0.000 C 
ENDBRANCH  20  21
ENDBRANCH  19  20
ENDBRANCH   5  19
TORSDOF 6
ENDMDL
MODEL 9
REMARK VINA RESULT:      -6.9      1.968      2.852
REMARK  Name = 
REMARK  7 active torsions:
REMARK  status: ('A' for Active; 'I' for Inactive)
REMARK    1  A    between atoms: C_1  and  C_2
REMARK    2  A    between atoms: C_2  and  O_3
REMARK    3  A    between atoms: O_3  and  C_4
REMARK    4  A    between atoms: C_7  and  C_8
REMARK    5  A    between atoms: C_12  and  O_13
REMARK    6  A    between atoms: O_13  and  C_14
REMARK    7  A    between atoms: C_14  and  C_15
REMARK                            x       y       z     vdW  Elec       q    Type
REMARK                         _______ _______ _______ _____ _____    ______ ____
ROOT
ATOM      1  C   UNL     1       2.271   7.784  18.644  0.00  0.00    +0.000 A 
ATOM      2  C   UNL     1       2.045   7.866  20.001  0.00  0.00    +0.000 A 
ATOM      3  N   UNL     1       1.343   9.022  20.185  0.00  0.00    +0.000 N 
ATOM      4  N   UNL     1       0.989   9.536  21.394  0.00  0.00    +0.000 NA
ATOM      5  C   UNL     1       0.352  10.652  21.270  0.00  0.00    +0.000 A 
ATOM      6  C   UNL     1      -0.054  11.326  20.019  0.00  0.00    +0.000 A 
ATOM      7  C   UNL     1       0.369  10.766  18.879  0.00  0.00    +0.000 A 
ATOM      8  C   UNL     1       1.124   9.570  18.931  0.00  0.00    +0.000 A 
ATOM      9  N   UNL     1       1.697   8.853  17.987  0.00  0.00    +0.000 NA
ENDROOT
BRANCH   1  13
ATOM     10  C   UNL     1       4.568   4.737  16.744  0.00  0.00    +0.000 A 
ATOM     11  C   UNL     1       3.368   4.418  17.380  0.00  0.00    +0.000 A 
ATOM     12  C   UNL     1       2.605   5.412  17.992  0.00  0.00    +0.000 A 
ATOM     13  C   UNL     1       3.040   6.743  17.986  0.00  0.00    +0.000 A 
ATOM     14  C   UNL     1       4.251   7.058  17.354  0.00  0.00    +0.000 A 
ATOM     15  C   UNL     1       5.020   6.056  16.748  0.00  0.00    +0.000 A 
BRANCH  10  16
ATOM     16  O   UNL     1       5.214   3.677  16.175  0.00  0.00    +0.000 OA
BRANCH  16  18
ATOM     17  C   UNL     1       6.098   3.991  13.994  0.00  0.00    +0.000 C 
ATOM     18  C   UNL     1       6.423   3.973  15.477  0.00  0.00    +0.000 C 
ENDBRANCH  16  18
ENDBRANCH  10  16
ENDBRANCH   1  13
BRANCH   5  19
ATOM     19  O   UNL     1      -0.028  11.414  22.322  0.00  0.00    +0.000 OA
BRANCH  19  20
ATOM     20  C   UNL     1      -1.288  11.065  22.915  0.00  0.00    +0.000 C 
BRANCH  20  21
ATOM     21  C   UNL     1      -2.080  12.321  23.114  0.00  0.00    +0.000 C 
ATOM     22  C   UNL     1      -3.253  12.610  22.211  0.00  0.00    +0.000 C 
ATOM     23  C   UNL     1      -3.487  12.278  23.659  0.00  0.00    +0.000 C 
ENDBRANCH  20  21
ENDBRANCH  19  20
ENDBRANCH   5  19
TORSDOF 6
ENDMDL
