MODEL 1
REMARK VINA RESULT:      -8.7      0.000      0.000
REMARK  Name = 
REMARK  4 active torsions:
REMARK  status: ('A' for Active; 'I' for Inactive)
REMARK    1  A    between atoms: C_2  and  C_14
REMARK    2  A    between atoms: N_3  and  C_4
REMARK    3  A    between atoms: C_8  and  C_9
REMARK    4  A    between atoms: C_21  and  O_22
REMARK                            x       y       z     vdW  Elec       q    Type
REMARK                         _______ _______ _______ _____ _____    ______ ____
ROOT
ATOM      1  O   UNL     1       5.087   6.571  15.705  0.00  0.00    +0.000 OA
ATOM      2  C   UNL     1       5.115   5.455  16.214  0.00  0.00    +0.000 C 
ATOM      3  N   UNL     1       5.772   4.347  15.702  0.00  0.00    +0.000 N 
ATOM      4  H   UNL     1       5.673   3.494  16.247  0.00  0.00    +0.000 HD
ENDROOT
BRANCH   2   5
ATOM      5  C   UNL     1       4.361   5.259  17.491  0.00  0.00    +0.000 A 
ATOM      6  C   UNL     1       3.420   6.226  17.812  0.00  0.00    +0.000 A 
ATOM      7  C   UNL     1       2.715   6.098  18.990  0.00  0.00    +0.000 A 
ATOM      8  C   UNL     1       2.895   4.961  19.771  0.00  0.00    +0.000 A 
ATOM      9  C   UNL     1       2.094   4.805  20.911  0.00  0.00    +0.000 A 
ATOM     10  C   UNL     1       2.141   3.628  21.647  0.00  0.00    +0.000 A 
ATOM     11  C   UNL     1       3.013   2.620  21.258  0.00  0.00    +0.000 A 
ATOM     12  C   UNL     1       3.855   2.805  20.149  0.00  0.00    +0.000 A 
ATOM     13  C   UNL     1       3.825   3.972  19.358  0.00  0.00    +0.000 A 
ATOM     14  N   UNL     1       4.595   4.148  18.243  0.00  0.00    +0.000 NA
BRANCH  12  15
ATOM     15  O   UNL     1       4.711   1.783  19.804  0.00  0.00    +0.000 OA
ATOM     16  H   UNL     1       4.389   0.953  20.189  0.00  0.00    +0.000 HD
ENDBRANCH  12  15
ENDBRANCH   2   5
BRANCH   3  17
ATOM     17  C   UNL     1       6.392   4.280  14.431  0.00  0.00    +0.000 A 
ATOM     18  C   UNL     1       7.309   5.234  13.968  0.00  0.00    +0.000 A 
ATOM     19  C   UNL     1       7.783   5.210  12.658  0.00  0.00    +0.000 A 
ATOM     20  C   UNL     1       7.356   4.218  11.785  0.00  0.00    +0.000 A 
ATOM     21  C   UNL     1       6.476   3.222  12.230  0.00  0.00    +0.000 A 
ATOM     22  C   UNL     1       6.021   3.247  13.566  0.00  0.00    +0.000 A 
BRANCH  21  23
ATOM     23  C   UNL     1       5.995   2.153  11.284  0.00  0.00    +0.000 C 
ATOM     24  F   UNL     1       6.894   1.846  10.307  0.00  0.00    +0.000 F 
ATOM     25  F   UNL     1       5.716   0.980  11.916  0.00  0.00    +0.000 F 
ATOM     26  F   UNL     1       4.852   2.510  10.635  0.00  0.00    +0.000 F 
ENDBRANCH  21  23
ENDBRANCH   3  17
TORSDOF 4
ENDMDL
MODEL 2
REMARK VINA RESULT:      -8.4      5.652      7.391
REMARK  Name = 
REMARK  4 active torsions:
REMARK  status: ('A' for Active; 'I' for Inactive)
REMARK    1  A    between atoms: C_2  and  C_14
REMARK    2  A    between atoms: N_3  and  C_4
REMARK    3  A    between atoms: C_8  and  C_9
REMARK    4  A    between atoms: C_21  and  O_22
REMARK                            x       y       z     vdW  Elec       q    Type
REMARK                         _______ _______ _______ _____ _____    ______ ____
ROOT
ATOM      1  O   UNL     1       2.136   9.077  17.381  0.00  0.00    +0.000 OA
ATOM      2  C   UNL     1       1.736   8.749  18.494  0.00  0.00    +0.000 C 
ATOM      3  N   UNL     1       2.049   7.570  19.153  0.00  0.00    +0.000 N 
ATOM      4  H   UNL     1       1.611   7.454  20.063  0.00  0.00    +0.000 HD
ENDROOT
BRANCH   2   5
ATOM      5  C   UNL     1       0.813   9.691  19.201  0.00  0.00    +0.000 A 
ATOM      6  C   UNL     1      -0.023  10.457  18.403  0.00  0.00    +0.000 A 
ATOM      7  C   UNL     1      -0.877  11.353  19.010  0.00  0.00    +0.000 A 
ATOM      8  C   UNL     1      -0.945  11.397  20.398  0.00  0.00    +0.000 A 
ATOM      9  C   UNL     1      -1.891  12.244  20.992  0.00  0.00    +0.000 A 
ATOM     10  C   UNL     1      -2.090  12.223  22.366  0.00  0.00    +0.000 A 
ATOM     11  C   UNL     1      -1.318  11.375  23.150  0.00  0.00    +0.000 A 
ATOM     12  C   UNL     1      -0.331  10.571  22.556  0.00  0.00    +0.000 A 
ATOM     13  C   UNL     1      -0.111  10.541  21.164  0.00  0.00    +0.000 A 
ATOM     14  N   UNL     1       0.805   9.724  20.562  0.00  0.00    +0.000 NA
BRANCH  12  15
ATOM     15  O   UNL     1       0.419   9.752  23.372  0.00  0.00    +0.000 OA
ATOM     16  H   UNL     1       0.285   8.829  23.106  0.00  0.00    +0.000 HD
ENDBRANCH  12  15
ENDBRANCH   2   5
BRANCH   3  17
ATOM     17  C   UNL     1       2.759   6.483  18.589  0.00  0.00    +0.000 A 
ATOM     18  C   UNL     1       3.913   6.636  17.810  0.00  0.00    +0.000 A 
ATOM     19  C   UNL     1       4.496   5.553  17.154  0.00  0.00    +0.000 A 
ATOM     20  C   UNL     1       3.938   4.287  17.277  0.00  0.00    +0.000 A 
ATOM     21  C   UNL     1       2.811   4.093  18.088  0.00  0.00    +0.000 A 
ATOM     22  C   UNL     1       2.244   5.195  18.762  0.00  0.00    +0.000 A 
BRANCH  21  23
ATOM     23  C   UNL     1       2.190   2.726  18.212  0.00  0.00    +0.000 C 
ATOM     24  F   UNL     1       0.830   2.752  18.303  0.00  0.00    +0.000 F 
ATOM     25  F   UNL     1       2.476   1.921  17.152  0.00  0.00    +0.000 F 
ATOM     26  F   UNL     1       2.621   2.058  19.317  0.00  0.00    +0.000 F 
ENDBRANCH  21  23
ENDBRANCH   3  17
TORSDOF 4
ENDMDL
MODEL 3
REMARK VINA RESULT:      -8.3      5.574      7.485
REMARK  Name = 
REMARK  4 active torsions:
REMARK  status: ('A' for Active; 'I' for Inactive)
REMARK    1  A    between atoms: C_2  and  C_14
REMARK    2  A    between atoms: N_3  and  C_4
REMARK    3  A    between atoms: C_8  and  C_9
REMARK    4  A    between atoms: C_21  and  O_22
REMARK                            x       y       z     vdW  Elec       q    Type
REMARK                         _______ _______ _______ _____ _____    ______ ____
ROOT
ATOM      1  O   UNL     1       2.231   8.178  17.811  0.00  0.00    +0.000 OA
ATOM      2  C   UNL     1       1.910   8.133  18.995  0.00  0.00    +0.000 C 
ATOM      3  N   UNL     1       2.271   7.145  19.897  0.00  0.00    +0.000 N 
ATOM      4  H   UNL     1       1.898   7.258  20.836  0.00  0.00    +0.000 HD
ENDROOT
BRANCH   2   5
ATOM      5  C   UNL     1       1.033   9.230  19.514  0.00  0.00    +0.000 A 
ATOM      6  C   UNL     1       0.372   9.997  18.567  0.00  0.00    +0.000 A 
ATOM      7  C   UNL     1      -0.431  11.032  18.998  0.00  0.00    +0.000 A 
ATOM      8  C   UNL     1      -0.630  11.217  20.362  0.00  0.00    +0.000 A 
ATOM      9  C   UNL     1      -1.529  12.211  20.774  0.00  0.00    +0.000 A 
ATOM     10  C   UNL     1      -1.864  12.344  22.115  0.00  0.00    +0.000 A 
ATOM     11  C   UNL     1      -1.273  11.501  23.048  0.00  0.00    +0.000 A 
ATOM     12  C   UNL     1      -0.329  10.546  22.637  0.00  0.00    +0.000 A 
ATOM     13  C   UNL     1       0.022  10.358  21.284  0.00  0.00    +0.000 A 
ATOM     14  N   UNL     1       0.895   9.397  20.858  0.00  0.00    +0.000 NA
BRANCH  12  15
ATOM     15  O   UNL     1       0.239   9.737  23.596  0.00  0.00    +0.000 OA
ATOM     16  H   UNL     1       0.875  10.254  24.114  0.00  0.00    +0.000 HD
ENDBRANCH  12  15
ENDBRANCH   2   5
BRANCH   3  17
ATOM     17  C   UNL     1       2.946   5.945  19.567  0.00  0.00    +0.000 A 
ATOM     18  C   UNL     1       4.337   5.856  19.425  0.00  0.00    +0.000 A 
ATOM     19  C   UNL     1       4.947   4.693  18.956  0.00  0.00    +0.000 A 
ATOM     20  C   UNL     1       4.171   3.588  18.631  0.00  0.00    +0.000 A 
ATOM     21  C   UNL     1       2.781   3.630  18.806  0.00  0.00    +0.000 A 
ATOM     22  C   UNL     1       2.180   4.807  19.301  0.00  0.00    +0.000 A 
BRANCH  21  23
ATOM     23  C   UNL     1       1.931   2.441  18.437  0.00  0.00    +0.000 C 
ATOM     24  F   UNL     1       2.328   1.823  17.289  0.00  0.00    +0.000 F 
ATOM     25  F   UNL     1       1.933   1.477  19.398  0.00  0.00    +0.000 F 
ATOM     26  F   UNL     1       0.626   2.775  18.244  0.00  0.00    +0.000 F 
ENDBRANCH  21  23
ENDBRANCH   3  17
TORSDOF 4
ENDMDL
MODEL 4
REMARK VINA RESULT:      -8.2      5.057      6.852
REMARK  Name = 
REMARK  4 active torsions:
REMARK  status: ('A' for Active; 'I' for Inactive)
REMARK    1  A    between atoms: C_2  and  C_14
REMARK    2  A    between atoms: N_3  and  C_4
REMARK    3  A    between atoms: C_8  and  C_9
REMARK    4  A    between atoms: C_21  and  O_22
REMARK                            x       y       z     vdW  Elec       q    Type
REMARK                         _______ _______ _______ _____ _____    ______ ____
ROOT
ATOM      1  O   UNL     1       2.260   8.433  17.575  0.00  0.00    +0.000 OA
ATOM      2  C   UNL     1       2.216   7.934  18.695  0.00  0.00    +0.000 C 
ATOM      3  N   UNL     1       2.821   6.749  19.080  0.00  0.00    +0.000 N 
ATOM      4  H   UNL     1       2.662   6.475  20.046  0.00  0.00    +0.000 HD
ENDROOT
BRANCH   2   5
ATOM      5  C   UNL     1       1.423   8.655  19.740  0.00  0.00    +0.000 A 
ATOM      6  C   UNL     1       1.474   8.137  21.026  0.00  0.00    +0.000 A 
ATOM      7  C   UNL     1       0.743   8.757  22.017  0.00  0.00    +0.000 A 
ATOM      8  C   UNL     1       0.056   9.930  21.725  0.00  0.00    +0.000 A 
ATOM      9  C   UNL     1      -0.598  10.596  22.772  0.00  0.00    +0.000 A 
ATOM     10  C   UNL     1      -1.183  11.837  22.559  0.00  0.00    +0.000 A 
ATOM     11  C   UNL     1      -1.140  12.398  21.289  0.00  0.00    +0.000 A 
ATOM     12  C   UNL     1      -0.535  11.699  20.231  0.00  0.00    +0.000 A 
ATOM     13  C   UNL     1       0.093  10.449  20.405  0.00  0.00    +0.000 A 
ATOM     14  N   UNL     1       0.736   9.781  19.401  0.00  0.00    +0.000 NA
BRANCH  12  15
ATOM     15  O   UNL     1      -0.523  12.288  18.985  0.00  0.00    +0.000 OA
ATOM     16  H   UNL     1      -0.834  11.648  18.326  0.00  0.00    +0.000 HD
ENDBRANCH  12  15
ENDBRANCH   2   5
BRANCH   3  17
ATOM     17  C   UNL     1       3.465   5.840  18.206  0.00  0.00    +0.000 A 
ATOM     18  C   UNL     1       2.866   4.663  17.737  0.00  0.00    +0.000 A 
ATOM     19  C   UNL     1       3.585   3.725  16.999  0.00  0.00    +0.000 A 
ATOM     20  C   UNL     1       4.922   3.955  16.703  0.00  0.00    +0.000 A 
ATOM     21  C   UNL     1       5.538   5.144  17.117  0.00  0.00    +0.000 A 
ATOM     22  C   UNL     1       4.791   6.094  17.846  0.00  0.00    +0.000 A 
BRANCH  21  23
ATOM     23  C   UNL     1       6.994   5.393  16.815  0.00  0.00    +0.000 C 
ATOM     24  F   UNL     1       7.274   5.434  15.482  0.00  0.00    +0.000 F 
ATOM     25  F   UNL     1       7.442   6.572  17.327  0.00  0.00    +0.000 F 
ATOM     26  F   UNL     1       7.803   4.428  17.333  0.00  0.00    +0.000 F 
ENDBRANCH  21  23
ENDBRANCH   3  17
TORSDOF 4
ENDMDL
MODEL 5
REMARK VINA RESULT:      -8.2      5.342      6.883
REMARK  Name = 
REMARK  4 active torsions:
REMARK  status: ('A' for Active; 'I' for Inactive)
REMARK    1  A    between atoms: C_2  and  C_14
REMARK    2  A    between atoms: N_3  and  C_4
REMARK    3  A    between atoms: C_8  and  C_9
REMARK    4  A    between atoms: C_21  and  O_22
REMARK                            x       y       z     vdW  Elec       q    Type
REMARK                         _______ _______ _______ _____ _____    ______ ____
ROOT
ATOM      1  O   UNL     1       2.187   6.371  20.529  0.00  0.00    +0.000 OA
ATOM      2  C   UNL     1       2.121   7.225  19.651  0.00  0.00    +0.000 C 
ATOM      3  N   UNL     1       2.645   7.117  18.372  0.00  0.00    +0.000 N 
ATOM      4  H   UNL     1       2.515   7.933  17.780  0.00  0.00    +0.000 HD
ENDROOT
BRANCH   2   5
ATOM      5  C   UNL     1       1.433   8.511  19.988  0.00  0.00    +0.000 A 
ATOM      6  C   UNL     1       1.252   9.411  18.949  0.00  0.00    +0.000 A 
ATOM      7  C   UNL     1       0.640  10.617  19.218  0.00  0.00    +0.000 A 
ATOM      8  C   UNL     1       0.139  10.857  20.493  0.00  0.00    +0.000 A 
ATOM      9  C   UNL     1      -0.568  12.048  20.716  0.00  0.00    +0.000 A 
ATOM     10  C   UNL     1      -1.202  12.272  21.931  0.00  0.00    +0.000 A 
ATOM     11  C   UNL     1      -1.103  11.316  22.934  0.00  0.00    +0.000 A 
ATOM     12  C   UNL     1      -0.345  10.152  22.725  0.00  0.00    +0.000 A 
ATOM     13  C   UNL     1       0.295   9.870  21.501  0.00  0.00    +0.000 A 
ATOM     14  N   UNL     1       0.988   8.718  21.259  0.00  0.00    +0.000 NA
BRANCH  12  15
ATOM     15  O   UNL     1      -0.266   9.234  23.750  0.00  0.00    +0.000 OA
ATOM     16  H   UNL     1      -1.162   8.998  24.036  0.00  0.00    +0.000 HD
ENDBRANCH  12  15
ENDBRANCH   2   5
BRANCH   3  17
ATOM     17  C   UNL     1       3.473   6.063  17.916  0.00  0.00    +0.000 A 
ATOM     18  C   UNL     1       2.992   4.788  17.592  0.00  0.00    +0.000 A 
ATOM     19  C   UNL     1       3.858   3.739  17.288  0.00  0.00    +0.000 A 
ATOM     20  C   UNL     1       5.230   3.953  17.291  0.00  0.00    +0.000 A 
ATOM     21  C   UNL     1       5.742   5.228  17.565  0.00  0.00    +0.000 A 
ATOM     22  C   UNL     1       4.852   6.285  17.850  0.00  0.00    +0.000 A 
BRANCH  21  23
ATOM     23  C   UNL     1       7.230   5.463  17.587  0.00  0.00    +0.000 C 
ATOM     24  F   UNL     1       7.710   5.799  18.818  0.00  0.00    +0.000 F 
ATOM     25  F   UNL     1       7.940   4.369  17.197  0.00  0.00    +0.000 F 
ATOM     26  F   UNL     1       7.610   6.472  16.756  0.00  0.00    +0.000 F 
ENDBRANCH  21  23
ENDBRANCH   3  17
TORSDOF 4
ENDMDL
MODEL 6
REMARK VINA RESULT:      -8.2      5.208      6.850
REMARK  Name = 
REMARK  4 active torsions:
REMARK  status: ('A' for Active; 'I' for Inactive)
REMARK    1  A    between atoms: C_2  and  C_14
REMARK    2  A    between atoms: N_3  and  C_4
REMARK    3  A    between atoms: C_8  and  C_9
REMARK    4  A    between atoms: C_21  and  O_22
REMARK                            x       y       z     vdW  Elec       q    Type
REMARK                         _______ _______ _______ _____ _____    ______ ____
ROOT
ATOM      1  O   UNL     1       2.059   8.765  17.219  0.00  0.00    +0.000 OA
ATOM      2  C   UNL     1       1.981   8.485  18.411  0.00  0.00    +0.000 C 
ATOM      3  N   UNL     1       2.377   7.291  18.991  0.00  0.00    +0.000 N 
ATOM      4  H   UNL     1       2.220   7.223  19.994  0.00  0.00    +0.000 HD
ENDROOT
BRANCH   2   5
ATOM      5  C   UNL     1       1.387   9.512  19.323  0.00  0.00    +0.000 A 
ATOM      6  C   UNL     1       1.438  10.829  18.893  0.00  0.00    +0.000 A 
ATOM      7  C   UNL     1       0.921  11.812  19.711  0.00  0.00    +0.000 A 
ATOM      8  C   UNL     1       0.281  11.450  20.891  0.00  0.00    +0.000 A 
ATOM      9  C   UNL     1      -0.325  12.457  21.655  0.00  0.00    +0.000 A 
ATOM     10  C   UNL     1      -1.089  12.132  22.768  0.00  0.00    +0.000 A 
ATOM     11  C   UNL     1      -1.221  10.798  23.134  0.00  0.00    +0.000 A 
ATOM     12  C   UNL     1      -0.564   9.798  22.398  0.00  0.00    +0.000 A 
ATOM     13  C   UNL     1       0.202  10.079  21.248  0.00  0.00    +0.000 A 
ATOM     14  N   UNL     1       0.801   9.114  20.487  0.00  0.00    +0.000 NA
BRANCH  12  15
ATOM     15  O   UNL     1      -0.714   8.489  22.802  0.00  0.00    +0.000 OA
ATOM     16  H   UNL     1      -1.007   7.954  22.047  0.00  0.00    +0.000 HD
ENDBRANCH  12  15
ENDBRANCH   2   5
BRANCH   3  17
ATOM     17  C   UNL     1       2.799   6.139  18.284  0.00  0.00    +0.000 A 
ATOM     18  C   UNL     1       1.962   5.049  18.015  0.00  0.00    +0.000 A 
ATOM     19  C   UNL     1       2.456   3.876  17.446  0.00  0.00    +0.000 A 
ATOM     20  C   UNL     1       3.803   3.778  17.123  0.00  0.00    +0.000 A 
ATOM     21  C   UNL     1       4.657   4.868  17.336  0.00  0.00    +0.000 A 
ATOM     22  C   UNL     1       4.139   6.056  17.893  0.00  0.00    +0.000 A 
BRANCH  21  23
ATOM     23  C   UNL     1       6.123   4.762  17.004  0.00  0.00    +0.000 C 
ATOM     24  F   UNL     1       6.393   3.870  16.010  0.00  0.00    +0.000 F 
ATOM     25  F   UNL     1       6.655   5.946  16.596  0.00  0.00    +0.000 F 
ATOM     26  F   UNL     1       6.870   4.363  18.070  0.00  0.00    +0.000 F 
ENDBRANCH  21  23
ENDBRANCH   3  17
TORSDOF 4
ENDMDL
MODEL 7
REMARK VINA RESULT:      -8.2      6.095      8.990
REMARK  Name = 
REMARK  4 active torsions:
REMARK  status: ('A' for Active; 'I' for Inactive)
REMARK    1  A    between atoms: C_2  and  C_14
REMARK    2  A    between atoms: N_3  and  C_4
REMARK    3  A    between atoms: C_8  and  C_9
REMARK    4  A    between atoms: C_21  and  O_22
REMARK                            x       y       z     vdW  Elec       q    Type
REMARK                         _______ _______ _______ _____ _____    ______ ____
ROOT
ATOM      1  O   UNL     1       1.875   7.773  20.014  0.00  0.00    +0.000 OA
ATOM      2  C   UNL     1       2.134   7.866  18.818  0.00  0.00    +0.000 C 
ATOM      3  N   UNL     1       1.713   8.881  17.974  0.00  0.00    +0.000 N 
ATOM      4  H   UNL     1       2.005   8.787  17.004  0.00  0.00    +0.000 HD
ENDROOT
BRANCH   2   5
ATOM      5  C   UNL     1       2.960   6.780  18.204  0.00  0.00    +0.000 A 
ATOM      6  C   UNL     1       2.344   5.548  18.039  0.00  0.00    +0.000 A 
ATOM      7  C   UNL     1       3.073   4.512  17.496  0.00  0.00    +0.000 A 
ATOM      8  C   UNL     1       4.366   4.752  17.044  0.00  0.00    +0.000 A 
ATOM      9  C   UNL     1       5.051   3.709  16.404  0.00  0.00    +0.000 A 
ATOM     10  C   UNL     1       6.288   3.937  15.817  0.00  0.00    +0.000 A 
ATOM     11  C   UNL     1       6.854   5.203  15.897  0.00  0.00    +0.000 A 
ATOM     12  C   UNL     1       6.189   6.229  16.589  0.00  0.00    +0.000 A 
ATOM     13  C   UNL     1       4.921   6.051  17.179  0.00  0.00    +0.000 A 
ATOM     14  N   UNL     1       4.234   7.051  17.808  0.00  0.00    +0.000 NA
BRANCH  12  15
ATOM     15  O   UNL     1       6.791   7.467  16.652  0.00  0.00    +0.000 OA
ATOM     16  H   UNL     1       6.908   7.718  17.581  0.00  0.00    +0.000 HD
ENDBRANCH  12  15
ENDBRANCH   2   5
BRANCH   3  17
ATOM     17  C   UNL     1       0.791   9.900  18.317  0.00  0.00    +0.000 A 
ATOM     18  C   UNL     1       1.101  10.965  19.173  0.00  0.00    +0.000 A 
ATOM     19  C   UNL     1       0.123  11.862  19.600  0.00  0.00    +0.000 A 
ATOM     20  C   UNL     1      -1.187  11.716  19.166  0.00  0.00    +0.000 A 
ATOM     21  C   UNL     1      -1.521  10.688  18.272  0.00  0.00    +0.000 A 
ATOM     22  C   UNL     1      -0.516   9.800  17.832  0.00  0.00    +0.000 A 
BRANCH  21  23
ATOM     23  C   UNL     1      -2.944  10.513  17.811  0.00  0.00    +0.000 C 
ATOM     24  F   UNL     1      -3.846  11.223  18.546  0.00  0.00    +0.000 F 
ATOM     25  F   UNL     1      -3.129  10.900  16.519  0.00  0.00    +0.000 F 
ATOM     26  F   UNL     1      -3.355   9.216  17.876  0.00  0.00    +0.000 F 
ENDBRANCH  21  23
ENDBRANCH   3  17
TORSDOF 4
ENDMDL
MODEL 8
REMARK VINA RESULT:      -8.1      5.822      7.624
REMARK  Name = 
REMARK  4 active torsions:
REMARK  status: ('A' for Active; 'I' for Inactive)
REMARK    1  A    between atoms: C_2  and  C_14
REMARK    2  A    between atoms: N_3  and  C_4
REMARK    3  A    between atoms: C_8  and  C_9
REMARK    4  A    between atoms: C_21  and  O_22
REMARK                            x       y       z     vdW  Elec       q    Type
REMARK                         _______ _______ _______ _____ _____    ______ ____
ROOT
ATOM      1  O   UNL     1       1.985   8.751  17.455  0.00  0.00    +0.000 OA
ATOM      2  C   UNL     1       1.859   8.608  18.667  0.00  0.00    +0.000 C 
ATOM      3  N   UNL     1       2.244   7.495  19.397  0.00  0.00    +0.000 N 
ATOM      4  H   UNL     1       2.045   7.540  20.393  0.00  0.00    +0.000 HD
ENDROOT
BRANCH   2   5
ATOM      5  C   UNL     1       1.214   9.723  19.430  0.00  0.00    +0.000 A 
ATOM      6  C   UNL     1       1.142  10.952  18.793  0.00  0.00    +0.000 A 
ATOM      7  C   UNL     1       0.575  12.013  19.465  0.00  0.00    +0.000 A 
ATOM      8  C   UNL     1       0.008  11.802  20.718  0.00  0.00    +0.000 A 
ATOM      9  C   UNL     1      -0.651  12.872  21.339  0.00  0.00    +0.000 A 
ATOM     10  C   UNL     1      -1.346  12.677  22.525  0.00  0.00    +0.000 A 
ATOM     11  C   UNL     1      -1.355  11.415  23.106  0.00  0.00    +0.000 A 
ATOM     12  C   UNL     1      -0.644  10.360  22.510  0.00  0.00    +0.000 A 
ATOM     13  C   UNL     1       0.055  10.506  21.294  0.00  0.00    +0.000 A 
ATOM     14  N   UNL     1       0.705   9.478  20.670  0.00  0.00    +0.000 NA
BRANCH  12  15
ATOM     15  O   UNL     1      -0.672   9.128  23.124  0.00  0.00    +0.000 OA
ATOM     16  H   UNL     1      -0.047   9.126  23.866  0.00  0.00    +0.000 HD
ENDBRANCH  12  15
ENDBRANCH   2   5
BRANCH   3  17
ATOM     17  C   UNL     1       2.709   6.277  18.845  0.00  0.00    +0.000 A 
ATOM     18  C   UNL     1       3.693   6.207  17.849  0.00  0.00    +0.000 A 
ATOM     19  C   UNL     1       4.016   5.000  17.230  0.00  0.00    +0.000 A 
ATOM     20  C   UNL     1       3.365   3.833  17.607  0.00  0.00    +0.000 A 
ATOM     21  C   UNL     1       2.410   3.862  18.633  0.00  0.00    +0.000 A 
ATOM     22  C   UNL     1       2.108   5.087  19.265  0.00  0.00    +0.000 A 
BRANCH  21  23
ATOM     23  C   UNL     1       1.687   2.602  19.035  0.00  0.00    +0.000 C 
ATOM     24  F   UNL     1       2.374   1.463  18.741  0.00  0.00    +0.000 F 
ATOM     25  F   UNL     1       1.430   2.549  20.370  0.00  0.00    +0.000 F 
ATOM     26  F   UNL     1       0.481   2.475  18.416  0.00  0.00    +0.000 F 
ENDBRANCH  21  23
ENDBRANCH   3  17
TORSDOF 4
ENDMDL
MODEL 9
REMARK VINA RESULT:      -8.1      5.583      7.282
REMARK  Name = 
REMARK  4 active torsions:
REMARK  status: ('A' for Active; 'I' for Inactive)
REMARK    1  A    between atoms: C_2  and  C_14
REMARK    2  A    between atoms: N_3  and  C_4
REMARK    3  A    between atoms: C_8  and  C_9
REMARK    4  A    between atoms: C_21  and  O_22
REMARK                            x       y       z     vdW  Elec       q    Type
REMARK                         _______ _______ _______ _____ _____    ______ ____
ROOT
ATOM      1  O   UNL     1       2.309   8.930  17.341  0.00  0.00    +0.000 OA
ATOM      2  C   UNL     1       1.857   8.577  18.425  0.00  0.00    +0.000 C 
ATOM      3  N   UNL     1       2.122   7.375  19.062  0.00  0.00    +0.000 N 
ATOM      4  H   UNL     1       1.644   7.240  19.949  0.00  0.00    +0.000 HD
ENDROOT
BRANCH   2   5
ATOM      5  C   UNL     1       0.919   9.514  19.121  0.00  0.00    +0.000 A 
ATOM      6  C   UNL     1       0.036  10.219  18.317  0.00  0.00    +0.000 A 
ATOM      7  C   UNL     1      -0.833  11.108  18.912  0.00  0.00    +0.000 A 
ATOM      8  C   UNL     1      -0.866  11.204  20.299  0.00  0.00    +0.000 A 
ATOM      9  C   UNL     1      -1.827  12.041  20.885  0.00  0.00    +0.000 A 
ATOM     10  C   UNL     1      -1.988  12.068  22.264  0.00  0.00    +0.000 A 
ATOM     11  C   UNL     1      -1.166  11.279  23.058  0.00  0.00    +0.000 A 
ATOM     12  C   UNL     1      -0.167  10.487  22.469  0.00  0.00    +0.000 A 
ATOM     13  C   UNL     1       0.018  10.409  21.074  0.00  0.00    +0.000 A 
ATOM     14  N   UNL     1       0.946   9.601  20.479  0.00  0.00    +0.000 NA
BRANCH  12  15
ATOM     15  O   UNL     1       0.632   9.727  23.295  0.00  0.00    +0.000 OA
ATOM     16  H   UNL     1       0.632   8.808  22.983  0.00  0.00    +0.000 HD
ENDBRANCH  12  15
ENDBRANCH   2   5
BRANCH   3  17
ATOM     17  C   UNL     1       2.839   6.292  18.497  0.00  0.00    +0.000 A 
ATOM     18  C   UNL     1       2.225   5.131  18.011  0.00  0.00    +0.000 A 
ATOM     19  C   UNL     1       2.975   4.030  17.598  0.00  0.00    +0.000 A 
ATOM     20  C   UNL     1       4.362   4.078  17.655  0.00  0.00    +0.000 A 
ATOM     21  C   UNL     1       5.007   5.243  18.092  0.00  0.00    +0.000 A 
ATOM     22  C   UNL     1       4.235   6.356  18.486  0.00  0.00    +0.000 A 
BRANCH  21  23
ATOM     23  C   UNL     1       6.511   5.295  18.172  0.00  0.00    +0.000 C 
ATOM     24  F   UNL     1       7.124   4.210  17.622  0.00  0.00    +0.000 F 
ATOM     25  F   UNL     1       7.033   6.379  17.536  0.00  0.00    +0.000 F 
ATOM     26  F   UNL     1       6.961   5.361  19.455  0.00  0.00    +0.000 F 
ENDBRANCH  21  23
ENDBRANCH   3  17
TORSDOF 4
ENDMDL
