MODEL 1
REMARK VINA RESULT:      -6.1      0.000      0.000
REMARK  Name = 
REMARK  9 active torsions:
REMARK  status: ('A' for Active; 'I' for Inactive)
REMARK    1  A    between atoms: C_1  and  C_2
REMARK    2  A    between atoms: C_2  and  C_3
REMARK    3  A    between atoms: C_6  and  C_7
REMARK    4  A    between atoms: C_10  and  C_11
REMARK    5  A    between atoms: C_11  and  O_13
REMARK    6  A    between atoms: C_14  and  C_15
REMARK    7  A    between atoms: N_21  and  S_22
REMARK    8  A    between atoms: S_22  and  C_25
REMARK    9  A    between atoms: C_28  and  C_29
REMARK                            x       y       z     vdW  Elec       q    Type
REMARK                         _______ _______ _______ _____ _____    ______ ____
ROOT
ATOM      1  C   UNL     1       0.241  10.992  18.589  0.00  0.00    +0.000 C 
ATOM      2  C   UNL     1       0.946   9.673  18.980  0.00  0.00    +0.000 C 
ATOM      3  C   UNL     1       0.616   9.220  20.377  0.00  0.00    +0.000 C 
ATOM      4  C   UNL     1       0.146  10.078  21.308  0.00  0.00    +0.000 C 
ATOM      5  C   UNL     1       0.042  11.593  21.111  0.00  0.00    +0.000 C 
ATOM      6  N   UNL     1       0.438  11.979  19.711  0.00  0.00    +0.000 NA
ENDROOT
BRANCH   1  10
ATOM      7  C   UNL     1      -4.027  10.683  17.849  0.00  0.00    +0.000 A 
ATOM      8  C   UNL     1      -3.289   9.523  18.088  0.00  0.00    +0.000 A 
ATOM      9  C   UNL     1      -1.894   9.581  18.205  0.00  0.00    +0.000 A 
ATOM     10  C   UNL     1      -1.207  10.806  18.122  0.00  0.00    +0.000 A 
ATOM     11  C   UNL     1      -1.933  11.918  17.673  0.00  0.00    +0.000 A 
ATOM     12  C   UNL     1      -3.324  11.855  17.535  0.00  0.00    +0.000 A 
BRANCH   7  14
ATOM     13  C   UNL     1      -6.038  11.698  19.109  0.00  0.00    +0.000 C 
ATOM     14  C   UNL     1      -5.528  10.758  18.019  0.00  0.00    +0.000 C 
ENDBRANCH   7  14
ENDBRANCH   1  10
BRANCH   5  15
ATOM     15  C   UNL     1      -1.252  12.220  21.631  0.00  0.00    +0.000 A 
ATOM     16  C   UNL     1      -1.245  13.075  22.746  0.00  0.00    +0.000 A 
ATOM     17  C   UNL     1      -2.420  13.699  23.190  0.00  0.00    +0.000 A 
ATOM     18  C   UNL     1      -3.631  13.459  22.548  0.00  0.00    +0.000 A 
ATOM     19  C   UNL     1      -3.664  12.600  21.466  0.00  0.00    +0.000 A 
ATOM     20  C   UNL     1      -2.487  11.989  21.029  0.00  0.00    +0.000 A 
ENDBRANCH   5  15
BRANCH   6  21
ATOM     21  S   UNL     1       0.633  13.608  19.315  0.00  0.00    +0.000 S 
ATOM     22  O   UNL     1       1.306  13.681  18.031  0.00  0.00    +0.000 OA
ATOM     23  O   UNL     1      -0.610  14.314  19.512  0.00  0.00    +0.000 OA
BRANCH  21  24
ATOM     24  C   UNL     1       1.810  14.222  20.518  0.00  0.00    +0.000 A 
ATOM     25  C   UNL     1       1.419  15.210  21.425  0.00  0.00    +0.000 A 
ATOM     26  C   UNL     1       2.323  15.671  22.387  0.00  0.00    +0.000 A 
ATOM     27  C   UNL     1       3.624  15.157  22.445  0.00  0.00    +0.000 A 
ATOM     28  C   UNL     1       4.619  15.658  23.458  0.00  0.00    +0.000 C 
ATOM     29  C   UNL     1       3.994  14.135  21.554  0.00  0.00    +0.000 A 
ATOM     30  C   UNL     1       3.085  13.657  20.606  0.00  0.00    +0.000 A 
ENDBRANCH  21  24
ENDBRANCH   6  21
BRANCH   4  31
ATOM     31  C   UNL     1      -0.122   9.593  22.685  0.00  0.00    +0.000 C 
ATOM     32  O   UNL     1       0.365  10.105  23.679  0.00  0.00    +0.000 OA
BRANCH  31  33
ATOM     33  O   UNL     1      -0.951   8.529  22.749  0.00  0.00    +0.000 OA
ATOM     34  H   UNL     1      -1.395   8.401  23.604  0.00  0.00    +0.000 HD
ENDBRANCH  31  33
ENDBRANCH   4  31
TORSDOF 7
ENDMDL
MODEL 2
REMARK VINA RESULT:      -6.0      1.611      2.333
REMARK  Name = 
REMARK  9 active torsions:
REMARK  status: ('A' for Active; 'I' for Inactive)
REMARK    1  A    between atoms: C_1  and  C_2
REMARK    2  A    between atoms: C_2  and  C_3
REMARK    3  A    between atoms: C_6  and  C_7
REMARK    4  A    between atoms: C_10  and  C_11
REMARK    5  A    between atoms: C_11  and  O_13
REMARK    6  A    between atoms: C_14  and  C_15
REMARK    7  A    between atoms: N_21  and  S_22
REMARK    8  A    between atoms: S_22  and  C_25
REMARK    9  A    between atoms: C_28  and  C_29
REMARK                            x       y       z     vdW  Elec       q    Type
REMARK                         _______ _______ _______ _____ _____    ______ ____
ROOT
ATOM      1  C   UNL     1       0.601  11.545  19.170  0.00  0.00    +0.000 C 
ATOM      2  C   UNL     1       1.414  10.266  19.478  0.00  0.00    +0.000 C 
ATOM      3  C   UNL     1       0.953   9.561  20.724  0.00  0.00    +0.000 C 
ATOM      4  C   UNL     1       0.243  10.199  21.680  0.00  0.00    +0.000 C 
ATOM      5  C   UNL     1      -0.034  11.706  21.686  0.00  0.00    +0.000 C 
ATOM      6  N   UNL     1       0.502  12.354  20.437  0.00  0.00    +0.000 NA
ENDROOT
BRANCH   1  10
ATOM      7  C   UNL     1      -2.804  10.495  16.688  0.00  0.00    +0.000 A 
ATOM      8  C   UNL     1      -2.359  11.818  16.715  0.00  0.00    +0.000 A 
ATOM      9  C   UNL     1      -1.346  12.208  17.600  0.00  0.00    +0.000 A 
ATOM     10  C   UNL     1      -0.726  11.277  18.454  0.00  0.00    +0.000 A 
ATOM     11  C   UNL     1      -1.325  10.014  18.565  0.00  0.00    +0.000 A 
ATOM     12  C   UNL     1      -2.353   9.631  17.696  0.00  0.00    +0.000 A 
BRANCH   7  14
ATOM     13  C   UNL     1      -3.059  10.008  14.167  0.00  0.00    +0.000 C 
ATOM     14  C   UNL     1      -3.653   9.931  15.572  0.00  0.00    +0.000 C 
ENDBRANCH   7  14
ENDBRANCH   1  10
BRANCH   5  15
ATOM     15  C   UNL     1      -1.462  12.092  22.073  0.00  0.00    +0.000 A 
ATOM     16  C   UNL     1      -1.799  12.371  23.409  0.00  0.00    +0.000 A 
ATOM     17  C   UNL     1      -3.092  12.784  23.761  0.00  0.00    +0.000 A 
ATOM     18  C   UNL     1      -4.083  12.899  22.791  0.00  0.00    +0.000 A 
ATOM     19  C   UNL     1      -3.779  12.604  21.475  0.00  0.00    +0.000 A 
ATOM     20  C   UNL     1      -2.487  12.200  21.136  0.00  0.00    +0.000 A 
ENDBRANCH   5  15
BRANCH   6  21
ATOM     21  S   UNL     1       0.530  14.037  20.314  0.00  0.00    +0.000 S 
ATOM     22  O   UNL     1      -0.401  14.425  19.270  0.00  0.00    +0.000 OA
ATOM     23  O   UNL     1       0.422  14.628  21.626  0.00  0.00    +0.000 OA
BRANCH  21  24
ATOM     24  C   UNL     1       2.162  14.410  19.676  0.00  0.00    +0.000 A 
ATOM     25  C   UNL     1       3.255  14.431  20.545  0.00  0.00    +0.000 A 
ATOM     26  C   UNL     1       4.537  14.690  20.048  0.00  0.00    +0.000 A 
ATOM     27  C   UNL     1       4.735  14.940  18.685  0.00  0.00    +0.000 A 
ATOM     28  C   UNL     1       6.102  15.244  18.136  0.00  0.00    +0.000 C 
ATOM     29  C   UNL     1       3.634  14.876  17.813  0.00  0.00    +0.000 A 
ATOM     30  C   UNL     1       2.356  14.595  18.304  0.00  0.00    +0.000 A 
ENDBRANCH  21  24
ENDBRANCH   6  21
BRANCH   4  31
ATOM     31  C   UNL     1      -0.151   9.472  22.912  0.00  0.00    +0.000 C 
ATOM     32  O   UNL     1       0.329   9.709  24.008  0.00  0.00    +0.000 OA
BRANCH  31  33
ATOM     33  O   UNL     1      -1.086   8.517  22.720  0.00  0.00    +0.000 OA
ATOM     34  H   UNL     1      -1.975   8.846  22.500  0.00  0.00    +0.000 HD
ENDBRANCH  31  33
ENDBRANCH   4  31
TORSDOF 7
ENDMDL
MODEL 3
REMARK VINA RESULT:      -5.9      0.852      1.623
REMARK  Name = 
REMARK  9 active torsions:
REMARK  status: ('A' for Active; 'I' for Inactive)
REMARK    1  A    between atoms: C_1  and  C_2
REMARK    2  A    between atoms: C_2  and  C_3
REMARK    3  A    between atoms: C_6  and  C_7
REMARK    4  A    between atoms: C_10  and  C_11
REMARK    5  A    between atoms: C_11  and  O_13
REMARK    6  A    between atoms: C_14  and  C_15
REMARK    7  A    between atoms: N_21  and  S_22
REMARK    8  A    between atoms: S_22  and  C_25
REMARK    9  A    between atoms: C_28  and  C_29
REMARK                            x       y       z     vdW  Elec       q    Type
REMARK                         _______ _______ _______ _____ _____    ______ ____
ROOT
ATOM      1  C   UNL     1      -0.333  11.375  18.950  0.00  0.00    +0.000 C 
ATOM      2  C   UNL     1       0.368  10.002  19.079  0.00  0.00    +0.000 C 
ATOM      3  C   UNL     1       0.330   9.451  20.478  0.00  0.00    +0.000 C 
ATOM      4  C   UNL     1       0.124  10.247  21.549  0.00  0.00    +0.000 C 
ATOM      5  C   UNL     1       0.063  11.776  21.488  0.00  0.00    +0.000 C 
ATOM      6  N   UNL     1       0.161  12.259  20.065  0.00  0.00    +0.000 NA
ENDROOT
BRANCH   1  10
ATOM      7  C   UNL     1      -4.567  11.421  17.988  0.00  0.00    +0.000 A 
ATOM      8  C   UNL     1      -4.078  12.290  18.964  0.00  0.00    +0.000 A 
ATOM      9  C   UNL     1      -2.744  12.209  19.383  0.00  0.00    +0.000 A 
ATOM     10  C   UNL     1      -1.855  11.282  18.807  0.00  0.00    +0.000 A 
ATOM     11  C   UNL     1      -2.410  10.286  17.992  0.00  0.00    +0.000 A 
ATOM     12  C   UNL     1      -3.750  10.353  17.591  0.00  0.00    +0.000 A 
BRANCH   7  14
ATOM     13  C   UNL     1      -7.130  11.685  18.140  0.00  0.00    +0.000 C 
ATOM     14  C   UNL     1      -5.878  11.641  17.267  0.00  0.00    +0.000 C 
ENDBRANCH   7  14
ENDBRANCH   1  10
BRANCH   5  15
ATOM     15  C   UNL     1      -1.048  12.407  22.328  0.00  0.00    +0.000 A 
ATOM     16  C   UNL     1      -2.355  11.891  22.304  0.00  0.00    +0.000 A 
ATOM     17  C   UNL     1      -3.363  12.428  23.118  0.00  0.00    +0.000 A 
ATOM     18  C   UNL     1      -3.094  13.509  23.951  0.00  0.00    +0.000 A 
ATOM     19  C   UNL     1      -1.821  14.048  23.970  0.00  0.00    +0.000 A 
ATOM     20  C   UNL     1      -0.825  13.502  23.160  0.00  0.00    +0.000 A 
ENDBRANCH   5  15
BRANCH   6  21
ATOM     21  S   UNL     1       0.353  13.906  19.752  0.00  0.00    +0.000 S 
ATOM     22  O   UNL     1       0.844  14.051  18.394  0.00  0.00    +0.000 OA
ATOM     23  O   UNL     1      -0.827  14.626  20.166  0.00  0.00    +0.000 OA
BRANCH  21  24
ATOM     24  C   UNL     1       1.705  14.408  20.815  0.00  0.00    +0.000 A 
ATOM     25  C   UNL     1       2.915  13.713  20.767  0.00  0.00    +0.000 A 
ATOM     26  C   UNL     1       3.986  14.118  21.571  0.00  0.00    +0.000 A 
ATOM     27  C   UNL     1       3.853  15.213  22.434  0.00  0.00    +0.000 A 
ATOM     28  C   UNL     1       4.985  15.650  23.324  0.00  0.00    +0.000 C 
ATOM     29  C   UNL     1       2.644  15.930  22.445  0.00  0.00    +0.000 A 
ATOM     30  C   UNL     1       1.580  15.540  21.625  0.00  0.00    +0.000 A 
ENDBRANCH  21  24
ENDBRANCH   6  21
BRANCH   4  31
ATOM     31  C   UNL     1       0.141   9.662  22.913  0.00  0.00    +0.000 C 
ATOM     32  O   UNL     1       1.117   9.701  23.643  0.00  0.00    +0.000 OA
BRANCH  31  33
ATOM     33  O   UNL     1      -1.019   9.077  23.282  0.00  0.00    +0.000 OA
ATOM     34  H   UNL     1      -1.804   9.363  22.785  0.00  0.00    +0.000 HD
ENDBRANCH  31  33
ENDBRANCH   4  31
TORSDOF 7
ENDMDL
MODEL 4
REMARK VINA RESULT:      -5.9      0.721      1.414
REMARK  Name = 
REMARK  9 active torsions:
REMARK  status: ('A' for Active; 'I' for Inactive)
REMARK    1  A    between atoms: C_1  and  C_2
REMARK    2  A    between atoms: C_2  and  C_3
REMARK    3  A    between atoms: C_6  and  C_7
REMARK    4  A    between atoms: C_10  and  C_11
REMARK    5  A    between atoms: C_11  and  O_13
REMARK    6  A    between atoms: C_14  and  C_15
REMARK    7  A    between atoms: N_21  and  S_22
REMARK    8  A    between atoms: S_22  and  C_25
REMARK    9  A    between atoms: C_28  and  C_29
REMARK                            x       y       z     vdW  Elec       q    Type
REMARK                         _______ _______ _______ _____ _____    ______ ____
ROOT
ATOM      1  C   UNL     1       0.418  10.853  18.735  0.00  0.00    +0.000 C 
ATOM      2  C   UNL     1       0.960   9.582  19.431  0.00  0.00    +0.000 C 
ATOM      3  C   UNL     1       0.450   9.417  20.836  0.00  0.00    +0.000 C 
ATOM      4  C   UNL     1      -0.036  10.461  21.542  0.00  0.00    +0.000 C 
ATOM      5  C   UNL     1       0.016  11.918  21.072  0.00  0.00    +0.000 C 
ATOM      6  N   UNL     1       0.586  12.013  19.683  0.00  0.00    +0.000 NA
ENDROOT
BRANCH   1  10
ATOM      7  C   UNL     1      -3.757  10.736  17.548  0.00  0.00    +0.000 A 
ATOM      8  C   UNL     1      -3.180   9.607  18.131  0.00  0.00    +0.000 A 
ATOM      9  C   UNL     1      -1.808   9.574  18.408  0.00  0.00    +0.000 A 
ATOM     10  C   UNL     1      -0.984  10.684  18.142  0.00  0.00    +0.000 A 
ATOM     11  C   UNL     1      -1.532  11.716  17.368  0.00  0.00    +0.000 A 
ATOM     12  C   UNL     1      -2.900  11.739  17.072  0.00  0.00    +0.000 A 
BRANCH   7  14
ATOM     13  C   UNL     1      -5.727  12.356  17.948  0.00  0.00    +0.000 C 
ATOM     14  C   UNL     1      -5.250  10.974  17.505  0.00  0.00    +0.000 C 
ENDBRANCH   7  14
ENDBRANCH   1  10
BRANCH   5  15
ATOM     15  C   UNL     1      -1.265  12.717  21.321  0.00  0.00    +0.000 A 
ATOM     16  C   UNL     1      -2.460  12.394  20.656  0.00  0.00    +0.000 A 
ATOM     17  C   UNL     1      -3.650  13.084  20.925  0.00  0.00    +0.000 A 
ATOM     18  C   UNL     1      -3.666  14.131  21.842  0.00  0.00    +0.000 A 
ATOM     19  C   UNL     1      -2.495  14.481  22.487  0.00  0.00    +0.000 A 
ATOM     20  C   UNL     1      -1.317  13.783  22.216  0.00  0.00    +0.000 A 
ENDBRANCH   5  15
BRANCH   6  21
ATOM     21  S   UNL     1       0.964  13.525  19.034  0.00  0.00    +0.000 S 
ATOM     22  O   UNL     1       1.903  13.324  17.946  0.00  0.00    +0.000 OA
ATOM     23  O   UNL     1      -0.246  14.277  18.806  0.00  0.00    +0.000 OA
BRANCH  21  24
ATOM     24  C   UNL     1       1.887  14.347  20.330  0.00  0.00    +0.000 A 
ATOM     25  C   UNL     1       3.098  13.804  20.766  0.00  0.00    +0.000 A 
ATOM     26  C   UNL     1       3.840  14.458  21.755  0.00  0.00    +0.000 A 
ATOM     27  C   UNL     1       3.376  15.651  22.322  0.00  0.00    +0.000 A 
ATOM     28  C   UNL     1       4.149  16.357  23.403  0.00  0.00    +0.000 C 
ATOM     29  C   UNL     1       2.177  16.210  21.846  0.00  0.00    +0.000 A 
ATOM     30  C   UNL     1       1.445  15.570  20.842  0.00  0.00    +0.000 A 
ENDBRANCH  21  24
ENDBRANCH   6  21
BRANCH   4  31
ATOM     31  C   UNL     1      -0.486  10.256  22.941  0.00  0.00    +0.000 C 
ATOM     32  O   UNL     1      -1.608  10.537  23.329  0.00  0.00    +0.000 OA
BRANCH  31  33
ATOM     33  O   UNL     1       0.454   9.733  23.757  0.00  0.00    +0.000 OA
ATOM     34  H   UNL     1       0.120   9.124  24.438  0.00  0.00    +0.000 HD
ENDBRANCH  31  33
ENDBRANCH   4  31
TORSDOF 7
ENDMDL
MODEL 5
REMARK VINA RESULT:      -5.9      1.117      1.771
REMARK  Name = 
REMARK  9 active torsions:
REMARK  status: ('A' for Active; 'I' for Inactive)
REMARK    1  A    between atoms: C_1  and  C_2
REMARK    2  A    between atoms: C_2  and  C_3
REMARK    3  A    between atoms: C_6  and  C_7
REMARK    4  A    between atoms: C_10  and  C_11
REMARK    5  A    between atoms: C_11  and  O_13
REMARK    6  A    between atoms: C_14  and  C_15
REMARK    7  A    between atoms: N_21  and  S_22
REMARK    8  A    between atoms: S_22  and  C_25
REMARK    9  A    between atoms: C_28  and  C_29
REMARK                            x       y       z     vdW  Elec       q    Type
REMARK                         _______ _______ _______ _____ _____    ______ ____
ROOT
ATOM      1  C   UNL     1      -1.085  11.709  18.977  0.00  0.00    +0.000 C 
ATOM      2  C   UNL     1      -0.398  10.324  18.923  0.00  0.00    +0.000 C 
ATOM      3  C   UNL     1      -0.287   9.669  20.272  0.00  0.00    +0.000 C 
ATOM      4  C   UNL     1      -0.356  10.383  21.416  0.00  0.00    +0.000 C 
ATOM      5  C   UNL     1      -0.398  11.913  21.476  0.00  0.00    +0.000 C 
ATOM      6  N   UNL     1      -0.453  12.502  20.092  0.00  0.00    +0.000 NA
ENDROOT
BRANCH   1  10
ATOM      7  C   UNL     1      -5.399  11.858  18.507  0.00  0.00    +0.000 A 
ATOM      8  C   UNL     1      -4.789  12.656  19.476  0.00  0.00    +0.000 A 
ATOM      9  C   UNL     1      -3.418  12.535  19.734  0.00  0.00    +0.000 A 
ATOM     10  C   UNL     1      -2.615  11.639  19.003  0.00  0.00    +0.000 A 
ATOM     11  C   UNL     1      -3.275  10.705  18.193  0.00  0.00    +0.000 A 
ATOM     12  C   UNL     1      -4.650  10.811  17.952  0.00  0.00    +0.000 A 
BRANCH   7  14
ATOM     13  C   UNL     1      -6.878  13.248  16.912  0.00  0.00    +0.000 C 
ATOM     14  C   UNL     1      -6.779  12.137  17.955  0.00  0.00    +0.000 C 
ENDBRANCH   7  14
ENDBRANCH   1  10
BRANCH   5  15
ATOM     15  C   UNL     1      -1.396  12.487  22.482  0.00  0.00    +0.000 A 
ATOM     16  C   UNL     1      -1.045  13.558  23.321  0.00  0.00    +0.000 A 
ATOM     17  C   UNL     1      -1.975  14.127  24.202  0.00  0.00    +0.000 A 
ATOM     18  C   UNL     1      -3.268  13.619  24.286  0.00  0.00    +0.000 A 
ATOM     19  C   UNL     1      -3.627  12.549  23.488  0.00  0.00    +0.000 A 
ATOM     20  C   UNL     1      -2.694  11.995  22.610  0.00  0.00    +0.000 A 
ENDBRANCH   5  15
BRANCH   6  21
ATOM     21  S   UNL     1      -0.271  14.166  19.883  0.00  0.00    +0.000 S 
ATOM     22  O   UNL     1       0.026  14.413  18.483  0.00  0.00    +0.000 OA
ATOM     23  O   UNL     1      -1.363  14.864  20.516  0.00  0.00    +0.000 OA
BRANCH  21  24
ATOM     24  C   UNL     1       1.230  14.566  20.776  0.00  0.00    +0.000 A 
ATOM     25  C   UNL     1       2.384  13.808  20.561  0.00  0.00    +0.000 A 
ATOM     26  C   UNL     1       3.567  14.134  21.231  0.00  0.00    +0.000 A 
ATOM     27  C   UNL     1       3.605  15.211  22.126  0.00  0.00    +0.000 A 
ATOM     28  C   UNL     1       4.863  15.562  22.874  0.00  0.00    +0.000 C 
ATOM     29  C   UNL     1       2.450  15.991  22.303  0.00  0.00    +0.000 A 
ATOM     30  C   UNL     1       1.272  15.681  21.618  0.00  0.00    +0.000 A 
ENDBRANCH  21  24
ENDBRANCH   6  21
BRANCH   4  31
ATOM     31  C   UNL     1      -0.196   9.696  22.722  0.00  0.00    +0.000 C 
ATOM     32  O   UNL     1       0.687   9.974  23.517  0.00  0.00    +0.000 OA
BRANCH  31  33
ATOM     33  O   UNL     1      -1.109   8.731  22.959  0.00  0.00    +0.000 OA
ATOM     34  H   UNL     1      -1.941   9.036  23.359  0.00  0.00    +0.000 HD
ENDBRANCH  31  33
ENDBRANCH   4  31
TORSDOF 7
ENDMDL
MODEL 6
REMARK VINA RESULT:      -5.8      2.269      5.733
REMARK  Name = 
REMARK  9 active torsions:
REMARK  status: ('A' for Active; 'I' for Inactive)
REMARK    1  A    between atoms: C_1  and  C_2
REMARK    2  A    between atoms: C_2  and  C_3
REMARK    3  A    between atoms: C_6  and  C_7
REMARK    4  A    between atoms: C_10  and  C_11
REMARK    5  A    between atoms: C_11  and  O_13
REMARK    6  A    between atoms: C_14  and  C_15
REMARK    7  A    between atoms: N_21  and  S_22
REMARK    8  A    between atoms: S_22  and  C_25
REMARK    9  A    between atoms: C_28  and  C_29
REMARK                            x       y       z     vdW  Elec       q    Type
REMARK                         _______ _______ _______ _____ _____    ______ ____
ROOT
ATOM      1  C   UNL     1      -0.409  11.572  18.918  0.00  0.00    +0.000 C 
ATOM      2  C   UNL     1      -1.663  11.304  18.055  0.00  0.00    +0.000 C 
ATOM      3  C   UNL     1      -2.911  11.926  18.619  0.00  0.00    +0.000 C 
ATOM      4  C   UNL     1      -3.005  12.271  19.921  0.00  0.00    +0.000 C 
ATOM      5  C   UNL     1      -1.949  11.939  20.980  0.00  0.00    +0.000 C 
ATOM      6  N   UNL     1      -0.755  11.270  20.354  0.00  0.00    +0.000 NA
ENDROOT
BRANCH   1  10
ATOM      7  C   UNL     1       1.392  15.523  18.850  0.00  0.00    +0.000 A 
ATOM      8  C   UNL     1       0.062  15.371  18.456  0.00  0.00    +0.000 A 
ATOM      9  C   UNL     1      -0.505  14.094  18.349  0.00  0.00    +0.000 A 
ATOM     10  C   UNL     1       0.234  12.940  18.669  0.00  0.00    +0.000 A 
ATOM     11  C   UNL     1       1.614  13.095  18.853  0.00  0.00    +0.000 A 
ATOM     12  C   UNL     1       2.186  14.371  18.938  0.00  0.00    +0.000 A 
BRANCH   7  14
ATOM     13  C   UNL     1       2.523  16.906  20.713  0.00  0.00    +0.000 C 
ATOM     14  C   UNL     1       1.979  16.846  19.287  0.00  0.00    +0.000 C 
ENDBRANCH   7  14
ENDBRANCH   1  10
BRANCH   5  15
ATOM     15  C   UNL     1      -1.639  13.077  21.953  0.00  0.00    +0.000 A 
ATOM     16  C   UNL     1      -2.114  13.050  23.275  0.00  0.00    +0.000 A 
ATOM     17  C   UNL     1      -1.781  14.060  24.188  0.00  0.00    +0.000 A 
ATOM     18  C   UNL     1      -0.992  15.136  23.792  0.00  0.00    +0.000 A 
ATOM     19  C   UNL     1      -0.536  15.195  22.488  0.00  0.00    +0.000 A 
ATOM     20  C   UNL     1      -0.869  14.180  21.590  0.00  0.00    +0.000 A 
ENDBRANCH   5  15
BRANCH   6  21
ATOM     21  S   UNL     1       0.439  10.597  21.338  0.00  0.00    +0.000 S 
ATOM     22  O   UNL     1       1.502  11.574  21.486  0.00  0.00    +0.000 OA
ATOM     23  O   UNL     1      -0.163  10.012  22.511  0.00  0.00    +0.000 OA
BRANCH  21  24
ATOM     24  C   UNL     1       1.131   9.269  20.355  0.00  0.00    +0.000 A 
ATOM     25  C   UNL     1       1.449   9.497  19.014  0.00  0.00    +0.000 A 
ATOM     26  C   UNL     1       2.020   8.475  18.248  0.00  0.00    +0.000 A 
ATOM     27  C   UNL     1       2.267   7.217  18.812  0.00  0.00    +0.000 A 
ATOM     28  C   UNL     1       2.858   6.097  17.999  0.00  0.00    +0.000 C 
ATOM     29  C   UNL     1       1.981   7.011  20.173  0.00  0.00    +0.000 A 
ATOM     30  C   UNL     1       1.432   8.039  20.945  0.00  0.00    +0.000 A 
ENDBRANCH  21  24
ENDBRANCH   6  21
BRANCH   4  31
ATOM     31  C   UNL     1      -4.274  12.841  20.440  0.00  0.00    +0.000 C 
ATOM     32  O   UNL     1      -4.969  12.275  21.267  0.00  0.00    +0.000 OA
BRANCH  31  33
ATOM     33  O   UNL     1      -4.599  14.042  19.917  0.00  0.00    +0.000 OA
ATOM     34  H   UNL     1      -5.488  14.366  20.144  0.00  0.00    +0.000 HD
ENDBRANCH  31  33
ENDBRANCH   4  31
TORSDOF 7
ENDMDL
MODEL 7
REMARK VINA RESULT:      -5.7      2.272      5.742
REMARK  Name = 
REMARK  9 active torsions:
REMARK  status: ('A' for Active; 'I' for Inactive)
REMARK    1  A    between atoms: C_1  and  C_2
REMARK    2  A    between atoms: C_2  and  C_3
REMARK    3  A    between atoms: C_6  and  C_7
REMARK    4  A    between atoms: C_10  and  C_11
REMARK    5  A    between atoms: C_11  and  O_13
REMARK    6  A    between atoms: C_14  and  C_15
REMARK    7  A    between atoms: N_21  and  S_22
REMARK    8  A    between atoms: S_22  and  C_25
REMARK    9  A    between atoms: C_28  and  C_29
REMARK                            x       y       z     vdW  Elec       q    Type
REMARK                         _______ _______ _______ _____ _____    ______ ____
ROOT
ATOM      1  C   UNL     1      -0.352  11.571  18.876  0.00  0.00    +0.000 C 
ATOM      2  C   UNL     1      -1.611  11.302  18.018  0.00  0.00    +0.000 C 
ATOM      3  C   UNL     1      -2.858  11.918  18.593  0.00  0.00    +0.000 C 
ATOM      4  C   UNL     1      -2.946  12.256  19.897  0.00  0.00    +0.000 C 
ATOM      5  C   UNL     1      -1.882  11.924  20.948  0.00  0.00    +0.000 C 
ATOM      6  N   UNL     1      -0.689  11.262  20.312  0.00  0.00    +0.000 NA
ENDROOT
BRANCH   1  10
ATOM      7  C   UNL     1       1.455  15.519  18.816  0.00  0.00    +0.000 A 
ATOM      8  C   UNL     1       0.110  15.378  18.472  0.00  0.00    +0.000 A 
ATOM      9  C   UNL     1      -0.464  14.105  18.361  0.00  0.00    +0.000 A 
ATOM     10  C   UNL     1       0.284  12.943  18.628  0.00  0.00    +0.000 A 
ATOM     11  C   UNL     1       1.671  13.092  18.761  0.00  0.00    +0.000 A 
ATOM     12  C   UNL     1       2.249  14.364  18.849  0.00  0.00    +0.000 A 
BRANCH   7  14
ATOM     13  C   UNL     1       2.312  16.993  20.754  0.00  0.00    +0.000 C 
ATOM     14  C   UNL     1       2.062  16.832  19.256  0.00  0.00    +0.000 C 
ENDBRANCH   7  14
ENDBRANCH   1  10
BRANCH   5  15
ATOM     15  C   UNL     1      -1.570  13.058  21.924  0.00  0.00    +0.000 A 
ATOM     16  C   UNL     1      -0.818  14.175  21.521  0.00  0.00    +0.000 A 
ATOM     17  C   UNL     1      -0.581  15.246  22.394  0.00  0.00    +0.000 A 
ATOM     18  C   UNL     1      -1.064  15.211  23.699  0.00  0.00    +0.000 A 
ATOM     19  C   UNL     1      -1.783  14.110  24.124  0.00  0.00    +0.000 A 
ATOM     20  C   UNL     1      -2.018  13.052  23.244  0.00  0.00    +0.000 A 
ENDBRANCH   5  15
BRANCH   6  21
ATOM     21  S   UNL     1       0.513  10.589  21.286  0.00  0.00    +0.000 S 
ATOM     22  O   UNL     1       1.564  11.578  21.450  0.00  0.00    +0.000 OA
ATOM     23  O   UNL     1      -0.082   9.978  22.450  0.00  0.00    +0.000 OA
BRANCH  21  24
ATOM     24  C   UNL     1       1.223   9.286  20.283  0.00  0.00    +0.000 A 
ATOM     25  C   UNL     1       1.466   8.032  20.850  0.00  0.00    +0.000 A 
ATOM     26  C   UNL     1       1.990   7.000  20.065  0.00  0.00    +0.000 A 
ATOM     27  C   UNL     1       2.284   7.214  18.713  0.00  0.00    +0.000 A 
ATOM     28  C   UNL     1       2.870   6.124  17.857  0.00  0.00    +0.000 C 
ATOM     29  C   UNL     1       1.997   8.466  18.142  0.00  0.00    +0.000 A 
ATOM     30  C   UNL     1       1.452   9.492  18.920  0.00  0.00    +0.000 A 
ENDBRANCH  21  24
ENDBRANCH   6  21
BRANCH   4  31
ATOM     31  C   UNL     1      -4.213  12.819  20.426  0.00  0.00    +0.000 C 
ATOM     32  O   UNL     1      -4.965  12.196  21.157  0.00  0.00    +0.000 OA
BRANCH  31  33
ATOM     33  O   UNL     1      -4.470  14.083  20.027  0.00  0.00    +0.000 OA
ATOM     34  H   UNL     1      -5.213  14.518  20.480  0.00  0.00    +0.000 HD
ENDBRANCH  31  33
ENDBRANCH   4  31
TORSDOF 7
ENDMDL
MODEL 8
REMARK VINA RESULT:      -5.7      1.309      1.708
REMARK  Name = 
REMARK  9 active torsions:
REMARK  status: ('A' for Active; 'I' for Inactive)
REMARK    1  A    between atoms: C_1  and  C_2
REMARK    2  A    between atoms: C_2  and  C_3
REMARK    3  A    between atoms: C_6  and  C_7
REMARK    4  A    between atoms: C_10  and  C_11
REMARK    5  A    between atoms: C_11  and  O_13
REMARK    6  A    between atoms: C_14  and  C_15
REMARK    7  A    between atoms: N_21  and  S_22
REMARK    8  A    between atoms: S_22  and  C_25
REMARK    9  A    between atoms: C_28  and  C_29
REMARK                            x       y       z     vdW  Elec       q    Type
REMARK                         _______ _______ _______ _____ _____    ______ ____
ROOT
ATOM      1  C   UNL     1       0.519  11.388  18.968  0.00  0.00    +0.000 C 
ATOM      2  C   UNL     1       1.374  10.149  19.322  0.00  0.00    +0.000 C 
ATOM      3  C   UNL     1       0.952   9.490  20.606  0.00  0.00    +0.000 C 
ATOM      4  C   UNL     1       0.239  10.152  21.543  0.00  0.00    +0.000 C 
ATOM      5  C   UNL     1      -0.082  11.648  21.484  0.00  0.00    +0.000 C 
ATOM      6  N   UNL     1       0.416  12.253  20.198  0.00  0.00    +0.000 NA
ENDROOT
BRANCH   1  10
ATOM      7  C   UNL     1      -3.523  10.781  17.501  0.00  0.00    +0.000 A 
ATOM      8  C   UNL     1      -2.874   9.741  18.168  0.00  0.00    +0.000 A 
ATOM      9  C   UNL     1      -1.529   9.866  18.540  0.00  0.00    +0.000 A 
ATOM     10  C   UNL     1      -0.811  11.049  18.287  0.00  0.00    +0.000 A 
ATOM     11  C   UNL     1      -1.407  11.989  17.436  0.00  0.00    +0.000 A 
ATOM     12  C   UNL     1      -2.745  11.854  17.045  0.00  0.00    +0.000 A 
BRANCH   7  14
ATOM     13  C   UNL     1      -5.842  10.765  18.634  0.00  0.00    +0.000 C 
ATOM     14  C   UNL     1      -5.025  10.854  17.347  0.00  0.00    +0.000 C 
ENDBRANCH   7  14
ENDBRANCH   1  10
BRANCH   5  15
ATOM     15  C   UNL     1      -1.514  12.011  21.877  0.00  0.00    +0.000 A 
ATOM     16  C   UNL     1      -1.886  12.133  23.227  0.00  0.00    +0.000 A 
ATOM     17  C   UNL     1      -3.182  12.525  23.591  0.00  0.00    +0.000 A 
ATOM     18  C   UNL     1      -4.143  12.774  22.616  0.00  0.00    +0.000 A 
ATOM     19  C   UNL     1      -3.805  12.635  21.283  0.00  0.00    +0.000 A 
ATOM     20  C   UNL     1      -2.510  12.250  20.932  0.00  0.00    +0.000 A 
ENDBRANCH   5  15
BRANCH   6  21
ATOM     21  S   UNL     1       0.392  13.928  19.997  0.00  0.00    +0.000 S 
ATOM     22  O   UNL     1      -0.413  14.228  18.826  0.00  0.00    +0.000 OA
ATOM     23  O   UNL     1       0.094  14.570  21.253  0.00  0.00    +0.000 OA
BRANCH  21  24
ATOM     24  C   UNL     1       2.076  14.347  19.550  0.00  0.00    +0.000 A 
ATOM     25  C   UNL     1       3.058  14.407  20.542  0.00  0.00    +0.000 A 
ATOM     26  C   UNL     1       4.381  14.703  20.196  0.00  0.00    +0.000 A 
ATOM     27  C   UNL     1       4.730  14.949  18.863  0.00  0.00    +0.000 A 
ATOM     28  C   UNL     1       6.143  15.292  18.475  0.00  0.00    +0.000 C 
ATOM     29  C   UNL     1       3.742  14.846  17.869  0.00  0.00    +0.000 A 
ATOM     30  C   UNL     1       2.424  14.528  18.209  0.00  0.00    +0.000 A 
ENDBRANCH  21  24
ENDBRANCH   6  21
BRANCH   4  31
ATOM     31  C   UNL     1      -0.114   9.472  22.813  0.00  0.00    +0.000 C 
ATOM     32  O   UNL     1       0.424   9.726  23.878  0.00  0.00    +0.000 OA
BRANCH  31  33
ATOM     33  O   UNL     1      -1.084   8.540  22.695  0.00  0.00    +0.000 OA
ATOM     34  H   UNL     1      -1.972   8.829  22.966  0.00  0.00    +0.000 HD
ENDBRANCH  31  33
ENDBRANCH   4  31
TORSDOF 7
ENDMDL
MODEL 9
REMARK VINA RESULT:      -5.7      1.109      1.853
REMARK  Name = 
REMARK  9 active torsions:
REMARK  status: ('A' for Active; 'I' for Inactive)
REMARK    1  A    between atoms: C_1  and  C_2
REMARK    2  A    between atoms: C_2  and  C_3
REMARK    3  A    between atoms: C_6  and  C_7
REMARK    4  A    between atoms: C_10  and  C_11
REMARK    5  A    between atoms: C_11  and  O_13
REMARK    6  A    between atoms: C_14  and  C_15
REMARK    7  A    between atoms: N_21  and  S_22
REMARK    8  A    between atoms: S_22  and  C_25
REMARK    9  A    between atoms: C_28  and  C_29
REMARK                            x       y       z     vdW  Elec       q    Type
REMARK                         _______ _______ _______ _____ _____    ______ ____
ROOT
ATOM      1  C   UNL     1       0.555  11.179  18.908  0.00  0.00    +0.000 C 
ATOM      2  C   UNL     1       1.076   9.870  19.545  0.00  0.00    +0.000 C 
ATOM      3  C   UNL     1       0.517   9.620  20.919  0.00  0.00    +0.000 C 
ATOM      4  C   UNL     1       0.003  10.619  21.668  0.00  0.00    +0.000 C 
ATOM      5  C   UNL     1       0.066  12.102  21.289  0.00  0.00    +0.000 C 
ATOM      6  N   UNL     1       0.685  12.280  19.929  0.00  0.00    +0.000 NA
ENDROOT
BRANCH   1  10
ATOM      7  C   UNL     1      -3.048  10.486  16.586  0.00  0.00    +0.000 A 
ATOM      8  C   UNL     1      -2.487  11.763  16.612  0.00  0.00    +0.000 A 
ATOM      9  C   UNL     1      -1.400  12.044  17.451  0.00  0.00    +0.000 A 
ATOM     10  C   UNL     1      -0.824  11.044  18.256  0.00  0.00    +0.000 A 
ATOM     11  C   UNL     1      -1.527   9.837  18.377  0.00  0.00    +0.000 A 
ATOM     12  C   UNL     1      -2.627   9.564  17.555  0.00  0.00    +0.000 A 
BRANCH   7  14
ATOM     13  C   UNL     1      -3.455  10.037  14.077  0.00  0.00    +0.000 C 
ATOM     14  C   UNL     1      -3.998  10.022  15.505  0.00  0.00    +0.000 C 
ENDBRANCH   7  14
ENDBRANCH   1  10
BRANCH   5  15
ATOM     15  C   UNL     1      -1.225  12.882  21.538  0.00  0.00    +0.000 A 
ATOM     16  C   UNL     1      -2.400  12.585  20.827  0.00  0.00    +0.000 A 
ATOM     17  C   UNL     1      -3.602  13.256  21.094  0.00  0.00    +0.000 A 
ATOM     18  C   UNL     1      -3.648  14.260  22.057  0.00  0.00    +0.000 A 
ATOM     19  C   UNL     1      -2.498  14.586  22.750  0.00  0.00    +0.000 A 
ATOM     20  C   UNL     1      -1.309  13.906  22.479  0.00  0.00    +0.000 A 
ENDBRANCH   5  15
BRANCH   6  21
ATOM     21  S   UNL     1       1.080  13.829  19.386  0.00  0.00    +0.000 S 
ATOM     22  O   UNL     1       1.927  13.691  18.214  0.00  0.00    +0.000 OA
ATOM     23  O   UNL     1      -0.108  14.644  19.318  0.00  0.00    +0.000 OA
BRANCH  21  24
ATOM     24  C   UNL     1       2.133  14.497  20.672  0.00  0.00    +0.000 A 
ATOM     25  C   UNL     1       1.688  15.579  21.435  0.00  0.00    +0.000 A 
ATOM     26  C   UNL     1       2.492  16.086  22.462  0.00  0.00    +0.000 A 
ATOM     27  C   UNL     1       3.746  15.524  22.727  0.00  0.00    +0.000 A 
ATOM     28  C   UNL     1       4.635  16.070  23.812  0.00  0.00    +0.000 C 
ATOM     29  C   UNL     1       4.167  14.410  21.980  0.00  0.00    +0.000 A 
ATOM     30  C   UNL     1       3.356  13.888  20.968  0.00  0.00    +0.000 A 
ENDBRANCH  21  24
ENDBRANCH   6  21
BRANCH   4  31
ATOM     31  C   UNL     1      -0.496  10.330  23.036  0.00  0.00    +0.000 C 
ATOM     32  O   UNL     1      -1.626  10.604  23.405  0.00  0.00    +0.000 OA
BRANCH  31  33
ATOM     33  O   UNL     1       0.408   9.738  23.845  0.00  0.00    +0.000 OA
ATOM     34  H   UNL     1       0.838   8.947  23.477  0.00  0.00    +0.000 HD
ENDBRANCH  31  33
ENDBRANCH   4  31
TORSDOF 7
ENDMDL
