MODEL 1
REMARK VINA RESULT:      -8.0      0.000      0.000
REMARK  Name = 
REMARK  9 active torsions:
REMARK  status: ('A' for Active; 'I' for Inactive)
REMARK    1  A    between atoms: C_1  and  C_2
REMARK    2  A    between atoms: C_5  and  S_6
REMARK    3  A    between atoms: S_6  and  N_9
REMARK    4  A    between atoms: C_16  and  N_17
REMARK    5  A    between atoms: C_18  and  C_20
REMARK    6  A    between atoms: C_20  and  C_21
REMARK    7  A    between atoms: C_20  and  C_28
REMARK    8  A    between atoms: C_28  and  C_29
REMARK    9  A    between atoms: C_28  and  C_30
REMARK                            x       y       z     vdW  Elec       q    Type
REMARK                         _______ _______ _______ _____ _____    ______ ____
ROOT
ATOM      1  C   UNL     1       0.746   4.452  20.031  0.00  0.00    +0.000 C 
ATOM      2  C   UNL     1       1.911   4.704  19.110  0.00  0.00    +0.000 A 
ATOM      3  C   UNL     1       2.371   3.597  18.359  0.00  0.00    +0.000 A 
ATOM      4  C   UNL     1       3.452   3.711  17.491  0.00  0.00    +0.000 A 
ATOM      5  C   UNL     1       4.095   4.937  17.384  0.00  0.00    +0.000 A 
ATOM      6  C   UNL     1       3.686   6.028  18.145  0.00  0.00    +0.000 A 
ATOM      7  C   UNL     1       2.572   5.947  18.994  0.00  0.00    +0.000 A 
ENDROOT
BRANCH   7   8
ATOM      8  N   UNL     1       2.107   7.093  19.714  0.00  0.00    +0.000 N 
ATOM      9  C   UNL     1       1.882   8.346  19.153  0.00  0.00    +0.000 C 
ATOM     10  O   UNL     1       2.067   8.620  17.962  0.00  0.00    +0.000 OA
ATOM     11  H   UNL     1       1.789   6.941  20.661  0.00  0.00    +0.000 HD
BRANCH   9  12
ATOM     12  C   UNL     1       1.210   9.398  20.074  0.00  0.00    +0.000 C 
BRANCH  12  13
ATOM     13  C   UNL     1       0.020  10.042  19.349  0.00  0.00    +0.000 A 
ATOM     14  C   UNL     1      -0.685  11.117  19.923  0.00  0.00    +0.000 A 
ATOM     15  C   UNL     1      -1.841  11.629  19.325  0.00  0.00    +0.000 A 
ATOM     16  C   UNL     1      -2.297  11.090  18.129  0.00  0.00    +0.000 A 
ATOM     17 CL   UNL     1      -3.748  11.685  17.422  0.00  0.00    +0.000 Cl
ATOM     18  C   UNL     1      -1.590  10.060  17.514  0.00  0.00    +0.000 A 
ATOM     19  C   UNL     1      -0.437   9.537  18.120  0.00  0.00    +0.000 A 
ENDBRANCH  12  13
BRANCH  12  20
ATOM     20  C   UNL     1       0.829   8.645  21.392  0.00  0.00    +0.000 C 
ATOM     21  C   UNL     1       1.277   9.445  22.628  0.00  0.00    +0.000 C 
ATOM     22  C   UNL     1      -0.662   8.325  21.524  0.00  0.00    +0.000 C 
ENDBRANCH  12  20
ENDBRANCH   9  12
ENDBRANCH   7   8
BRANCH   5  23
ATOM     23  S   UNL     1       5.520   5.088  16.329  0.00  0.00    +0.000 S 
ATOM     24  O   UNL     1       6.055   3.763  16.104  0.00  0.00    +0.000 OA
ATOM     25  O   UNL     1       5.141   5.930  15.213  0.00  0.00    +0.000 OA
BRANCH  23  26
ATOM     26  N   UNL     1       6.623   5.949  17.266  0.00  0.00    +0.000 NA
ATOM     27  C   UNL     1       7.547   5.202  18.155  0.00  0.00    +0.000 C 
ATOM     28  C   UNL     1       8.025   6.158  19.258  0.00  0.00    +0.000 C 
ATOM     29  O   UNL     1       8.666   7.319  18.702  0.00  0.00    +0.000 OA
ATOM     30  C   UNL     1       7.770   8.027  17.824  0.00  0.00    +0.000 C 
ATOM     31  C   UNL     1       7.304   7.128  16.670  0.00  0.00    +0.000 C 
ENDBRANCH  23  26
ENDBRANCH   5  23
TORSDOF 6
ENDMDL
MODEL 2
REMARK VINA RESULT:      -7.7      4.095      8.469
REMARK  Name = 
REMARK  9 active torsions:
REMARK  status: ('A' for Active; 'I' for Inactive)
REMARK    1  A    between atoms: C_1  and  C_2
REMARK    2  A    between atoms: C_5  and  S_6
REMARK    3  A    between atoms: S_6  and  N_9
REMARK    4  A    between atoms: C_16  and  N_17
REMARK    5  A    between atoms: C_18  and  C_20
REMARK    6  A    between atoms: C_20  and  C_21
REMARK    7  A    between atoms: C_20  and  C_28
REMARK    8  A    between atoms: C_28  and  C_29
REMARK    9  A    between atoms: C_28  and  C_30
REMARK                            x       y       z     vdW  Elec       q    Type
REMARK                         _______ _______ _______ _____ _____    ______ ____
ROOT
ATOM      1  C   UNL     1       3.216   7.802  17.200  0.00  0.00    +0.000 C 
ATOM      2  C   UNL     1       2.439   8.115  18.451  0.00  0.00    +0.000 A 
ATOM      3  C   UNL     1       1.804   9.378  18.499  0.00  0.00    +0.000 A 
ATOM      4  C   UNL     1       1.077   9.781  19.614  0.00  0.00    +0.000 A 
ATOM      5  C   UNL     1       0.996   8.924  20.702  0.00  0.00    +0.000 A 
ATOM      6  C   UNL     1       1.650   7.694  20.694  0.00  0.00    +0.000 A 
ATOM      7  C   UNL     1       2.353   7.250  19.565  0.00  0.00    +0.000 A 
ENDROOT
BRANCH   7   8
ATOM      8  N   UNL     1       2.954   5.953  19.531  0.00  0.00    +0.000 N 
ATOM      9  C   UNL     1       2.305   4.785  19.143  0.00  0.00    +0.000 C 
ATOM     10  O   UNL     1       1.123   4.732  18.786  0.00  0.00    +0.000 OA
ATOM     11  H   UNL     1       3.955   5.908  19.667  0.00  0.00    +0.000 HD
BRANCH   9  12
ATOM     12  C   UNL     1       3.192   3.520  19.011  0.00  0.00    +0.000 C 
BRANCH  12  13
ATOM     13  C   UNL     1       4.345   3.790  18.035  0.00  0.00    +0.000 A 
ATOM     14  C   UNL     1       5.610   4.198  18.499  0.00  0.00    +0.000 A 
ATOM     15  C   UNL     1       6.628   4.561  17.610  0.00  0.00    +0.000 A 
ATOM     16  C   UNL     1       6.404   4.496  16.241  0.00  0.00    +0.000 A 
ATOM     17 CL   UNL     1       7.638   4.992  15.149  0.00  0.00    +0.000 Cl
ATOM     18  C   UNL     1       5.179   4.047  15.754  0.00  0.00    +0.000 A 
ATOM     19  C   UNL     1       4.154   3.695  16.646  0.00  0.00    +0.000 A 
ENDBRANCH  12  13
BRANCH  12  20
ATOM     20  C   UNL     1       3.651   3.154  20.462  0.00  0.00    +0.000 C 
ATOM     21  C   UNL     1       2.438   2.976  21.392  0.00  0.00    +0.000 C 
ATOM     22  C   UNL     1       4.526   1.901  20.547  0.00  0.00    +0.000 C 
ENDBRANCH  12  20
ENDBRANCH   9  12
ENDBRANCH   7   8
BRANCH   5  23
ATOM     23  S   UNL     1       0.125   9.444  22.164  0.00  0.00    +0.000 S 
ATOM     24  O   UNL     1      -0.964   8.520  22.391  0.00  0.00    +0.000 OA
ATOM     25  O   UNL     1       1.117   9.683  23.193  0.00  0.00    +0.000 OA
BRANCH  23  26
ATOM     26  N   UNL     1      -0.531  10.933  21.732  0.00  0.00    +0.000 NA
ATOM     27  C   UNL     1      -1.452  11.003  20.571  0.00  0.00    +0.000 C 
ATOM     28  C   UNL     1      -1.461  12.449  20.054  0.00  0.00    +0.000 C 
ATOM     29  O   UNL     1      -1.856  13.371  21.086  0.00  0.00    +0.000 OA
ATOM     30  C   UNL     1      -0.969  13.283  22.218  0.00  0.00    +0.000 C 
ATOM     31  C   UNL     1      -0.965  11.864  22.806  0.00  0.00    +0.000 C 
ENDBRANCH  23  26
ENDBRANCH   5  23
TORSDOF 6
ENDMDL
MODEL 3
REMARK VINA RESULT:      -7.7      4.201      8.548
REMARK  Name = 
REMARK  9 active torsions:
REMARK  status: ('A' for Active; 'I' for Inactive)
REMARK    1  A    between atoms: C_1  and  C_2
REMARK    2  A    between atoms: C_5  and  S_6
REMARK    3  A    between atoms: S_6  and  N_9
REMARK    4  A    between atoms: C_16  and  N_17
REMARK    5  A    between atoms: C_18  and  C_20
REMARK    6  A    between atoms: C_20  and  C_21
REMARK    7  A    between atoms: C_20  and  C_28
REMARK    8  A    between atoms: C_28  and  C_29
REMARK    9  A    between atoms: C_28  and  C_30
REMARK                            x       y       z     vdW  Elec       q    Type
REMARK                         _______ _______ _______ _____ _____    ______ ____
ROOT
ATOM      1  C   UNL     1       2.784   7.971  17.299  0.00  0.00    +0.000 C 
ATOM      2  C   UNL     1       2.101   8.240  18.614  0.00  0.00    +0.000 A 
ATOM      3  C   UNL     1       1.398   9.463  18.720  0.00  0.00    +0.000 A 
ATOM      4  C   UNL     1       0.746   9.824  19.894  0.00  0.00    +0.000 A 
ATOM      5  C   UNL     1       0.811   8.965  20.983  0.00  0.00    +0.000 A 
ATOM      6  C   UNL     1       1.534   7.777  20.915  0.00  0.00    +0.000 A 
ATOM      7  C   UNL     1       2.162   7.374  19.728  0.00  0.00    +0.000 A 
ENDROOT
BRANCH   7   8
ATOM      8  N   UNL     1       2.835   6.115  19.639  0.00  0.00    +0.000 N 
ATOM      9  C   UNL     1       2.225   4.909  19.308  0.00  0.00    +0.000 C 
ATOM     10  O   UNL     1       1.021   4.783  19.058  0.00  0.00    +0.000 OA
ATOM     11  H   UNL     1       3.844   6.131  19.684  0.00  0.00    +0.000 HD
BRANCH   9  12
ATOM     12  C   UNL     1       3.171   3.698  19.096  0.00  0.00    +0.000 C 
BRANCH  12  13
ATOM     13  C   UNL     1       4.302   4.082  18.130  0.00  0.00    +0.000 A 
ATOM     14  C   UNL     1       4.119   4.020  16.736  0.00  0.00    +0.000 A 
ATOM     15  C   UNL     1       5.179   4.252  15.853  0.00  0.00    +0.000 A 
ATOM     16  C   UNL     1       6.434   4.576  16.353  0.00  0.00    +0.000 A 
ATOM     17 CL   UNL     1       7.750   4.810  15.269  0.00  0.00    +0.000 Cl
ATOM     18  C   UNL     1       6.630   4.694  17.726  0.00  0.00    +0.000 A 
ATOM     19  C   UNL     1       5.570   4.448  18.612  0.00  0.00    +0.000 A 
ENDBRANCH  12  13
BRANCH  12  20
ATOM     20  C   UNL     1       3.660   3.269  20.520  0.00  0.00    +0.000 C 
ATOM     21  C   UNL     1       2.468   3.075  21.472  0.00  0.00    +0.000 C 
ATOM     22  C   UNL     1       4.516   2.000  20.534  0.00  0.00    +0.000 C 
ENDBRANCH  12  20
ENDBRANCH   9  12
ENDBRANCH   7   8
BRANCH   5  23
ATOM     23  S   UNL     1       0.040   9.436  22.516  0.00  0.00    +0.000 S 
ATOM     24  O   UNL     1      -1.039   8.509  22.779  0.00  0.00    +0.000 OA
ATOM     25  O   UNL     1       1.097   9.632  23.487  0.00  0.00    +0.000 OA
BRANCH  23  26
ATOM     26  N   UNL     1      -0.632  10.943  22.182  0.00  0.00    +0.000 NA
ATOM     27  C   UNL     1      -1.760  11.428  23.015  0.00  0.00    +0.000 C 
ATOM     28  C   UNL     1      -2.527  12.489  22.211  0.00  0.00    +0.000 C 
ATOM     29  O   UNL     1      -1.665  13.573  21.823  0.00  0.00    +0.000 OA
ATOM     30  C   UNL     1      -0.562  13.092  21.031  0.00  0.00    +0.000 C 
ATOM     31  C   UNL     1       0.270  12.065  21.812  0.00  0.00    +0.000 C 
ENDBRANCH  23  26
ENDBRANCH   5  23
TORSDOF 6
ENDMDL
MODEL 4
REMARK VINA RESULT:      -7.2      4.302      8.500
REMARK  Name = 
REMARK  9 active torsions:
REMARK  status: ('A' for Active; 'I' for Inactive)
REMARK    1  A    between atoms: C_1  and  C_2
REMARK    2  A    between atoms: C_5  and  S_6
REMARK    3  A    between atoms: S_6  and  N_9
REMARK    4  A    between atoms: C_16  and  N_17
REMARK    5  A    between atoms: C_18  and  C_20
REMARK    6  A    between atoms: C_20  and  C_21
REMARK    7  A    between atoms: C_20  and  C_28
REMARK    8  A    between atoms: C_28  and  C_29
REMARK    9  A    between atoms: C_28  and  C_30
REMARK                            x       y       z     vdW  Elec       q    Type
REMARK                         _______ _______ _______ _____ _____    ______ ____
ROOT
ATOM      1  C   UNL     1       2.551   8.065  17.443  0.00  0.00    +0.000 C 
ATOM      2  C   UNL     1       1.953   8.342  18.798  0.00  0.00    +0.000 A 
ATOM      3  C   UNL     1       1.295   9.584  18.955  0.00  0.00    +0.000 A 
ATOM      4  C   UNL     1       0.724   9.952  20.169  0.00  0.00    +0.000 A 
ATOM      5  C   UNL     1       0.826   9.081  21.245  0.00  0.00    +0.000 A 
ATOM      6  C   UNL     1       1.507   7.872  21.124  0.00  0.00    +0.000 A 
ATOM      7  C   UNL     1       2.053   7.462  19.899  0.00  0.00    +0.000 A 
ENDROOT
BRANCH   7   8
ATOM      8  N   UNL     1       2.681   6.185  19.760  0.00  0.00    +0.000 N 
ATOM      9  C   UNL     1       2.020   4.962  19.831  0.00  0.00    +0.000 C 
ATOM     10  O   UNL     1       0.807   4.837  20.030  0.00  0.00    +0.000 OA
ATOM     11  H   UNL     1       3.644   6.179  19.453  0.00  0.00    +0.000 HD
BRANCH   9  12
ATOM     12  C   UNL     1       2.861   3.708  19.477  0.00  0.00    +0.000 C 
BRANCH  12  13
ATOM     13  C   UNL     1       3.962   4.083  18.474  0.00  0.00    +0.000 A 
ATOM     14  C   UNL     1       3.757   3.952  17.087  0.00  0.00    +0.000 A 
ATOM     15  C   UNL     1       4.793   4.177  16.175  0.00  0.00    +0.000 A 
ATOM     16  C   UNL     1       6.045   4.563  16.635  0.00  0.00    +0.000 A 
ATOM     17 CL   UNL     1       7.334   4.788  15.517  0.00  0.00    +0.000 Cl
ATOM     18  C   UNL     1       6.262   4.749  17.998  0.00  0.00    +0.000 A 
ATOM     19  C   UNL     1       5.226   4.511  18.914  0.00  0.00    +0.000 A 
ENDBRANCH  12  13
BRANCH  12  20
ATOM     20  C   UNL     1       3.395   3.141  20.835  0.00  0.00    +0.000 C 
ATOM     21  C   UNL     1       2.231   2.722  21.749  0.00  0.00    +0.000 C 
ATOM     22  C   UNL     1       4.358   1.961  20.687  0.00  0.00    +0.000 C 
ENDBRANCH  12  20
ENDBRANCH   9  12
ENDBRANCH   7   8
BRANCH   5  23
ATOM     23  S   UNL     1       0.160   9.559  22.824  0.00  0.00    +0.000 S 
ATOM     24  O   UNL     1      -1.039   8.784  23.059  0.00  0.00    +0.000 OA
ATOM     25  O   UNL     1       1.252   9.535  23.776  0.00  0.00    +0.000 OA
BRANCH  23  26
ATOM     26  N   UNL     1      -0.289  11.166  22.601  0.00  0.00    +0.000 NA
ATOM     27  C   UNL     1       0.306  11.929  21.476  0.00  0.00    +0.000 C 
ATOM     28  C   UNL     1       0.195  13.426  21.803  0.00  0.00    +0.000 C 
ATOM     29  O   UNL     1      -1.172  13.812  22.025  0.00  0.00    +0.000 OA
ATOM     30  C   UNL     1      -1.750  13.053  23.105  0.00  0.00    +0.000 C 
ATOM     31  C   UNL     1      -1.711  11.548  22.803  0.00  0.00    +0.000 C 
ENDBRANCH  23  26
ENDBRANCH   5  23
TORSDOF 6
ENDMDL
MODEL 5
REMARK VINA RESULT:      -7.1      3.755      8.300
REMARK  Name = 
REMARK  9 active torsions:
REMARK  status: ('A' for Active; 'I' for Inactive)
REMARK    1  A    between atoms: C_1  and  C_2
REMARK    2  A    between atoms: C_5  and  S_6
REMARK    3  A    between atoms: S_6  and  N_9
REMARK    4  A    between atoms: C_16  and  N_17
REMARK    5  A    between atoms: C_18  and  C_20
REMARK    6  A    between atoms: C_20  and  C_21
REMARK    7  A    between atoms: C_20  and  C_28
REMARK    8  A    between atoms: C_28  and  C_29
REMARK    9  A    between atoms: C_28  and  C_30
REMARK                            x       y       z     vdW  Elec       q    Type
REMARK                         _______ _______ _______ _____ _____    ______ ____
ROOT
ATOM      1  C   UNL     1       1.800   5.134  20.868  0.00  0.00    +0.000 C 
ATOM      2  C   UNL     1       1.729   6.535  20.319  0.00  0.00    +0.000 A 
ATOM      3  C   UNL     1       1.340   7.548  21.226  0.00  0.00    +0.000 A 
ATOM      4  C   UNL     1       1.221   8.874  20.822  0.00  0.00    +0.000 A 
ATOM      5  C   UNL     1       1.474   9.192  19.495  0.00  0.00    +0.000 A 
ATOM      6  C   UNL     1       1.816   8.204  18.575  0.00  0.00    +0.000 A 
ATOM      7  C   UNL     1       1.982   6.868  18.969  0.00  0.00    +0.000 A 
ENDROOT
BRANCH   7   8
ATOM      8  N   UNL     1       2.411   5.871  18.038  0.00  0.00    +0.000 N 
ATOM      9  C   UNL     1       3.704   5.362  17.958  0.00  0.00    +0.000 C 
ATOM     10  O   UNL     1       4.640   5.720  18.682  0.00  0.00    +0.000 OA
ATOM     11  H   UNL     1       1.693   5.409  17.498  0.00  0.00    +0.000 HD
BRANCH   9  12
ATOM     12  C   UNL     1       3.909   4.162  16.997  0.00  0.00    +0.000 C 
BRANCH  12  13
ATOM     13  C   UNL     1       5.092   4.441  16.058  0.00  0.00    +0.000 A 
ATOM     14  C   UNL     1       5.935   5.551  16.261  0.00  0.00    +0.000 A 
ATOM     15  C   UNL     1       6.939   5.878  15.343  0.00  0.00    +0.000 A 
ATOM     16  C   UNL     1       7.132   5.084  14.220  0.00  0.00    +0.000 A 
ATOM     17 CL   UNL     1       8.331   5.516  13.065  0.00  0.00    +0.000 Cl
ATOM     18  C   UNL     1       6.346   3.952  14.021  0.00  0.00    +0.000 A 
ATOM     19  C   UNL     1       5.330   3.631  14.935  0.00  0.00    +0.000 A 
ENDBRANCH  12  13
BRANCH  12  20
ATOM     20  C   UNL     1       4.093   2.900  17.904  0.00  0.00    +0.000 C 
ATOM     21  C   UNL     1       4.607   3.298  19.298  0.00  0.00    +0.000 C 
ATOM     22  C   UNL     1       2.827   2.054  18.068  0.00  0.00    +0.000 C 
ENDBRANCH  12  20
ENDBRANCH   9  12
ENDBRANCH   7   8
BRANCH   5  23
ATOM     23  S   UNL     1       1.266  10.870  18.942  0.00  0.00    +0.000 S 
ATOM     24  O   UNL     1       1.529  11.748  20.061  0.00  0.00    +0.000 OA
ATOM     25  O   UNL     1       2.006  11.010  17.705  0.00  0.00    +0.000 OA
BRANCH  23  26
ATOM     26  N   UNL     1      -0.373  10.970  18.570  0.00  0.00    +0.000 NA
ATOM     27  C   UNL     1      -0.969   9.955  17.666  0.00  0.00    +0.000 C 
ATOM     28  C   UNL     1      -2.248  10.549  17.058  0.00  0.00    +0.000 C 
ATOM     29  O   UNL     1      -3.180  10.941  18.081  0.00  0.00    +0.000 OA
ATOM     30  C   UNL     1      -2.588  11.911  18.967  0.00  0.00    +0.000 C 
ATOM     31  C   UNL     1      -1.331  11.346  19.643  0.00  0.00    +0.000 C 
ENDBRANCH  23  26
ENDBRANCH   5  23
TORSDOF 6
ENDMDL
MODEL 6
REMARK VINA RESULT:      -7.0      2.550      4.329
REMARK  Name = 
REMARK  9 active torsions:
REMARK  status: ('A' for Active; 'I' for Inactive)
REMARK    1  A    between atoms: C_1  and  C_2
REMARK    2  A    between atoms: C_5  and  S_6
REMARK    3  A    between atoms: S_6  and  N_9
REMARK    4  A    between atoms: C_16  and  N_17
REMARK    5  A    between atoms: C_18  and  C_20
REMARK    6  A    between atoms: C_20  and  C_21
REMARK    7  A    between atoms: C_20  and  C_28
REMARK    8  A    between atoms: C_28  and  C_29
REMARK    9  A    between atoms: C_28  and  C_30
REMARK                            x       y       z     vdW  Elec       q    Type
REMARK                         _______ _______ _______ _____ _____    ______ ____
ROOT
ATOM      1  C   UNL     1      -0.128   8.610  21.588  0.00  0.00    +0.000 C 
ATOM      2  C   UNL     1       0.894   7.986  20.674  0.00  0.00    +0.000 A 
ATOM      3  C   UNL     1       1.542   6.824  21.154  0.00  0.00    +0.000 A 
ATOM      4  C   UNL     1       2.517   6.176  20.402  0.00  0.00    +0.000 A 
ATOM      5  C   UNL     1       2.864   6.703  19.165  0.00  0.00    +0.000 A 
ATOM      6  C   UNL     1       2.269   7.870  18.693  0.00  0.00    +0.000 A 
ATOM      7  C   UNL     1       1.255   8.515  19.415  0.00  0.00    +0.000 A 
ENDROOT
BRANCH   7   8
ATOM      8  N   UNL     1       0.591   9.668  18.889  0.00  0.00    +0.000 N 
ATOM      9  C   UNL     1       0.741  10.963  19.376  0.00  0.00    +0.000 C 
ATOM     10  O   UNL     1       1.464  11.268  20.331  0.00  0.00    +0.000 OA
ATOM     11  H   UNL     1       0.090   9.550  18.020  0.00  0.00    +0.000 HD
BRANCH   9  12
ATOM     12  C   UNL     1       0.067  12.088  18.548  0.00  0.00    +0.000 C 
BRANCH  12  13
ATOM     13  C   UNL     1      -1.456  12.032  18.734  0.00  0.00    +0.000 A 
ATOM     14  C   UNL     1      -2.301  11.613  17.688  0.00  0.00    +0.000 A 
ATOM     15  C   UNL     1      -3.693  11.674  17.810  0.00  0.00    +0.000 A 
ATOM     16  C   UNL     1      -4.263  12.132  18.991  0.00  0.00    +0.000 A 
ATOM     17 CL   UNL     1      -5.974  12.257  19.122  0.00  0.00    +0.000 Cl
ATOM     18  C   UNL     1      -3.451  12.505  20.060  0.00  0.00    +0.000 A 
ATOM     19  C   UNL     1      -2.054  12.456  19.933  0.00  0.00    +0.000 A 
ENDBRANCH  12  13
BRANCH  12  20
ATOM     20  C   UNL     1       0.723  13.429  19.017  0.00  0.00    +0.000 C 
ATOM     21  C   UNL     1       2.086  13.639  18.336  0.00  0.00    +0.000 C 
ATOM     22  C   UNL     1      -0.144  14.669  18.779  0.00  0.00    +0.000 C 
ENDBRANCH  12  20
ENDBRANCH   9  12
ENDBRANCH   7   8
BRANCH   5  23
ATOM     23  S   UNL     1       4.153   5.929  18.215  0.00  0.00    +0.000 S 
ATOM     24  O   UNL     1       3.987   6.318  16.831  0.00  0.00    +0.000 OA
ATOM     25  O   UNL     1       5.403   6.175  18.905  0.00  0.00    +0.000 OA
BRANCH  23  26
ATOM     26  N   UNL     1       3.815   4.284  18.342  0.00  0.00    +0.000 NA
ATOM     27  C   UNL     1       3.266   3.570  17.163  0.00  0.00    +0.000 C 
ATOM     28  C   UNL     1       2.546   2.308  17.661  0.00  0.00    +0.000 C 
ATOM     29  O   UNL     1       3.435   1.462  18.412  0.00  0.00    +0.000 OA
ATOM     30  C   UNL     1       3.980   2.168  19.543  0.00  0.00    +0.000 C 
ATOM     31  C   UNL     1       4.757   3.414  19.093  0.00  0.00    +0.000 C 
ENDBRANCH  23  26
ENDBRANCH   5  23
TORSDOF 6
ENDMDL
MODEL 7
REMARK VINA RESULT:      -7.0      1.332      1.915
REMARK  Name = 
REMARK  9 active torsions:
REMARK  status: ('A' for Active; 'I' for Inactive)
REMARK    1  A    between atoms: C_1  and  C_2
REMARK    2  A    between atoms: C_5  and  S_6
REMARK    3  A    between atoms: S_6  and  N_9
REMARK    4  A    between atoms: C_16  and  N_17
REMARK    5  A    between atoms: C_18  and  C_20
REMARK    6  A    between atoms: C_20  and  C_21
REMARK    7  A    between atoms: C_20  and  C_28
REMARK    8  A    between atoms: C_28  and  C_29
REMARK    9  A    between atoms: C_28  and  C_30
REMARK                            x       y       z     vdW  Elec       q    Type
REMARK                         _______ _______ _______ _____ _____    ______ ____
ROOT
ATOM      1  C   UNL     1       0.773   4.586  20.443  0.00  0.00    +0.000 C 
ATOM      2  C   UNL     1       1.852   4.904  19.441  0.00  0.00    +0.000 A 
ATOM      3  C   UNL     1       2.160   3.890  18.504  0.00  0.00    +0.000 A 
ATOM      4  C   UNL     1       3.152   4.068  17.545  0.00  0.00    +0.000 A 
ATOM      5  C   UNL     1       3.859   5.262  17.531  0.00  0.00    +0.000 A 
ATOM      6  C   UNL     1       3.602   6.256  18.471  0.00  0.00    +0.000 A 
ATOM      7  C   UNL     1       2.578   6.116  19.419  0.00  0.00    +0.000 A 
ENDROOT
BRANCH   7   8
ATOM      8  N   UNL     1       2.264   7.172  20.331  0.00  0.00    +0.000 N 
ATOM      9  C   UNL     1       1.813   8.435  19.959  0.00  0.00    +0.000 C 
ATOM     10  O   UNL     1       1.636   8.795  18.790  0.00  0.00    +0.000 OA
ATOM     11  H   UNL     1       2.238   6.937  21.313  0.00  0.00    +0.000 HD
BRANCH   9  12
ATOM     12  C   UNL     1       1.365   9.369  21.113  0.00  0.00    +0.000 C 
BRANCH  12  13
ATOM     13  C   UNL     1       0.836  10.692  20.540  0.00  0.00    +0.000 A 
ATOM     14  C   UNL     1      -0.260  10.714  19.657  0.00  0.00    +0.000 A 
ATOM     15  C   UNL     1      -0.670  11.900  19.039  0.00  0.00    +0.000 A 
ATOM     16  C   UNL     1      -0.005  13.087  19.314  0.00  0.00    +0.000 A 
ATOM     17 CL   UNL     1      -0.476  14.536  18.513  0.00  0.00    +0.000 Cl
ATOM     18  C   UNL     1       1.050  13.103  20.222  0.00  0.00    +0.000 A 
ATOM     19  C   UNL     1       1.470  11.911  20.833  0.00  0.00    +0.000 A 
ENDBRANCH  12  13
BRANCH  12  20
ATOM     20  C   UNL     1       0.312   8.563  21.945  0.00  0.00    +0.000 C 
ATOM     21  C   UNL     1      -0.246   9.416  23.097  0.00  0.00    +0.000 C 
ATOM     22  C   UNL     1      -0.858   8.020  21.121  0.00  0.00    +0.000 C 
ENDBRANCH  12  20
ENDBRANCH   9  12
ENDBRANCH   7   8
BRANCH   5  23
ATOM     23  S   UNL     1       5.176   5.486  16.356  0.00  0.00    +0.000 S 
ATOM     24  O   UNL     1       5.558   4.182  15.857  0.00  0.00    +0.000 OA
ATOM     25  O   UNL     1       4.765   6.533  15.444  0.00  0.00    +0.000 OA
BRANCH  23  26
ATOM     26  N   UNL     1       6.446   6.085  17.284  0.00  0.00    +0.000 NA
ATOM     27  C   UNL     1       6.672   7.551  17.332  0.00  0.00    +0.000 C 
ATOM     28  C   UNL     1       8.131   7.796  17.744  0.00  0.00    +0.000 C 
ATOM     29  O   UNL     1       8.426   7.185  19.012  0.00  0.00    +0.000 OA
ATOM     30  C   UNL     1       8.185   5.766  18.964  0.00  0.00    +0.000 C 
ATOM     31  C   UNL     1       6.721   5.467  18.608  0.00  0.00    +0.000 C 
ENDBRANCH  23  26
ENDBRANCH   5  23
TORSDOF 6
ENDMDL
MODEL 8
REMARK VINA RESULT:      -6.9      3.743      5.155
REMARK  Name = 
REMARK  9 active torsions:
REMARK  status: ('A' for Active; 'I' for Inactive)
REMARK    1  A    between atoms: C_1  and  C_2
REMARK    2  A    between atoms: C_5  and  S_6
REMARK    3  A    between atoms: S_6  and  N_9
REMARK    4  A    between atoms: C_16  and  N_17
REMARK    5  A    between atoms: C_18  and  C_20
REMARK    6  A    between atoms: C_20  and  C_21
REMARK    7  A    between atoms: C_20  and  C_28
REMARK    8  A    between atoms: C_28  and  C_29
REMARK    9  A    between atoms: C_28  and  C_30
REMARK                            x       y       z     vdW  Elec       q    Type
REMARK                         _______ _______ _______ _____ _____    ______ ____
ROOT
ATOM      1  C   UNL     1       2.303   9.728  17.655  0.00  0.00    +0.000 C 
ATOM      2  C   UNL     1       2.173   8.472  18.476  0.00  0.00    +0.000 A 
ATOM      3  C   UNL     1       2.530   7.261  17.838  0.00  0.00    +0.000 A 
ATOM      4  C   UNL     1       2.431   6.040  18.496  0.00  0.00    +0.000 A 
ATOM      5  C   UNL     1       1.952   6.021  19.799  0.00  0.00    +0.000 A 
ATOM      6  C   UNL     1       1.554   7.196  20.431  0.00  0.00    +0.000 A 
ATOM      7  C   UNL     1       1.685   8.443  19.802  0.00  0.00    +0.000 A 
ENDROOT
BRANCH   7   8
ATOM      8  N   UNL     1       1.350   9.654  20.485  0.00  0.00    +0.000 N 
ATOM      9  C   UNL     1       0.140  10.329  20.358  0.00  0.00    +0.000 C 
ATOM     10  O   UNL     1      -0.790   9.962  19.631  0.00  0.00    +0.000 OA
ATOM     11  H   UNL     1       1.982   9.961  21.210  0.00  0.00    +0.000 HD
BRANCH   9  12
ATOM     12  C   UNL     1      -0.082  11.524  21.322  0.00  0.00    +0.000 C 
BRANCH  12  13
ATOM     13  C   UNL     1       0.497  12.806  20.706  0.00  0.00    +0.000 A 
ATOM     14  C   UNL     1       0.728  12.907  19.321  0.00  0.00    +0.000 A 
ATOM     15  C   UNL     1       1.365  14.023  18.770  0.00  0.00    +0.000 A 
ATOM     16  C   UNL     1       1.759  15.070  19.594  0.00  0.00    +0.000 A 
ATOM     17 CL   UNL     1       2.590  16.419  18.924  0.00  0.00    +0.000 Cl
ATOM     18  C   UNL     1       1.498  15.018  20.962  0.00  0.00    +0.000 A 
ATOM     19  C   UNL     1       0.870  13.892  21.516  0.00  0.00    +0.000 A 
ENDBRANCH  12  13
BRANCH  12  20
ATOM     20  C   UNL     1      -1.621  11.583  21.600  0.00  0.00    +0.000 C 
ATOM     21  C   UNL     1      -1.901  11.692  23.108  0.00  0.00    +0.000 C 
ATOM     22  C   UNL     1      -2.346  12.723  20.879  0.00  0.00    +0.000 C 
ENDBRANCH  12  20
ENDBRANCH   9  12
ENDBRANCH   7   8
BRANCH   5  23
ATOM     23  S   UNL     1       1.756   4.464  20.637  0.00  0.00    +0.000 S 
ATOM     24  O   UNL     1       2.480   4.533  21.888  0.00  0.00    +0.000 OA
ATOM     25  O   UNL     1       0.344   4.141  20.618  0.00  0.00    +0.000 OA
BRANCH  23  26
ATOM     26  N   UNL     1       2.544   3.365  19.634  0.00  0.00    +0.000 NA
ATOM     27  C   UNL     1       3.674   2.575  20.181  0.00  0.00    +0.000 C 
ATOM     28  C   UNL     1       4.542   2.103  19.005  0.00  0.00    +0.000 C 
ATOM     29  O   UNL     1       3.773   1.328  18.067  0.00  0.00    +0.000 OA
ATOM     30  C   UNL     1       2.667   2.095  17.555  0.00  0.00    +0.000 C 
ATOM     31  C   UNL     1       1.737   2.548  18.691  0.00  0.00    +0.000 C 
ENDBRANCH  23  26
ENDBRANCH   5  23
TORSDOF 6
ENDMDL
MODEL 9
REMARK VINA RESULT:      -6.9      4.248      8.520
REMARK  Name = 
REMARK  9 active torsions:
REMARK  status: ('A' for Active; 'I' for Inactive)
REMARK    1  A    between atoms: C_1  and  C_2
REMARK    2  A    between atoms: C_5  and  S_6
REMARK    3  A    between atoms: S_6  and  N_9
REMARK    4  A    between atoms: C_16  and  N_17
REMARK    5  A    between atoms: C_18  and  C_20
REMARK    6  A    between atoms: C_20  and  C_21
REMARK    7  A    between atoms: C_20  and  C_28
REMARK    8  A    between atoms: C_28  and  C_29
REMARK    9  A    between atoms: C_28  and  C_30
REMARK                            x       y       z     vdW  Elec       q    Type
REMARK                         _______ _______ _______ _____ _____    ______ ____
ROOT
ATOM      1  C   UNL     1       2.650   8.436  17.186  0.00  0.00    +0.000 C 
ATOM      2  C   UNL     1       1.967   8.623  18.516  0.00  0.00    +0.000 A 
ATOM      3  C   UNL     1       1.379   9.888  18.749  0.00  0.00    +0.000 A 
ATOM      4  C   UNL     1       0.739  10.178  19.950  0.00  0.00    +0.000 A 
ATOM      5  C   UNL     1       0.701   9.204  20.938  0.00  0.00    +0.000 A 
ATOM      6  C   UNL     1       1.312   7.967  20.746  0.00  0.00    +0.000 A 
ATOM      7  C   UNL     1       1.925   7.638  19.528  0.00  0.00    +0.000 A 
ENDROOT
BRANCH   7   8
ATOM      8  N   UNL     1       2.480   6.339  19.307  0.00  0.00    +0.000 N 
ATOM      9  C   UNL     1       2.214   5.218  20.087  0.00  0.00    +0.000 C 
ATOM     10  O   UNL     1       1.468   5.216  21.073  0.00  0.00    +0.000 OA
ATOM     11  H   UNL     1       2.989   6.199  18.446  0.00  0.00    +0.000 HD
BRANCH   9  12
ATOM     12  C   UNL     1       2.781   3.871  19.567  0.00  0.00    +0.000 C 
BRANCH  12  13
ATOM     13  C   UNL     1       3.946   4.133  18.602  0.00  0.00    +0.000 A 
ATOM     14  C   UNL     1       5.083   4.855  19.014  0.00  0.00    +0.000 A 
ATOM     15  C   UNL     1       6.092   5.200  18.109  0.00  0.00    +0.000 A 
ATOM     16  C   UNL     1       5.992   4.806  16.781  0.00  0.00    +0.000 A 
ATOM     17 CL   UNL     1       7.207   5.275  15.656  0.00  0.00    +0.000 Cl
ATOM     18  C   UNL     1       4.903   4.047  16.357  0.00  0.00    +0.000 A 
ATOM     19  C   UNL     1       3.884   3.712  17.262  0.00  0.00    +0.000 A 
ENDBRANCH  12  13
BRANCH  12  20
ATOM     20  C   UNL     1       3.172   3.041  20.835  0.00  0.00    +0.000 C 
ATOM     21  C   UNL     1       1.940   2.337  21.430  0.00  0.00    +0.000 C 
ATOM     22  C   UNL     1       4.266   1.998  20.591  0.00  0.00    +0.000 C 
ENDBRANCH  12  20
ENDBRANCH   9  12
ENDBRANCH   7   8
BRANCH   5  23
ATOM     23  S   UNL     1      -0.054   9.575  22.505  0.00  0.00    +0.000 S 
ATOM     24  O   UNL     1      -1.080   8.585  22.755  0.00  0.00    +0.000 OA
ATOM     25  O   UNL     1       1.015   9.786  23.459  0.00  0.00    +0.000 OA
BRANCH  23  26
ATOM     26  N   UNL     1      -0.808  11.058  22.247  0.00  0.00    +0.000 NA
ATOM     27  C   UNL     1      -1.935  11.454  23.126  0.00  0.00    +0.000 C 
ATOM     28  C   UNL     1      -2.775  12.505  22.384  0.00  0.00    +0.000 C 
ATOM     29  O   UNL     1      -1.978  13.645  22.016  0.00  0.00    +0.000 OA
ATOM     30  C   UNL     1      -0.874  13.250  21.179  0.00  0.00    +0.000 C 
ATOM     31  C   UNL     1       0.028  12.236  21.899  0.00  0.00    +0.000 C 
ENDBRANCH  23  26
ENDBRANCH   5  23
TORSDOF 6
ENDMDL
