MODEL 1
REMARK VINA RESULT:      -7.5      0.000      0.000
REMARK  Name = 
REMARK  4 active torsions:
REMARK  status: ('A' for Active; 'I' for Inactive)
REMARK    1  A    between atoms: N_1  and  C_2
REMARK    2  A    between atoms: C_6  and  O_7
REMARK    3  A    between atoms: O_7  and  C_8
REMARK    4  A    between atoms: C_11  and  N_12
REMARK                            x       y       z     vdW  Elec       q    Type
REMARK                         _______ _______ _______ _____ _____    ______ ____
ROOT
ATOM      1  O   UNL     1       4.655   5.365  19.366  0.00  0.00    +0.000 OA
ENDROOT
BRANCH   1   6
ATOM      2  C   UNL     1       2.045   2.710  19.409  0.00  0.00    +0.000 A 
ATOM      3  C   UNL     1       1.044   3.416  20.080  0.00  0.00    +0.000 A 
ATOM      4  C   UNL     1       1.283   4.703  20.569  0.00  0.00    +0.000 A 
ATOM      5  C   UNL     1       2.508   5.325  20.332  0.00  0.00    +0.000 A 
ATOM      6  C   UNL     1       3.491   4.660  19.601  0.00  0.00    +0.000 A 
ATOM      7  C   UNL     1       3.266   3.344  19.173  0.00  0.00    +0.000 A 
BRANCH   2   8
ATOM      8  N   UNL     1       1.749   1.503  18.765  0.00  0.00    +0.000 N 
ATOM      9  H   UNL     1       2.562   1.019  18.400  0.00  0.00    +0.000 HD
ATOM     10  H   UNL     1       0.996   1.563  18.087  0.00  0.00    +0.000 HD
ENDBRANCH   2   8
ENDBRANCH   1   6
BRANCH   1  11
ATOM     11  C   UNL     1       5.230   5.337  18.115  0.00  0.00    +0.000 A 
ATOM     12  C   UNL     1       4.670   5.945  16.986  0.00  0.00    +0.000 A 
ATOM     13  C   UNL     1       5.260   5.790  15.732  0.00  0.00    +0.000 A 
ATOM     14  C   UNL     1       6.466   5.091  15.623  0.00  0.00    +0.000 A 
ATOM     15  C   UNL     1       7.086   4.556  16.763  0.00  0.00    +0.000 A 
ATOM     16  C   UNL     1       6.461   4.682  18.009  0.00  0.00    +0.000 A 
BRANCH  14  17
ATOM     17  N   UNL     1       7.077   4.923  14.301  0.00  0.00    +0.000 N 
ATOM     18  O   UNL     1       6.592   4.075  13.545  0.00  0.00    +0.000 OA
ATOM     19  O   UNL     1       8.051   5.639  14.025  0.00  0.00    +0.000 OA
ENDBRANCH  14  17
ENDBRANCH   1  11
TORSDOF 4
ENDMDL
MODEL 2
REMARK VINA RESULT:      -7.3      1.175      1.363
REMARK  Name = 
REMARK  4 active torsions:
REMARK  status: ('A' for Active; 'I' for Inactive)
REMARK    1  A    between atoms: N_1  and  C_2
REMARK    2  A    between atoms: C_6  and  O_7
REMARK    3  A    between atoms: O_7  and  C_8
REMARK    4  A    between atoms: C_11  and  N_12
REMARK                            x       y       z     vdW  Elec       q    Type
REMARK                         _______ _______ _______ _____ _____    ______ ____
ROOT
ATOM      1  O   UNL     1       4.020   5.716  19.238  0.00  0.00    +0.000 OA
ENDROOT
BRANCH   1   6
ATOM      2  C   UNL     1       1.684   3.354  20.920  0.00  0.00    +0.000 A 
ATOM      3  C   UNL     1       0.912   3.004  19.811  0.00  0.00    +0.000 A 
ATOM      4  C   UNL     1       1.124   3.612  18.570  0.00  0.00    +0.000 A 
ATOM      5  C   UNL     1       2.161   4.531  18.411  0.00  0.00    +0.000 A 
ATOM      6  C   UNL     1       2.987   4.836  19.492  0.00  0.00    +0.000 A 
ATOM      7  C   UNL     1       2.722   4.272  20.747  0.00  0.00    +0.000 A 
BRANCH   2   8
ATOM      8  N   UNL     1       1.593   2.618  22.107  0.00  0.00    +0.000 N 
ATOM      9  H   UNL     1       1.391   3.180  22.927  0.00  0.00    +0.000 HD
ATOM     10  H   UNL     1       2.360   1.971  22.259  0.00  0.00    +0.000 HD
ENDBRANCH   2   8
ENDBRANCH   1   6
BRANCH   1  11
ATOM     11  C   UNL     1       4.747   5.597  18.074  0.00  0.00    +0.000 A 
ATOM     12  C   UNL     1       4.579   6.428  16.961  0.00  0.00    +0.000 A 
ATOM     13  C   UNL     1       5.282   6.185  15.781  0.00  0.00    +0.000 A 
ATOM     14  C   UNL     1       6.223   5.153  15.746  0.00  0.00    +0.000 A 
ATOM     15  C   UNL     1       6.469   4.371  16.885  0.00  0.00    +0.000 A 
ATOM     16  C   UNL     1       5.725   4.598  18.049  0.00  0.00    +0.000 A 
BRANCH  14  17
ATOM     17  N   UNL     1       6.953   4.894  14.500  0.00  0.00    +0.000 N 
ATOM     18  O   UNL     1       6.531   3.999  13.760  0.00  0.00    +0.000 OA
ATOM     19  O   UNL     1       7.955   5.586  14.269  0.00  0.00    +0.000 OA
ENDBRANCH  14  17
ENDBRANCH   1  11
TORSDOF 4
ENDMDL
MODEL 3
REMARK VINA RESULT:      -7.2      0.223      1.411
REMARK  Name = 
REMARK  4 active torsions:
REMARK  status: ('A' for Active; 'I' for Inactive)
REMARK    1  A    between atoms: N_1  and  C_2
REMARK    2  A    between atoms: C_6  and  O_7
REMARK    3  A    between atoms: O_7  and  C_8
REMARK    4  A    between atoms: C_11  and  N_12
REMARK                            x       y       z     vdW  Elec       q    Type
REMARK                         _______ _______ _______ _____ _____    ______ ____
ROOT
ATOM      1  O   UNL     1       4.743   5.396  19.171  0.00  0.00    +0.000 OA
ENDROOT
BRANCH   1   6
ATOM      2  C   UNL     1       2.102   2.783  19.422  0.00  0.00    +0.000 A 
ATOM      3  C   UNL     1       1.120   3.544  20.060  0.00  0.00    +0.000 A 
ATOM      4  C   UNL     1       1.382   4.856  20.462  0.00  0.00    +0.000 A 
ATOM      5  C   UNL     1       2.611   5.446  20.167  0.00  0.00    +0.000 A 
ATOM      6  C   UNL     1       3.574   4.723  19.467  0.00  0.00    +0.000 A 
ATOM      7  C   UNL     1       3.327   3.386  19.128  0.00  0.00    +0.000 A 
BRANCH   2   8
ATOM      8  N   UNL     1       1.782   1.541  18.860  0.00  0.00    +0.000 N 
ATOM      9  H   UNL     1       1.392   0.877  19.520  0.00  0.00    +0.000 HD
ATOM     10  H   UNL     1       2.519   1.137  18.291  0.00  0.00    +0.000 HD
ENDBRANCH   2   8
ENDBRANCH   1   6
BRANCH   1  11
ATOM     11  C   UNL     1       5.349   5.207  17.949  0.00  0.00    +0.000 A 
ATOM     12  C   UNL     1       6.587   4.577  17.781  0.00  0.00    +0.000 A 
ATOM     13  C   UNL     1       7.184   4.511  16.522  0.00  0.00    +0.000 A 
ATOM     14  C   UNL     1       6.497   5.005  15.411  0.00  0.00    +0.000 A 
ATOM     15  C   UNL     1       5.213   5.556  15.552  0.00  0.00    +0.000 A 
ATOM     16  C   UNL     1       4.644   5.656  16.827  0.00  0.00    +0.000 A 
BRANCH  14  17
ATOM     17  N   UNL     1       7.132   4.942  14.091  0.00  0.00    +0.000 N 
ATOM     18  O   UNL     1       8.113   5.667  13.889  0.00  0.00    +0.000 OA
ATOM     19  O   UNL     1       6.643   4.169  13.255  0.00  0.00    +0.000 OA
ENDBRANCH  14  17
ENDBRANCH   1  11
TORSDOF 4
ENDMDL
MODEL 4
REMARK VINA RESULT:      -7.2      2.969      6.126
REMARK  Name = 
REMARK  4 active torsions:
REMARK  status: ('A' for Active; 'I' for Inactive)
REMARK    1  A    between atoms: N_1  and  C_2
REMARK    2  A    between atoms: C_6  and  O_7
REMARK    3  A    between atoms: O_7  and  C_8
REMARK    4  A    between atoms: C_11  and  N_12
REMARK                            x       y       z     vdW  Elec       q    Type
REMARK                         _______ _______ _______ _____ _____    ______ ____
ROOT
ATOM      1  O   UNL     1       5.180   5.349  16.560  0.00  0.00    +0.000 OA
ENDROOT
BRANCH   1   6
ATOM      2  C   UNL     1       7.884   5.883  19.064  0.00  0.00    +0.000 A 
ATOM      3  C   UNL     1       8.248   7.181  18.699  0.00  0.00    +0.000 A 
ATOM      4  C   UNL     1       7.659   7.806  17.597  0.00  0.00    +0.000 A 
ATOM      5  C   UNL     1       6.646   7.162  16.887  0.00  0.00    +0.000 A 
ATOM      6  C   UNL     1       6.221   5.895  17.284  0.00  0.00    +0.000 A 
ATOM      7  C   UNL     1       6.865   5.250  18.349  0.00  0.00    +0.000 A 
BRANCH   2   8
ATOM      8  N   UNL     1       8.339   5.331  20.268  0.00  0.00    +0.000 N 
ATOM      9  H   UNL     1       8.467   6.009  21.011  0.00  0.00    +0.000 HD
ATOM     10  H   UNL     1       9.133   4.708  20.168  0.00  0.00    +0.000 HD
ENDBRANCH   2   8
ENDBRANCH   1   6
BRANCH   1  11
ATOM     11  C   UNL     1       4.087   4.832  17.220  0.00  0.00    +0.000 A 
ATOM     12  C   UNL     1       3.198   5.600  17.979  0.00  0.00    +0.000 A 
ATOM     13  C   UNL     1       2.171   4.991  18.700  0.00  0.00    +0.000 A 
ATOM     14  C   UNL     1       1.983   3.611  18.590  0.00  0.00    +0.000 A 
ATOM     15  C   UNL     1       2.810   2.841  17.758  0.00  0.00    +0.000 A 
ATOM     16  C   UNL     1       3.864   3.459  17.075  0.00  0.00    +0.000 A 
BRANCH  14  17
ATOM     17  N   UNL     1       0.908   2.973  19.357  0.00  0.00    +0.000 N 
ATOM     18  O   UNL     1       0.777   3.294  20.543  0.00  0.00    +0.000 OA
ATOM     19  O   UNL     1       0.198   2.145  18.769  0.00  0.00    +0.000 OA
ENDBRANCH  14  17
ENDBRANCH   1  11
TORSDOF 4
ENDMDL
MODEL 5
REMARK VINA RESULT:      -7.2      1.290      1.965
REMARK  Name = 
REMARK  4 active torsions:
REMARK  status: ('A' for Active; 'I' for Inactive)
REMARK    1  A    between atoms: N_1  and  C_2
REMARK    2  A    between atoms: C_6  and  O_7
REMARK    3  A    between atoms: O_7  and  C_8
REMARK    4  A    between atoms: C_11  and  N_12
REMARK                            x       y       z     vdW  Elec       q    Type
REMARK                         _______ _______ _______ _____ _____    ______ ____
ROOT
ATOM      1  O   UNL     1       3.780   5.692  18.800  0.00  0.00    +0.000 OA
ENDROOT
BRANCH   1   6
ATOM      2  C   UNL     1       1.724   3.387  20.880  0.00  0.00    +0.000 A 
ATOM      3  C   UNL     1       0.860   2.928  19.884  0.00  0.00    +0.000 A 
ATOM      4  C   UNL     1       0.922   3.447  18.588  0.00  0.00    +0.000 A 
ATOM      5  C   UNL     1       1.898   4.386  18.257  0.00  0.00    +0.000 A 
ATOM      6  C   UNL     1       2.815   4.800  19.222  0.00  0.00    +0.000 A 
ATOM      7  C   UNL     1       2.701   4.324  20.536  0.00  0.00    +0.000 A 
BRANCH   2   8
ATOM      8  N   UNL     1       1.782   2.741  22.121  0.00  0.00    +0.000 N 
ATOM      9  H   UNL     1       0.887   2.398  22.451  0.00  0.00    +0.000 HD
ATOM     10  H   UNL     1       2.290   3.253  22.835  0.00  0.00    +0.000 HD
ENDBRANCH   2   8
ENDBRANCH   1   6
BRANCH   1  11
ATOM     11  C   UNL     1       4.514   5.419  17.667  0.00  0.00    +0.000 A 
ATOM     12  C   UNL     1       5.155   4.198  17.429  0.00  0.00    +0.000 A 
ATOM     13  C   UNL     1       5.963   4.029  16.304  0.00  0.00    +0.000 A 
ATOM     14  C   UNL     1       6.060   5.063  15.370  0.00  0.00    +0.000 A 
ATOM     15  C   UNL     1       5.347   6.259  15.550  0.00  0.00    +0.000 A 
ATOM     16  C   UNL     1       4.575   6.431  16.705  0.00  0.00    +0.000 A 
BRANCH  14  17
ATOM     17  N   UNL     1       6.918   4.885  14.193  0.00  0.00    +0.000 N 
ATOM     18  O   UNL     1       7.940   5.574  14.116  0.00  0.00    +0.000 OA
ATOM     19  O   UNL     1       6.560   4.057  13.343  0.00  0.00    +0.000 OA
ENDBRANCH  14  17
ENDBRANCH   1  11
TORSDOF 4
ENDMDL
MODEL 6
REMARK VINA RESULT:      -7.1      2.987      6.173
REMARK  Name = 
REMARK  4 active torsions:
REMARK  status: ('A' for Active; 'I' for Inactive)
REMARK    1  A    between atoms: N_1  and  C_2
REMARK    2  A    between atoms: C_6  and  O_7
REMARK    3  A    between atoms: O_7  and  C_8
REMARK    4  A    between atoms: C_11  and  N_12
REMARK                            x       y       z     vdW  Elec       q    Type
REMARK                         _______ _______ _______ _____ _____    ______ ____
ROOT
ATOM      1  O   UNL     1       5.240   5.203  16.541  0.00  0.00    +0.000 OA
ENDROOT
BRANCH   1   6
ATOM      2  C   UNL     1       7.910   5.899  19.042  0.00  0.00    +0.000 A 
ATOM      3  C   UNL     1       8.220   7.203  18.653  0.00  0.00    +0.000 A 
ATOM      4  C   UNL     1       7.610   7.782  17.537  0.00  0.00    +0.000 A 
ATOM      5  C   UNL     1       6.628   7.081  16.836  0.00  0.00    +0.000 A 
ATOM      6  C   UNL     1       6.255   5.806  17.257  0.00  0.00    +0.000 A 
ATOM      7  C   UNL     1       6.922   5.210  18.336  0.00  0.00    +0.000 A 
BRANCH   2   8
ATOM      8  N   UNL     1       8.383   5.391  20.258  0.00  0.00    +0.000 N 
ATOM      9  H   UNL     1       9.316   4.998  20.206  0.00  0.00    +0.000 HD
ATOM     10  H   UNL     1       7.730   4.781  20.738  0.00  0.00    +0.000 HD
ENDBRANCH   2   8
ENDBRANCH   1   6
BRANCH   1  11
ATOM     11  C   UNL     1       4.225   4.554  17.209  0.00  0.00    +0.000 A 
ATOM     12  C   UNL     1       4.131   3.163  17.325  0.00  0.00    +0.000 A 
ATOM     13  C   UNL     1       3.022   2.575  17.931  0.00  0.00    +0.000 A 
ATOM     14  C   UNL     1       2.040   3.390  18.500  0.00  0.00    +0.000 A 
ATOM     15  C   UNL     1       2.168   4.788  18.473  0.00  0.00    +0.000 A 
ATOM     16  C   UNL     1       3.265   5.365  17.824  0.00  0.00    +0.000 A 
BRANCH  14  17
ATOM     17  N   UNL     1       0.870   2.768  19.128  0.00  0.00    +0.000 N 
ATOM     18  O   UNL     1       0.676   2.986  20.329  0.00  0.00    +0.000 OA
ATOM     19  O   UNL     1       0.149   2.055  18.416  0.00  0.00    +0.000 OA
ENDBRANCH  14  17
ENDBRANCH   1  11
TORSDOF 4
ENDMDL
MODEL 7
REMARK VINA RESULT:      -7.1      1.463      1.880
REMARK  Name = 
REMARK  4 active torsions:
REMARK  status: ('A' for Active; 'I' for Inactive)
REMARK    1  A    between atoms: N_1  and  C_2
REMARK    2  A    between atoms: C_6  and  O_7
REMARK    3  A    between atoms: O_7  and  C_8
REMARK    4  A    between atoms: C_11  and  N_12
REMARK                            x       y       z     vdW  Elec       q    Type
REMARK                         _______ _______ _______ _____ _____    ______ ____
ROOT
ATOM      1  O   UNL     1       3.024   5.904  18.555  0.00  0.00    +0.000 OA
ENDROOT
BRANCH   1   6
ATOM      2  C   UNL     1       1.708   3.321  20.891  0.00  0.00    +0.000 A 
ATOM      3  C   UNL     1       0.969   2.572  19.974  0.00  0.00    +0.000 A 
ATOM      4  C   UNL     1       0.856   2.980  18.642  0.00  0.00    +0.000 A 
ATOM      5  C   UNL     1       1.540   4.112  18.198  0.00  0.00    +0.000 A 
ATOM      6  C   UNL     1       2.340   4.828  19.086  0.00  0.00    +0.000 A 
ATOM      7  C   UNL     1       2.392   4.449  20.434  0.00  0.00    +0.000 A 
BRANCH   2   8
ATOM      8  N   UNL     1       1.968   2.817  22.171  0.00  0.00    +0.000 N 
ATOM      9  H   UNL     1       2.702   3.309  22.668  0.00  0.00    +0.000 HD
ATOM     10  H   UNL     1       2.082   1.809  22.209  0.00  0.00    +0.000 HD
ENDBRANCH   2   8
ENDBRANCH   1   6
BRANCH   1  11
ATOM     11  C   UNL     1       3.973   5.696  17.579  0.00  0.00    +0.000 A 
ATOM     12  C   UNL     1       4.430   6.693  16.710  0.00  0.00    +0.000 A 
ATOM     13  C   UNL     1       5.321   6.384  15.683  0.00  0.00    +0.000 A 
ATOM     14  C   UNL     1       5.822   5.084  15.578  0.00  0.00    +0.000 A 
ATOM     15  C   UNL     1       5.443   4.096  16.501  0.00  0.00    +0.000 A 
ATOM     16  C   UNL     1       4.515   4.409  17.501  0.00  0.00    +0.000 A 
BRANCH  14  17
ATOM     17  N   UNL     1       6.750   4.761  14.490  0.00  0.00    +0.000 N 
ATOM     18  O   UNL     1       7.760   5.463  14.367  0.00  0.00    +0.000 OA
ATOM     19  O   UNL     1       6.463   3.805  13.756  0.00  0.00    +0.000 OA
ENDBRANCH  14  17
ENDBRANCH   1  11
TORSDOF 4
ENDMDL
MODEL 8
REMARK VINA RESULT:      -7.1      1.732      2.192
REMARK  Name = 
REMARK  4 active torsions:
REMARK  status: ('A' for Active; 'I' for Inactive)
REMARK    1  A    between atoms: N_1  and  C_2
REMARK    2  A    between atoms: C_6  and  O_7
REMARK    3  A    between atoms: O_7  and  C_8
REMARK    4  A    between atoms: C_11  and  N_12
REMARK                            x       y       z     vdW  Elec       q    Type
REMARK                         _______ _______ _______ _____ _____    ______ ____
ROOT
ATOM      1  O   UNL     1       5.152   3.749  19.242  0.00  0.00    +0.000 OA
ENDROOT
BRANCH   1   6
ATOM      2  C   UNL     1       2.169   5.736  20.252  0.00  0.00    +0.000 A 
ATOM      3  C   UNL     1       1.328   4.679  20.603  0.00  0.00    +0.000 A 
ATOM      4  C   UNL     1       1.730   3.353  20.420  0.00  0.00    +0.000 A 
ATOM      5  C   UNL     1       3.010   3.071  19.945  0.00  0.00    +0.000 A 
ATOM      6  C   UNL     1       3.888   4.115  19.659  0.00  0.00    +0.000 A 
ATOM      7  C   UNL     1       3.451   5.441  19.782  0.00  0.00    +0.000 A 
BRANCH   2   8
ATOM      8  N   UNL     1       1.840   7.051  20.604  0.00  0.00    +0.000 N 
ATOM      9  H   UNL     1       2.634   7.681  20.638  0.00  0.00    +0.000 HD
ATOM     10  H   UNL     1       1.246   7.129  21.423  0.00  0.00    +0.000 HD
ENDBRANCH   2   8
ENDBRANCH   1   6
BRANCH   1  11
ATOM     11  C   UNL     1       5.558   4.038  17.958  0.00  0.00    +0.000 A 
ATOM     12  C   UNL     1       4.777   3.803  16.821  0.00  0.00    +0.000 A 
ATOM     13  C   UNL     1       5.294   4.029  15.546  0.00  0.00    +0.000 A 
ATOM     14  C   UNL     1       6.574   4.574  15.413  0.00  0.00    +0.000 A 
ATOM     15  C   UNL     1       7.332   4.902  16.548  0.00  0.00    +0.000 A 
ATOM     16  C   UNL     1       6.818   4.630  17.820  0.00  0.00    +0.000 A 
BRANCH  14  17
ATOM     17  N   UNL     1       7.117   4.802  14.070  0.00  0.00    +0.000 N 
ATOM     18  O   UNL     1       8.013   5.644  13.946  0.00  0.00    +0.000 OA
ATOM     19  O   UNL     1       6.640   4.137  13.138  0.00  0.00    +0.000 OA
ENDBRANCH  14  17
ENDBRANCH   1  11
TORSDOF 4
ENDMDL
MODEL 9
REMARK VINA RESULT:      -6.9      1.200      1.545
REMARK  Name = 
REMARK  4 active torsions:
REMARK  status: ('A' for Active; 'I' for Inactive)
REMARK    1  A    between atoms: N_1  and  C_2
REMARK    2  A    between atoms: C_6  and  O_7
REMARK    3  A    between atoms: O_7  and  C_8
REMARK    4  A    between atoms: C_11  and  N_12
REMARK                            x       y       z     vdW  Elec       q    Type
REMARK                         _______ _______ _______ _____ _____    ______ ____
ROOT
ATOM      1  O   UNL     1       5.195   4.008  19.335  0.00  0.00    +0.000 OA
ENDROOT
BRANCH   1   6
ATOM      2  C   UNL     1       1.725   3.776  20.666  0.00  0.00    +0.000 A 
ATOM      3  C   UNL     1       1.337   5.101  20.459  0.00  0.00    +0.000 A 
ATOM      4  C   UNL     1       2.245   6.045  19.971  0.00  0.00    +0.000 A 
ATOM      5  C   UNL     1       3.537   5.655  19.620  0.00  0.00    +0.000 A 
ATOM      6  C   UNL     1       3.917   4.320  19.752  0.00  0.00    +0.000 A 
ATOM      7  C   UNL     1       3.020   3.396  20.306  0.00  0.00    +0.000 A 
BRANCH   2   8
ATOM      8  N   UNL     1       0.773   2.799  20.979  0.00  0.00    +0.000 N 
ATOM      9  H   UNL     1       0.262   2.448  20.177  0.00  0.00    +0.000 HD
ATOM     10  H   UNL     1       0.162   3.043  21.753  0.00  0.00    +0.000 HD
ENDBRANCH   2   8
ENDBRANCH   1   6
BRANCH   1  11
ATOM     11  C   UNL     1       5.553   4.210  18.020  0.00  0.00    +0.000 A 
ATOM     12  C   UNL     1       4.690   4.011  16.937  0.00  0.00    +0.000 A 
ATOM     13  C   UNL     1       5.153   4.141  15.628  0.00  0.00    +0.000 A 
ATOM     14  C   UNL     1       6.468   4.555  15.405  0.00  0.00    +0.000 A 
ATOM     15  C   UNL     1       7.318   4.849  16.484  0.00  0.00    +0.000 A 
ATOM     16  C   UNL     1       6.853   4.673  17.792  0.00  0.00    +0.000 A 
BRANCH  14  17
ATOM     17  N   UNL     1       6.954   4.681  14.027  0.00  0.00    +0.000 N 
ATOM     18  O   UNL     1       7.757   5.587  13.780  0.00  0.00    +0.000 OA
ATOM     19  O   UNL     1       6.524   3.873  13.192  0.00  0.00    +0.000 OA
ENDBRANCH  14  17
ENDBRANCH   1  11
TORSDOF 4
ENDMDL
