MODEL 1
REMARK VINA RESULT:      -7.3      0.000      0.000
REMARK  Name = 
REMARK  8 active torsions:
REMARK  status: ('A' for Active; 'I' for Inactive)
REMARK    1  A    between atoms: C_2  and  O_3
REMARK    2  A    between atoms: C_2  and  C_4
REMARK    3  A    between atoms: C_4  and  C_5
REMARK    4  A    between atoms: C_5  and  C_6
REMARK    5  A    between atoms: N_8  and  C_9
REMARK    6  A    between atoms: C_12  and  S_13
REMARK    7  A    between atoms: S_13  and  C_14
REMARK    8  A    between atoms: C_17  and  N_18
REMARK                            x       y       z     vdW  Elec       q    Type
REMARK                         _______ _______ _______ _____ _____    ______ ____
ROOT
ATOM      1  C   UNL     1       2.611   6.554  18.736  0.00  0.00    +0.000 A 
ATOM      2  C   UNL     1       2.069   6.712  20.011  0.00  0.00    +0.000 A 
ATOM      3  C   UNL     1       1.518   7.934  20.408  0.00  0.00    +0.000 A 
ATOM      4  C   UNL     1       1.526   9.029  19.545  0.00  0.00    +0.000 A 
ATOM      5  C   UNL     1       2.078   8.884  18.267  0.00  0.00    +0.000 A 
ATOM      6  C   UNL     1       2.623   7.654  17.869  0.00  0.00    +0.000 A 
ENDROOT
BRANCH   1   9
ATOM      7  C   UNL     1       2.456   4.284  17.719  0.00  0.00    +0.000 C 
ATOM      8  O   UNL     1       1.269   4.279  17.407  0.00  0.00    +0.000 OA
ATOM      9  N   UNL     1       3.158   5.336  18.280  0.00  0.00    +0.000 N 
ATOM     10  H   UNL     1       4.176   5.287  18.233  0.00  0.00    +0.000 HD
BRANCH   7  11
ATOM     11  C   UNL     1       3.313   3.074  17.409  0.00  0.00    +0.000 C 
BRANCH  11  12
ATOM     12  C   UNL     1       3.084   1.982  18.447  0.00  0.00    +0.000 C 
BRANCH  12  14
ATOM     13  O   UNL     1       3.185   2.955  20.654  0.00  0.00    +0.000 OA
ATOM     14  C   UNL     1       3.740   2.334  19.757  0.00  0.00    +0.000 C 
BRANCH  14  15
ATOM     15  O   UNL     1       5.009   1.891  19.857  0.00  0.00    +0.000 OA
ATOM     16  H   UNL     1       5.689   2.587  19.769  0.00  0.00    +0.000 HD
ENDBRANCH  14  15
ENDBRANCH  12  14
ENDBRANCH  11  12
ENDBRANCH   7  11
ENDBRANCH   1   9
BRANCH   4  17
ATOM     17  S   UNL     1       0.771  10.558  20.055  0.00  0.00    +0.000 S 
BRANCH  17  18
ATOM     18  C   UNL     1      -0.679  10.632  19.016  0.00  0.00    +0.000 A 
ATOM     19  C   UNL     1      -1.691  11.540  19.350  0.00  0.00    +0.000 A 
ATOM     20  C   UNL     1      -2.835  11.658  18.554  0.00  0.00    +0.000 A 
ATOM     21  C   UNL     1      -2.964  10.863  17.408  0.00  0.00    +0.000 A 
ATOM     22  C   UNL     1      -1.951   9.965  17.052  0.00  0.00    +0.000 A 
ATOM     23  C   UNL     1      -0.810   9.858  17.855  0.00  0.00    +0.000 A 
BRANCH  21  24
ATOM     24  N   UNL     1      -4.168  10.978  16.577  0.00  0.00    +0.000 N 
ATOM     25  O   UNL     1      -4.078  10.657  15.383  0.00  0.00    +0.000 OA
ATOM     26  O   UNL     1      -5.205  11.386  17.117  0.00  0.00    +0.000 OA
ENDBRANCH  21  24
ENDBRANCH  17  18
ENDBRANCH   4  17
TORSDOF 8
ENDMDL
MODEL 2
REMARK VINA RESULT:      -7.3      2.205      2.578
REMARK  Name = 
REMARK  8 active torsions:
REMARK  status: ('A' for Active; 'I' for Inactive)
REMARK    1  A    between atoms: C_2  and  O_3
REMARK    2  A    between atoms: C_2  and  C_4
REMARK    3  A    between atoms: C_4  and  C_5
REMARK    4  A    between atoms: C_5  and  C_6
REMARK    5  A    between atoms: N_8  and  C_9
REMARK    6  A    between atoms: C_12  and  S_13
REMARK    7  A    between atoms: S_13  and  C_14
REMARK    8  A    between atoms: C_17  and  N_18
REMARK                            x       y       z     vdW  Elec       q    Type
REMARK                         _______ _______ _______ _____ _____    ______ ____
ROOT
ATOM      1  C   UNL     1       2.793   6.749  18.514  0.00  0.00    +0.000 A 
ATOM      2  C   UNL     1       2.233   6.769  19.791  0.00  0.00    +0.000 A 
ATOM      3  C   UNL     1       1.598   7.916  20.275  0.00  0.00    +0.000 A 
ATOM      4  C   UNL     1       1.538   9.074  19.500  0.00  0.00    +0.000 A 
ATOM      5  C   UNL     1       2.107   9.068  18.222  0.00  0.00    +0.000 A 
ATOM      6  C   UNL     1       2.737   7.912  17.736  0.00  0.00    +0.000 A 
ENDROOT
BRANCH   1   9
ATOM      7  C   UNL     1       4.700   5.163  18.271  0.00  0.00    +0.000 C 
ATOM      8  O   UNL     1       5.444   5.601  19.144  0.00  0.00    +0.000 OA
ATOM      9  N   UNL     1       3.425   5.610  17.972  0.00  0.00    +0.000 N 
ATOM     10  H   UNL     1       2.837   4.987  17.419  0.00  0.00    +0.000 HD
BRANCH   7  11
ATOM     11  C   UNL     1       5.131   3.958  17.460  0.00  0.00    +0.000 C 
BRANCH  11  12
ATOM     12  C   UNL     1       5.733   4.401  16.132  0.00  0.00    +0.000 C 
BRANCH  12  14
ATOM     13  O   UNL     1       7.960   4.216  17.045  0.00  0.00    +0.000 OA
ATOM     14  C   UNL     1       7.179   4.789  16.296  0.00  0.00    +0.000 C 
BRANCH  14  15
ATOM     15  O   UNL     1       7.544   5.835  15.528  0.00  0.00    +0.000 OA
ATOM     16  H   UNL     1       7.203   6.699  15.832  0.00  0.00    +0.000 HD
ENDBRANCH  14  15
ENDBRANCH  12  14
ENDBRANCH  11  12
ENDBRANCH   7  11
ENDBRANCH   1   9
BRANCH   4  17
ATOM     17  S   UNL     1       0.677  10.504  20.119  0.00  0.00    +0.000 S 
BRANCH  17  18
ATOM     18  C   UNL     1      -0.719  10.617  19.014  0.00  0.00    +0.000 A 
ATOM     19  C   UNL     1      -1.720  11.554  19.299  0.00  0.00    +0.000 A 
ATOM     20  C   UNL     1      -2.821  11.702  18.450  0.00  0.00    +0.000 A 
ATOM     21  C   UNL     1      -2.919  10.909  17.300  0.00  0.00    +0.000 A 
ATOM     22  C   UNL     1      -1.917   9.980  16.993  0.00  0.00    +0.000 A 
ATOM     23  C   UNL     1      -0.817   9.844  17.849  0.00  0.00    +0.000 A 
BRANCH  21  24
ATOM     24  N   UNL     1      -4.079  11.054  16.413  0.00  0.00    +0.000 N 
ATOM     25  O   UNL     1      -4.024  10.517  15.297  0.00  0.00    +0.000 OA
ATOM     26  O   UNL     1      -5.046  11.705  16.832  0.00  0.00    +0.000 OA
ENDBRANCH  21  24
ENDBRANCH  17  18
ENDBRANCH   4  17
TORSDOF 8
ENDMDL
MODEL 3
REMARK VINA RESULT:      -7.3      0.234      1.190
REMARK  Name = 
REMARK  8 active torsions:
REMARK  status: ('A' for Active; 'I' for Inactive)
REMARK    1  A    between atoms: C_2  and  O_3
REMARK    2  A    between atoms: C_2  and  C_4
REMARK    3  A    between atoms: C_4  and  C_5
REMARK    4  A    between atoms: C_5  and  C_6
REMARK    5  A    between atoms: N_8  and  C_9
REMARK    6  A    between atoms: C_12  and  S_13
REMARK    7  A    between atoms: S_13  and  C_14
REMARK    8  A    between atoms: C_17  and  N_18
REMARK                            x       y       z     vdW  Elec       q    Type
REMARK                         _______ _______ _______ _____ _____    ______ ____
ROOT
ATOM      1  C   UNL     1       2.705   6.512  18.652  0.00  0.00    +0.000 A 
ATOM      2  C   UNL     1       2.633   7.633  17.825  0.00  0.00    +0.000 A 
ATOM      3  C   UNL     1       2.032   8.813  18.272  0.00  0.00    +0.000 A 
ATOM      4  C   UNL     1       1.467   8.884  19.545  0.00  0.00    +0.000 A 
ATOM      5  C   UNL     1       1.525   7.761  20.378  0.00  0.00    +0.000 A 
ATOM      6  C   UNL     1       2.135   6.580  19.929  0.00  0.00    +0.000 A 
ENDROOT
BRANCH   1   9
ATOM      7  C   UNL     1       2.677   4.187  17.755  0.00  0.00    +0.000 C 
ATOM      8  O   UNL     1       1.490   4.098  17.454  0.00  0.00    +0.000 OA
ATOM      9  N   UNL     1       3.320   5.306  18.255  0.00  0.00    +0.000 N 
ATOM     10  H   UNL     1       4.339   5.314  18.202  0.00  0.00    +0.000 HD
BRANCH   7  11
ATOM     11  C   UNL     1       3.602   3.014  17.501  0.00  0.00    +0.000 C 
BRANCH  11  12
ATOM     12  C   UNL     1       3.330   1.898  18.502  0.00  0.00    +0.000 C 
BRANCH  12  14
ATOM     13  O   UNL     1       3.154   2.493  20.836  0.00  0.00    +0.000 OA
ATOM     14  C   UNL     1       3.862   2.253  19.866  0.00  0.00    +0.000 C 
BRANCH  14  15
ATOM     15  O   UNL     1       5.208   2.276  19.927  0.00  0.00    +0.000 OA
ATOM     16  H   UNL     1       5.632   1.397  19.874  0.00  0.00    +0.000 HD
ENDBRANCH  14  15
ENDBRANCH  12  14
ENDBRANCH  11  12
ENDBRANCH   7  11
ENDBRANCH   1   9
BRANCH   4  17
ATOM     17  S   UNL     1       0.755  10.415  20.109  0.00  0.00    +0.000 S 
BRANCH  17  18
ATOM     18  C   UNL     1      -0.660  10.595  19.037  0.00  0.00    +0.000 A 
ATOM     19  C   UNL     1      -1.602  11.587  19.339  0.00  0.00    +0.000 A 
ATOM     20  C   UNL     1      -2.714  11.788  18.516  0.00  0.00    +0.000 A 
ATOM     21  C   UNL     1      -2.883  10.993  17.375  0.00  0.00    +0.000 A 
ATOM     22  C   UNL     1      -1.940  10.010  17.051  0.00  0.00    +0.000 A 
ATOM     23  C   UNL     1      -0.829   9.820  17.881  0.00  0.00    +0.000 A 
BRANCH  21  24
ATOM     24  N   UNL     1      -4.055  11.195  16.515  0.00  0.00    +0.000 N 
ATOM     25  O   UNL     1      -5.030  11.790  16.997  0.00  0.00    +0.000 OA
ATOM     26  O   UNL     1      -4.000  10.761  15.356  0.00  0.00    +0.000 OA
ENDBRANCH  21  24
ENDBRANCH  17  18
ENDBRANCH   4  17
TORSDOF 8
ENDMDL
MODEL 4
REMARK VINA RESULT:      -7.3      0.563      1.542
REMARK  Name = 
REMARK  8 active torsions:
REMARK  status: ('A' for Active; 'I' for Inactive)
REMARK    1  A    between atoms: C_2  and  O_3
REMARK    2  A    between atoms: C_2  and  C_4
REMARK    3  A    between atoms: C_4  and  C_5
REMARK    4  A    between atoms: C_5  and  C_6
REMARK    5  A    between atoms: N_8  and  C_9
REMARK    6  A    between atoms: C_12  and  S_13
REMARK    7  A    between atoms: S_13  and  C_14
REMARK    8  A    between atoms: C_17  and  N_18
REMARK                            x       y       z     vdW  Elec       q    Type
REMARK                         _______ _______ _______ _____ _____    ______ ____
ROOT
ATOM      1  C   UNL     1       2.607   6.791  18.587  0.00  0.00    +0.000 A 
ATOM      2  C   UNL     1       2.551   7.894  17.736  0.00  0.00    +0.000 A 
ATOM      3  C   UNL     1       2.008   9.106  18.172  0.00  0.00    +0.000 A 
ATOM      4  C   UNL     1       1.485   9.227  19.459  0.00  0.00    +0.000 A 
ATOM      5  C   UNL     1       1.527   8.122  20.317  0.00  0.00    +0.000 A 
ATOM      6  C   UNL     1       2.079   6.909  19.879  0.00  0.00    +0.000 A 
ENDROOT
BRANCH   1   9
ATOM      7  C   UNL     1       2.467   4.454  17.730  0.00  0.00    +0.000 C 
ATOM      8  O   UNL     1       1.273   4.410  17.448  0.00  0.00    +0.000 OA
ATOM      9  N   UNL     1       3.164   5.553  18.202  0.00  0.00    +0.000 N 
ATOM     10  H   UNL     1       4.181   5.517  18.133  0.00  0.00    +0.000 HD
BRANCH   7  11
ATOM     11  C   UNL     1       3.337   3.240  17.482  0.00  0.00    +0.000 C 
BRANCH  11  12
ATOM     12  C   UNL     1       3.349   2.336  18.709  0.00  0.00    +0.000 C 
BRANCH  12  14
ATOM     13  O   UNL     1       4.852   1.937  20.555  0.00  0.00    +0.000 OA
ATOM     14  C   UNL     1       4.603   2.539  19.519  0.00  0.00    +0.000 C 
BRANCH  14  15
ATOM     15  O   UNL     1       5.441   3.452  18.989  0.00  0.00    +0.000 OA
ATOM     16  H   UNL     1       5.363   3.560  18.021  0.00  0.00    +0.000 HD
ENDBRANCH  14  15
ENDBRANCH  12  14
ENDBRANCH  11  12
ENDBRANCH   7  11
ENDBRANCH   1   9
BRANCH   4  17
ATOM     17  S   UNL     1       0.848  10.796  20.008  0.00  0.00    +0.000 S 
BRANCH  17  18
ATOM     18  C   UNL     1      -0.701  10.907  19.128  0.00  0.00    +0.000 A 
ATOM     19  C   UNL     1      -0.928  10.023  18.065  0.00  0.00    +0.000 A 
ATOM     20  C   UNL     1      -2.135  10.050  17.361  0.00  0.00    +0.000 A 
ATOM     21  C   UNL     1      -3.129  10.966  17.726  0.00  0.00    +0.000 A 
ATOM     22  C   UNL     1      -2.923  11.844  18.798  0.00  0.00    +0.000 A 
ATOM     23  C   UNL     1      -1.711  11.805  19.498  0.00  0.00    +0.000 A 
BRANCH  21  24
ATOM     24  N   UNL     1      -4.393  11.004  16.983  0.00  0.00    +0.000 N 
ATOM     25  O   UNL     1      -4.336  10.980  15.745  0.00  0.00    +0.000 OA
ATOM     26  O   UNL     1      -5.444  11.055  17.636  0.00  0.00    +0.000 OA
ENDBRANCH  21  24
ENDBRANCH  17  18
ENDBRANCH   4  17
TORSDOF 8
ENDMDL
MODEL 5
REMARK VINA RESULT:      -7.2      0.604      1.197
REMARK  Name = 
REMARK  8 active torsions:
REMARK  status: ('A' for Active; 'I' for Inactive)
REMARK    1  A    between atoms: C_2  and  O_3
REMARK    2  A    between atoms: C_2  and  C_4
REMARK    3  A    between atoms: C_4  and  C_5
REMARK    4  A    between atoms: C_5  and  C_6
REMARK    5  A    between atoms: N_8  and  C_9
REMARK    6  A    between atoms: C_12  and  S_13
REMARK    7  A    between atoms: S_13  and  C_14
REMARK    8  A    between atoms: C_17  and  N_18
REMARK                            x       y       z     vdW  Elec       q    Type
REMARK                         _______ _______ _______ _____ _____    ______ ____
ROOT
ATOM      1  C   UNL     1       2.380   6.529  19.122  0.00  0.00    +0.000 A 
ATOM      2  C   UNL     1       1.825   6.751  20.382  0.00  0.00    +0.000 A 
ATOM      3  C   UNL     1       1.306   8.003  20.724  0.00  0.00    +0.000 A 
ATOM      4  C   UNL     1       1.359   9.064  19.821  0.00  0.00    +0.000 A 
ATOM      5  C   UNL     1       1.925   8.854  18.558  0.00  0.00    +0.000 A 
ATOM      6  C   UNL     1       2.438   7.595  18.215  0.00  0.00    +0.000 A 
ENDROOT
BRANCH   1   9
ATOM      7  C   UNL     1       2.239   4.329  17.960  0.00  0.00    +0.000 C 
ATOM      8  O   UNL     1       1.154   4.461  17.402  0.00  0.00    +0.000 OA
ATOM      9  N   UNL     1       2.897   5.279  18.721  0.00  0.00    +0.000 N 
ATOM     10  H   UNL     1       3.892   5.126  18.890  0.00  0.00    +0.000 HD
BRANCH   7  11
ATOM     11  C   UNL     1       3.026   3.049  17.768  0.00  0.00    +0.000 C 
BRANCH  11  12
ATOM     12  C   UNL     1       3.153   2.301  19.090  0.00  0.00    +0.000 C 
BRANCH  12  14
ATOM     13  O   UNL     1       4.939   1.837  20.646  0.00  0.00    +0.000 OA
ATOM     14  C   UNL     1       4.536   2.451  19.666  0.00  0.00    +0.000 C 
BRANCH  14  15
ATOM     15  O   UNL     1       5.305   3.330  18.993  0.00  0.00    +0.000 OA
ATOM     16  H   UNL     1       6.060   3.682  19.504  0.00  0.00    +0.000 HD
ENDBRANCH  14  15
ENDBRANCH  12  14
ENDBRANCH  11  12
ENDBRANCH   7  11
ENDBRANCH   1   9
BRANCH   4  17
ATOM     17  S   UNL     1       0.644  10.633  20.261  0.00  0.00    +0.000 S 
BRANCH  17  18
ATOM     18  C   UNL     1      -0.711  10.771  19.108  0.00  0.00    +0.000 A 
ATOM     19  C   UNL     1      -0.715   9.938  17.982  0.00  0.00    +0.000 A 
ATOM     20  C   UNL     1      -1.767   9.987  17.062  0.00  0.00    +0.000 A 
ATOM     21  C   UNL     1      -2.830  10.874  17.274  0.00  0.00    +0.000 A 
ATOM     22  C   UNL     1      -2.849  11.699  18.405  0.00  0.00    +0.000 A 
ATOM     23  C   UNL     1      -1.791  11.639  19.320  0.00  0.00    +0.000 A 
BRANCH  21  24
ATOM     24  N   UNL     1      -3.930  10.934  16.305  0.00  0.00    +0.000 N 
ATOM     25  O   UNL     1      -3.830  10.255  15.273  0.00  0.00    +0.000 OA
ATOM     26  O   UNL     1      -4.897  11.659  16.577  0.00  0.00    +0.000 OA
ENDBRANCH  21  24
ENDBRANCH  17  18
ENDBRANCH   4  17
TORSDOF 8
ENDMDL
MODEL 6
REMARK VINA RESULT:      -7.2      3.648      9.031
REMARK  Name = 
REMARK  8 active torsions:
REMARK  status: ('A' for Active; 'I' for Inactive)
REMARK    1  A    between atoms: C_2  and  O_3
REMARK    2  A    between atoms: C_2  and  C_4
REMARK    3  A    between atoms: C_4  and  C_5
REMARK    4  A    between atoms: C_5  and  C_6
REMARK    5  A    between atoms: N_8  and  C_9
REMARK    6  A    between atoms: C_12  and  S_13
REMARK    7  A    between atoms: S_13  and  C_14
REMARK    8  A    between atoms: C_17  and  N_18
REMARK                            x       y       z     vdW  Elec       q    Type
REMARK                         _______ _______ _______ _____ _____    ______ ____
ROOT
ATOM      1  C   UNL     1       1.325   9.197  18.705  0.00  0.00    +0.000 A 
ATOM      2  C   UNL     1       1.208   8.512  19.915  0.00  0.00    +0.000 A 
ATOM      3  C   UNL     1       1.974   7.370  20.166  0.00  0.00    +0.000 A 
ATOM      4  C   UNL     1       2.850   6.877  19.201  0.00  0.00    +0.000 A 
ATOM      5  C   UNL     1       2.967   7.551  17.980  0.00  0.00    +0.000 A 
ATOM      6  C   UNL     1       2.202   8.700  17.733  0.00  0.00    +0.000 A 
ENDROOT
BRANCH   1   9
ATOM      7  C   UNL     1       0.597  11.540  19.143  0.00  0.00    +0.000 C 
ATOM      8  O   UNL     1       1.331  11.809  20.090  0.00  0.00    +0.000 OA
ATOM      9  N   UNL     1       0.591  10.365  18.412  0.00  0.00    +0.000 N 
ATOM     10  H   UNL     1       0.126  10.391  17.504  0.00  0.00    +0.000 HD
BRANCH   7  11
ATOM     11  C   UNL     1      -0.364  12.589  18.624  0.00  0.00    +0.000 C 
BRANCH  11  12
ATOM     12  C   UNL     1      -1.794  12.239  19.016  0.00  0.00    +0.000 C 
BRANCH  12  14
ATOM     13  O   UNL     1      -3.789  11.542  17.849  0.00  0.00    +0.000 OA
ATOM     14  C   UNL     1      -2.592  11.797  17.817  0.00  0.00    +0.000 C 
BRANCH  14  15
ATOM     15  O   UNL     1      -1.861  11.712  16.688  0.00  0.00    +0.000 OA
ATOM     16  H   UNL     1      -1.326  12.506  16.491  0.00  0.00    +0.000 HD
ENDBRANCH  14  15
ENDBRANCH  12  14
ENDBRANCH  11  12
ENDBRANCH   7  11
ENDBRANCH   1   9
BRANCH   4  17
ATOM     17  S   UNL     1       3.853   5.452  19.567  0.00  0.00    +0.000 S 
BRANCH  17  18
ATOM     18  C   UNL     1       4.789   5.248  18.062  0.00  0.00    +0.000 A 
ATOM     19  C   UNL     1       4.293   4.378  17.082  0.00  0.00    +0.000 A 
ATOM     20  C   UNL     1       4.973   4.204  15.873  0.00  0.00    +0.000 A 
ATOM     21  C   UNL     1       6.159   4.910  15.638  0.00  0.00    +0.000 A 
ATOM     22  C   UNL     1       6.657   5.797  16.601  0.00  0.00    +0.000 A 
ATOM     23  C   UNL     1       5.965   5.966  17.807  0.00  0.00    +0.000 A 
BRANCH  21  24
ATOM     24  N   UNL     1       6.880   4.722  14.375  0.00  0.00    +0.000 N 
ATOM     25  O   UNL     1       6.412   3.917  13.557  0.00  0.00    +0.000 OA
ATOM     26  O   UNL     1       7.915   5.379  14.199  0.00  0.00    +0.000 OA
ENDBRANCH  21  24
ENDBRANCH  17  18
ENDBRANCH   4  17
TORSDOF 8
ENDMDL
MODEL 7
REMARK VINA RESULT:      -7.2      2.134      2.878
REMARK  Name = 
REMARK  8 active torsions:
REMARK  status: ('A' for Active; 'I' for Inactive)
REMARK    1  A    between atoms: C_2  and  O_3
REMARK    2  A    between atoms: C_2  and  C_4
REMARK    3  A    between atoms: C_4  and  C_5
REMARK    4  A    between atoms: C_5  and  C_6
REMARK    5  A    between atoms: N_8  and  C_9
REMARK    6  A    between atoms: C_12  and  S_13
REMARK    7  A    between atoms: S_13  and  C_14
REMARK    8  A    between atoms: C_17  and  N_18
REMARK                            x       y       z     vdW  Elec       q    Type
REMARK                         _______ _______ _______ _____ _____    ______ ____
ROOT
ATOM      1  C   UNL     1       2.812   6.871  18.523  0.00  0.00    +0.000 A 
ATOM      2  C   UNL     1       2.735   8.020  17.736  0.00  0.00    +0.000 A 
ATOM      3  C   UNL     1       2.090   9.167  18.208  0.00  0.00    +0.000 A 
ATOM      4  C   UNL     1       1.485   9.175  19.464  0.00  0.00    +0.000 A 
ATOM      5  C   UNL     1       1.547   8.023  20.256  0.00  0.00    +0.000 A 
ATOM      6  C   UNL     1       2.201   6.876  19.783  0.00  0.00    +0.000 A 
ENDROOT
BRANCH   1   9
ATOM      7  C   UNL     1       4.662   5.203  18.602  0.00  0.00    +0.000 C 
ATOM      8  O   UNL     1       5.280   5.629  19.574  0.00  0.00    +0.000 OA
ATOM      9  N   UNL     1       3.470   5.696  18.102  0.00  0.00    +0.000 N 
ATOM     10  H   UNL     1       2.948   5.086  17.473  0.00  0.00    +0.000 HD
BRANCH   7  11
ATOM     11  C   UNL     1       5.161   3.966  17.885  0.00  0.00    +0.000 C 
BRANCH  11  12
ATOM     12  C   UNL     1       5.746   4.339  16.528  0.00  0.00    +0.000 C 
BRANCH  12  14
ATOM     13  O   UNL     1       8.059   4.191  17.203  0.00  0.00    +0.000 OA
ATOM     14  C   UNL     1       7.163   4.830  16.666  0.00  0.00    +0.000 C 
BRANCH  14  15
ATOM     15  O   UNL     1       7.362   6.051  16.132  0.00  0.00    +0.000 OA
ATOM     16  H   UNL     1       7.542   6.755  16.786  0.00  0.00    +0.000 HD
ENDBRANCH  14  15
ENDBRANCH  12  14
ENDBRANCH  11  12
ENDBRANCH   7  11
ENDBRANCH   1   9
BRANCH   4  17
ATOM     17  S   UNL     1       0.716  10.665  20.062  0.00  0.00    +0.000 S 
BRANCH  17  18
ATOM     18  C   UNL     1      -0.724  10.797  19.016  0.00  0.00    +0.000 A 
ATOM     19  C   UNL     1      -0.829   9.936  17.916  0.00  0.00    +0.000 A 
ATOM     20  C   UNL     1      -1.950   9.980  17.081  0.00  0.00    +0.000 A 
ATOM     21  C   UNL     1      -2.979  10.890  17.353  0.00  0.00    +0.000 A 
ATOM     22  C   UNL     1      -2.896  11.744  18.460  0.00  0.00    +0.000 A 
ATOM     23  C   UNL     1      -1.770  11.689  19.290  0.00  0.00    +0.000 A 
BRANCH  21  24
ATOM     24  N   UNL     1      -4.152  10.945  16.473  0.00  0.00    +0.000 N 
ATOM     25  O   UNL     1      -4.028  10.515  15.317  0.00  0.00    +0.000 OA
ATOM     26  O   UNL     1      -5.199  11.416  16.937  0.00  0.00    +0.000 OA
ENDBRANCH  21  24
ENDBRANCH  17  18
ENDBRANCH   4  17
TORSDOF 8
ENDMDL
MODEL 8
REMARK VINA RESULT:      -7.1      1.530      1.800
REMARK  Name = 
REMARK  8 active torsions:
REMARK  status: ('A' for Active; 'I' for Inactive)
REMARK    1  A    between atoms: C_2  and  O_3
REMARK    2  A    between atoms: C_2  and  C_4
REMARK    3  A    between atoms: C_4  and  C_5
REMARK    4  A    between atoms: C_5  and  C_6
REMARK    5  A    between atoms: N_8  and  C_9
REMARK    6  A    between atoms: C_12  and  S_13
REMARK    7  A    between atoms: S_13  and  C_14
REMARK    8  A    between atoms: C_17  and  N_18
REMARK                            x       y       z     vdW  Elec       q    Type
REMARK                         _______ _______ _______ _____ _____    ______ ____
ROOT
ATOM      1  C   UNL     1       2.821   6.978  18.635  0.00  0.00    +0.000 A 
ATOM      2  C   UNL     1       2.267   6.955  19.915  0.00  0.00    +0.000 A 
ATOM      3  C   UNL     1       1.550   8.051  20.403  0.00  0.00    +0.000 A 
ATOM      4  C   UNL     1       1.398   9.201  19.630  0.00  0.00    +0.000 A 
ATOM      5  C   UNL     1       1.959   9.238  18.348  0.00  0.00    +0.000 A 
ATOM      6  C   UNL     1       2.672   8.134  17.858  0.00  0.00    +0.000 A 
ENDROOT
BRANCH   1   9
ATOM      7  C   UNL     1       2.995   4.684  17.676  0.00  0.00    +0.000 C 
ATOM      8  O   UNL     1       1.803   4.404  17.596  0.00  0.00    +0.000 OA
ATOM      9  N   UNL     1       3.534   5.891  18.089  0.00  0.00    +0.000 N 
ATOM     10  H   UNL     1       4.510   6.065  17.848  0.00  0.00    +0.000 HD
BRANCH   7  11
ATOM     11  C   UNL     1       4.030   3.680  17.213  0.00  0.00    +0.000 C 
BRANCH  11  12
ATOM     12  C   UNL     1       5.145   4.381  16.447  0.00  0.00    +0.000 C 
BRANCH  12  14
ATOM     13  O   UNL     1       6.434   4.360  18.488  0.00  0.00    +0.000 OA
ATOM     14  C   UNL     1       6.407   4.448  17.267  0.00  0.00    +0.000 C 
BRANCH  14  15
ATOM     15  O   UNL     1       7.520   4.610  16.526  0.00  0.00    +0.000 OA
ATOM     16  H   UNL     1       7.727   5.538  16.302  0.00  0.00    +0.000 HD
ENDBRANCH  14  15
ENDBRANCH  12  14
ENDBRANCH  11  12
ENDBRANCH   7  11
ENDBRANCH   1   9
BRANCH   4  17
ATOM     17  S   UNL     1       0.434  10.562  20.254  0.00  0.00    +0.000 S 
BRANCH  17  18
ATOM     18  C   UNL     1      -0.899  10.659  19.071  0.00  0.00    +0.000 A 
ATOM     19  C   UNL     1      -1.941  11.562  19.316  0.00  0.00    +0.000 A 
ATOM     20  C   UNL     1      -2.995  11.697  18.408  0.00  0.00    +0.000 A 
ATOM     21  C   UNL     1      -3.004  10.926  17.239  0.00  0.00    +0.000 A 
ATOM     22  C   UNL     1      -1.959  10.033  16.972  0.00  0.00    +0.000 A 
ATOM     23  C   UNL     1      -0.908   9.908  17.888  0.00  0.00    +0.000 A 
BRANCH  21  24
ATOM     24  N   UNL     1      -4.114  11.059  16.289  0.00  0.00    +0.000 N 
ATOM     25  O   UNL     1      -4.021  10.466  15.204  0.00  0.00    +0.000 OA
ATOM     26  O   UNL     1      -5.082  11.755  16.627  0.00  0.00    +0.000 OA
ENDBRANCH  21  24
ENDBRANCH  17  18
ENDBRANCH   4  17
TORSDOF 8
ENDMDL
MODEL 9
REMARK VINA RESULT:      -7.1      3.665      9.008
REMARK  Name = 
REMARK  8 active torsions:
REMARK  status: ('A' for Active; 'I' for Inactive)
REMARK    1  A    between atoms: C_2  and  O_3
REMARK    2  A    between atoms: C_2  and  C_4
REMARK    3  A    between atoms: C_4  and  C_5
REMARK    4  A    between atoms: C_5  and  C_6
REMARK    5  A    between atoms: N_8  and  C_9
REMARK    6  A    between atoms: C_12  and  S_13
REMARK    7  A    between atoms: S_13  and  C_14
REMARK    8  A    between atoms: C_17  and  N_18
REMARK                            x       y       z     vdW  Elec       q    Type
REMARK                         _______ _______ _______ _____ _____    ______ ____
ROOT
ATOM      1  C   UNL     1       1.243   9.035  18.691  0.00  0.00    +0.000 A 
ATOM      2  C   UNL     1       2.127   8.544  17.730  0.00  0.00    +0.000 A 
ATOM      3  C   UNL     1       2.940   7.441  18.005  0.00  0.00    +0.000 A 
ATOM      4  C   UNL     1       2.904   6.828  19.257  0.00  0.00    +0.000 A 
ATOM      5  C   UNL     1       2.029   7.321  20.231  0.00  0.00    +0.000 A 
ATOM      6  C   UNL     1       1.208   8.423  19.949  0.00  0.00    +0.000 A 
ENDROOT
BRANCH   1   9
ATOM      7  C   UNL     1       0.632  11.449  18.797  0.00  0.00    +0.000 C 
ATOM      8  O   UNL     1       1.680  11.907  19.244  0.00  0.00    +0.000 OA
ATOM      9  N   UNL     1       0.386  10.131  18.454  0.00  0.00    +0.000 N 
ATOM     10  H   UNL     1      -0.420   9.954  17.854  0.00  0.00    +0.000 HD
BRANCH   7  11
ATOM     11  C   UNL     1      -0.519  12.385  18.489  0.00  0.00    +0.000 C 
BRANCH  11  12
ATOM     12  C   UNL     1      -1.849  11.715  18.814  0.00  0.00    +0.000 C 
BRANCH  12  14
ATOM     13  O   UNL     1      -2.232  10.223  16.955  0.00  0.00    +0.000 OA
ATOM     14  C   UNL     1      -2.538  11.242  17.561  0.00  0.00    +0.000 C 
BRANCH  14  15
ATOM     15  O   UNL     1      -3.540  12.050  17.163  0.00  0.00    +0.000 OA
ATOM     16  H   UNL     1      -3.266  12.772  16.564  0.00  0.00    +0.000 HD
ENDBRANCH  14  15
ENDBRANCH  12  14
ENDBRANCH  11  12
ENDBRANCH   7  11
ENDBRANCH   1   9
BRANCH   4  17
ATOM     17  S   UNL     1       3.912   5.393  19.565  0.00  0.00    +0.000 S 
BRANCH  17  18
ATOM     18  C   UNL     1       4.852   5.257  18.054  0.00  0.00    +0.000 A 
ATOM     19  C   UNL     1       4.343   4.456  17.023  0.00  0.00    +0.000 A 
ATOM     20  C   UNL     1       5.027   4.337  15.809  0.00  0.00    +0.000 A 
ATOM     21  C   UNL     1       6.228   5.032  15.621  0.00  0.00    +0.000 A 
ATOM     22  C   UNL     1       6.739   5.850  16.636  0.00  0.00    +0.000 A 
ATOM     23  C   UNL     1       6.044   5.963  17.847  0.00  0.00    +0.000 A 
BRANCH  21  24
ATOM     24  N   UNL     1       6.953   4.901  14.352  0.00  0.00    +0.000 N 
ATOM     25  O   UNL     1       7.954   5.611  14.183  0.00  0.00    +0.000 OA
ATOM     26  O   UNL     1       6.522   4.087  13.524  0.00  0.00    +0.000 OA
ENDBRANCH  21  24
ENDBRANCH  17  18
ENDBRANCH   4  17
TORSDOF 8
ENDMDL
