MODEL 1
REMARK VINA RESULT:      -8.2      0.000      0.000
REMARK  Name = 
REMARK  11 active torsions:
REMARK  status: ('A' for Active; 'I' for Inactive)
REMARK    1  A    between atoms: C_1  and  C_2
REMARK    2  A    between atoms: C_2  and  C_3
REMARK    3  A    between atoms: C_3  and  C_4
REMARK    4  A    between atoms: C_4  and  O_5
REMARK    5  A    between atoms: O_5  and  C_6
REMARK    6  A    between atoms: C_10  and  N_11
REMARK    7  A    between atoms: N_16  and  C_17
REMARK    8  A    between atoms: C_17  and  C_18
REMARK    9  A    between atoms: C_18  and  C_19
REMARK   10  A    between atoms: C_19  and  C_20
REMARK   11  A    between atoms: C_20  and  C_22
REMARK                            x       y       z     vdW  Elec       q    Type
REMARK                         _______ _______ _______ _____ _____    ______ ____
ROOT
ATOM      1  N   UNL     1       4.162   3.501  18.766  0.00  0.00    +0.000 N 
ATOM      2  C   UNL     1       4.407   2.536  19.836  0.00  0.00    +0.000 C 
ATOM      3  C   UNL     1       3.223   2.671  20.777  0.00  0.00    +0.000 C 
ATOM      4  C   UNL     1       2.198   3.358  19.933  0.00  0.00    +0.000 C 
ATOM      5  O   UNL     1       0.986   3.344  20.149  0.00  0.00    +0.000 OA
ATOM      6  N   UNL     1       2.862   4.031  18.903  0.00  0.00    +0.000 N 
ENDROOT
BRANCH   1  11
ATOM      7  C   UNL     1       6.421   4.950  16.189  0.00  0.00    +0.000 A 
ATOM      8  C   UNL     1       7.166   5.859  16.932  0.00  0.00    +0.000 A 
ATOM      9  C   UNL     1       7.012   5.916  18.315  0.00  0.00    +0.000 A 
ATOM     10  C   UNL     1       6.061   5.111  18.950  0.00  0.00    +0.000 A 
ATOM     11  C   UNL     1       5.251   4.223  18.232  0.00  0.00    +0.000 A 
ATOM     12  C   UNL     1       5.477   4.154  16.838  0.00  0.00    +0.000 A 
BRANCH   7  13
ATOM     13  O   UNL     1       6.726   4.871  14.857  0.00  0.00    +0.000 OA
BRANCH  13  14
ATOM     14  C   UNL     1       5.841   4.101  14.041  0.00  0.00    +0.000 C 
BRANCH  14  15
ATOM     15  C   UNL     1       6.544   3.800  12.718  0.00  0.00    +0.000 C 
BRANCH  15  17
ATOM     16  C   UNL     1       4.370   3.290  11.566  0.00  0.00    +0.000 C 
ATOM     17  C   UNL     1       5.762   2.780  11.894  0.00  0.00    +0.000 C 
ENDBRANCH  15  17
ENDBRANCH  14  15
ENDBRANCH  13  14
ENDBRANCH   7  13
ENDBRANCH   1  11
BRANCH   6  18
ATOM     18  C   UNL     1       2.121   4.481  17.735  0.00  0.00    +0.000 C 
BRANCH  18  19
ATOM     19  C   UNL     1       1.666   5.920  17.847  0.00  0.00    +0.000 C 
BRANCH  19  20
ATOM     20  C   UNL     1       2.679   6.853  18.455  0.00  0.00    +0.000 C 
BRANCH  20  21
ATOM     21  C   UNL     1       2.170   8.276  18.346  0.00  0.00    +0.000 C 
ATOM     22  O   UNL     1       2.361   9.012  17.351  0.00  0.00    +0.000 OA
BRANCH  21  23
ATOM     23  C   UNL     1       1.396   8.808  19.467  0.00  0.00    +0.000 A 
ATOM     24  C   UNL     1       1.489   8.196  20.720  0.00  0.00    +0.000 A 
ATOM     25  C   UNL     1       0.700   8.637  21.765  0.00  0.00    +0.000 A 
ATOM     26  C   UNL     1      -0.115   9.749  21.577  0.00  0.00    +0.000 A 
ATOM     27  F   UNL     1      -0.819  10.226  22.606  0.00  0.00    +0.000 F 
ATOM     28  C   UNL     1      -0.205  10.378  20.339  0.00  0.00    +0.000 A 
ATOM     29  C   UNL     1       0.540   9.898  19.271  0.00  0.00    +0.000 A 
ENDBRANCH  21  23
ENDBRANCH  20  21
ENDBRANCH  19  20
ENDBRANCH  18  19
ENDBRANCH   6  18
TORSDOF 10
ENDMDL
MODEL 2
REMARK VINA RESULT:      -8.1      0.851      1.445
REMARK  Name = 
REMARK  11 active torsions:
REMARK  status: ('A' for Active; 'I' for Inactive)
REMARK    1  A    between atoms: C_1  and  C_2
REMARK    2  A    between atoms: C_2  and  C_3
REMARK    3  A    between atoms: C_3  and  C_4
REMARK    4  A    between atoms: C_4  and  O_5
REMARK    5  A    between atoms: O_5  and  C_6
REMARK    6  A    between atoms: C_10  and  N_11
REMARK    7  A    between atoms: N_16  and  C_17
REMARK    8  A    between atoms: C_17  and  C_18
REMARK    9  A    between atoms: C_18  and  C_19
REMARK   10  A    between atoms: C_19  and  C_20
REMARK   11  A    between atoms: C_20  and  C_22
REMARK                            x       y       z     vdW  Elec       q    Type
REMARK                         _______ _______ _______ _____ _____    ______ ____
ROOT
ATOM      1  N   UNL     1       4.038   3.924  18.915  0.00  0.00    +0.000 N 
ATOM      2  C   UNL     1       4.172   2.747  19.773  0.00  0.00    +0.000 C 
ATOM      3  C   UNL     1       3.052   2.862  20.790  0.00  0.00    +0.000 C 
ATOM      4  C   UNL     1       2.112   3.833  20.149  0.00  0.00    +0.000 C 
ATOM      5  O   UNL     1       0.918   3.945  20.430  0.00  0.00    +0.000 OA
ATOM      6  N   UNL     1       2.834   4.592  19.224  0.00  0.00    +0.000 N 
ENDROOT
BRANCH   1  11
ATOM      7  C   UNL     1       6.388   5.539  16.526  0.00  0.00    +0.000 A 
ATOM      8  C   UNL     1       7.295   6.155  17.381  0.00  0.00    +0.000 A 
ATOM      9  C   UNL     1       7.208   5.944  18.754  0.00  0.00    +0.000 A 
ATOM     10  C   UNL     1       6.169   5.169  19.282  0.00  0.00    +0.000 A 
ATOM     11  C   UNL     1       5.203   4.577  18.460  0.00  0.00    +0.000 A 
ATOM     12  C   UNL     1       5.359   4.769  17.068  0.00  0.00    +0.000 A 
BRANCH   7  13
ATOM     13  O   UNL     1       6.623   5.698  15.187  0.00  0.00    +0.000 OA
BRANCH  13  14
ATOM     14  C   UNL     1       6.897   4.511  14.439  0.00  0.00    +0.000 C 
BRANCH  14  15
ATOM     15  C   UNL     1       5.595   4.035  13.796  0.00  0.00    +0.000 C 
BRANCH  15  17
ATOM     16  C   UNL     1       7.138   3.901  11.818  0.00  0.00    +0.000 C 
ATOM     17  C   UNL     1       5.852   3.386  12.439  0.00  0.00    +0.000 C 
ENDBRANCH  15  17
ENDBRANCH  14  15
ENDBRANCH  13  14
ENDBRANCH   7  13
ENDBRANCH   1  11
BRANCH   6  18
ATOM     18  C   UNL     1       2.130   5.354  18.204  0.00  0.00    +0.000 C 
BRANCH  18  19
ATOM     19  C   UNL     1       2.446   6.833  18.255  0.00  0.00    +0.000 C 
BRANCH  19  20
ATOM     20  C   UNL     1       2.209   7.479  19.594  0.00  0.00    +0.000 C 
BRANCH  20  21
ATOM     21  C   UNL     1       1.552   8.829  19.384  0.00  0.00    +0.000 C 
ATOM     22  O   UNL     1       1.637   9.490  18.324  0.00  0.00    +0.000 OA
BRANCH  21  23
ATOM     23  C   UNL     1       0.759   9.376  20.483  0.00  0.00    +0.000 A 
ATOM     24  C   UNL     1      -0.094  10.457  20.246  0.00  0.00    +0.000 A 
ATOM     25  C   UNL     1      -0.785  11.035  21.293  0.00  0.00    +0.000 A 
ATOM     26  C   UNL     1      -0.692  10.471  22.562  0.00  0.00    +0.000 A 
ATOM     27  F   UNL     1      -1.418  10.978  23.559  0.00  0.00    +0.000 F 
ATOM     28  C   UNL     1       0.142   9.385  22.810  0.00  0.00    +0.000 A 
ATOM     29  C   UNL     1       0.886   8.842  21.771  0.00  0.00    +0.000 A 
ENDBRANCH  21  23
ENDBRANCH  20  21
ENDBRANCH  19  20
ENDBRANCH  18  19
ENDBRANCH   6  18
TORSDOF 10
ENDMDL
MODEL 3
REMARK VINA RESULT:      -7.7      3.153      7.617
REMARK  Name = 
REMARK  11 active torsions:
REMARK  status: ('A' for Active; 'I' for Inactive)
REMARK    1  A    between atoms: C_1  and  C_2
REMARK    2  A    between atoms: C_2  and  C_3
REMARK    3  A    between atoms: C_3  and  C_4
REMARK    4  A    between atoms: C_4  and  O_5
REMARK    5  A    between atoms: O_5  and  C_6
REMARK    6  A    between atoms: C_10  and  N_11
REMARK    7  A    between atoms: N_16  and  C_17
REMARK    8  A    between atoms: C_17  and  C_18
REMARK    9  A    between atoms: C_18  and  C_19
REMARK   10  A    between atoms: C_19  and  C_20
REMARK   11  A    between atoms: C_20  and  C_22
REMARK                            x       y       z     vdW  Elec       q    Type
REMARK                         _______ _______ _______ _____ _____    ______ ____
ROOT
ATOM      1  N   UNL     1       2.284   4.800  19.873  0.00  0.00    +0.000 N 
ATOM      2  C   UNL     1       2.426   4.389  21.270  0.00  0.00    +0.000 C 
ATOM      3  C   UNL     1       1.714   3.052  21.369  0.00  0.00    +0.000 C 
ATOM      4  C   UNL     1       1.632   2.606  19.943  0.00  0.00    +0.000 C 
ATOM      5  O   UNL     1       1.472   1.441  19.580  0.00  0.00    +0.000 OA
ATOM      6  N   UNL     1       1.732   3.737  19.127  0.00  0.00    +0.000 N 
ENDROOT
BRANCH   1  11
ATOM      7  C   UNL     1       1.570   8.400  20.487  0.00  0.00    +0.000 A 
ATOM      8  C   UNL     1       1.897   8.974  19.264  0.00  0.00    +0.000 A 
ATOM      9  C   UNL     1       2.243   8.163  18.186  0.00  0.00    +0.000 A 
ATOM     10  C   UNL     1       2.329   6.776  18.350  0.00  0.00    +0.000 A 
ATOM     11  C   UNL     1       2.062   6.162  19.579  0.00  0.00    +0.000 A 
ATOM     12  C   UNL     1       1.660   7.015  20.633  0.00  0.00    +0.000 A 
BRANCH   7  13
ATOM     13  O   UNL     1       1.120   9.259  21.453  0.00  0.00    +0.000 OA
BRANCH  13  14
ATOM     14  C   UNL     1      -0.286   9.518  21.476  0.00  0.00    +0.000 C 
BRANCH  14  15
ATOM     15  C   UNL     1      -0.495  11.027  21.600  0.00  0.00    +0.000 C 
BRANCH  15  17
ATOM     16  C   UNL     1      -1.294  12.880  23.098  0.00  0.00    +0.000 C 
ATOM     17  C   UNL     1      -1.253  11.377  22.877  0.00  0.00    +0.000 C 
ENDBRANCH  15  17
ENDBRANCH  14  15
ENDBRANCH  13  14
ENDBRANCH   7  13
ENDBRANCH   1  11
BRANCH   6  18
ATOM     18  C   UNL     1       2.044   3.587  17.715  0.00  0.00    +0.000 C 
BRANCH  18  19
ATOM     19  C   UNL     1       3.405   2.970  17.477  0.00  0.00    +0.000 C 
BRANCH  19  20
ATOM     20  C   UNL     1       4.471   3.945  17.054  0.00  0.00    +0.000 C 
BRANCH  20  21
ATOM     21  C   UNL     1       5.341   4.278  18.250  0.00  0.00    +0.000 C 
ATOM     22  O   UNL     1       5.394   3.584  19.290  0.00  0.00    +0.000 OA
BRANCH  21  23
ATOM     23  C   UNL     1       6.180   5.472  18.167  0.00  0.00    +0.000 A 
ATOM     24  C   UNL     1       5.833   6.498  17.284  0.00  0.00    +0.000 A 
ATOM     25  C   UNL     1       6.661   7.593  17.136  0.00  0.00    +0.000 A 
ATOM     26  C   UNL     1       7.792   7.703  17.940  0.00  0.00    +0.000 A 
ATOM     27  F   UNL     1       8.552   8.796  17.856  0.00  0.00    +0.000 F 
ATOM     28  C   UNL     1       8.142   6.696  18.835  0.00  0.00    +0.000 A 
ATOM     29  C   UNL     1       7.344   5.566  18.940  0.00  0.00    +0.000 A 
ENDBRANCH  21  23
ENDBRANCH  20  21
ENDBRANCH  19  20
ENDBRANCH  18  19
ENDBRANCH   6  18
TORSDOF 10
ENDMDL
MODEL 4
REMARK VINA RESULT:      -7.6      1.312      1.825
REMARK  Name = 
REMARK  11 active torsions:
REMARK  status: ('A' for Active; 'I' for Inactive)
REMARK    1  A    between atoms: C_1  and  C_2
REMARK    2  A    between atoms: C_2  and  C_3
REMARK    3  A    between atoms: C_3  and  C_4
REMARK    4  A    between atoms: C_4  and  O_5
REMARK    5  A    between atoms: O_5  and  C_6
REMARK    6  A    between atoms: C_10  and  N_11
REMARK    7  A    between atoms: N_16  and  C_17
REMARK    8  A    between atoms: C_17  and  C_18
REMARK    9  A    between atoms: C_18  and  C_19
REMARK   10  A    between atoms: C_19  and  C_20
REMARK   11  A    between atoms: C_20  and  C_22
REMARK                            x       y       z     vdW  Elec       q    Type
REMARK                         _______ _______ _______ _____ _____    ______ ____
ROOT
ATOM      1  N   UNL     1       3.230   4.365  18.075  0.00  0.00    +0.000 N 
ATOM      2  C   UNL     1       2.329   3.474  17.345  0.00  0.00    +0.000 C 
ATOM      3  C   UNL     1       1.465   2.818  18.407  0.00  0.00    +0.000 C 
ATOM      4  C   UNL     1       1.634   3.723  19.586  0.00  0.00    +0.000 C 
ATOM      5  O   UNL     1       0.852   3.794  20.535  0.00  0.00    +0.000 OA
ATOM      6  N   UNL     1       2.832   4.426  19.427  0.00  0.00    +0.000 N 
ENDROOT
BRANCH   1  11
ATOM      7  C   UNL     1       6.077   5.110  15.799  0.00  0.00    +0.000 A 
ATOM      8  C   UNL     1       7.157   5.108  16.674  0.00  0.00    +0.000 A 
ATOM      9  C   UNL     1       6.973   4.743  18.004  0.00  0.00    +0.000 A 
ATOM     10  C   UNL     1       5.691   4.444  18.480  0.00  0.00    +0.000 A 
ATOM     11  C   UNL     1       4.568   4.488  17.645  0.00  0.00    +0.000 A 
ATOM     12  C   UNL     1       4.806   4.809  16.289  0.00  0.00    +0.000 A 
BRANCH   7  13
ATOM     13  O   UNL     1       6.369   5.357  14.484  0.00  0.00    +0.000 OA
BRANCH  13  14
ATOM     14  C   UNL     1       7.088   4.339  13.784  0.00  0.00    +0.000 C 
BRANCH  14  15
ATOM     15  C   UNL     1       6.525   4.239  12.368  0.00  0.00    +0.000 C 
BRANCH  15  17
ATOM     16  C   UNL     1       4.389   3.279  11.454  0.00  0.00    +0.000 C 
ATOM     17  C   UNL     1       5.680   2.979  12.195  0.00  0.00    +0.000 C 
ENDBRANCH  15  17
ENDBRANCH  14  15
ENDBRANCH  13  14
ENDBRANCH   7  13
ENDBRANCH   1  11
BRANCH   6  18
ATOM     18  C   UNL     1       3.081   5.622  20.217  0.00  0.00    +0.000 C 
BRANCH  18  19
ATOM     19  C   UNL     1       2.308   6.825  19.720  0.00  0.00    +0.000 C 
BRANCH  19  20
ATOM     20  C   UNL     1       1.581   7.590  20.794  0.00  0.00    +0.000 C 
BRANCH  20  21
ATOM     21  C   UNL     1       1.116   8.917  20.230  0.00  0.00    +0.000 C 
ATOM     22  O   UNL     1       1.391   9.321  19.077  0.00  0.00    +0.000 OA
BRANCH  21  23
ATOM     23  C   UNL     1       0.283   9.763  21.083  0.00  0.00    +0.000 A 
ATOM     24  C   UNL     1       0.094   9.415  22.423  0.00  0.00    +0.000 A 
ATOM     25  C   UNL     1      -0.758  10.158  23.217  0.00  0.00    +0.000 A 
ATOM     26  C   UNL     1      -1.348  11.304  22.692  0.00  0.00    +0.000 A 
ATOM     27  F   UNL     1      -2.109  12.068  23.478  0.00  0.00    +0.000 F 
ATOM     28  C   UNL     1      -1.157  11.670  21.363  0.00  0.00    +0.000 A 
ATOM     29  C   UNL     1      -0.352  10.890  20.546  0.00  0.00    +0.000 A 
ENDBRANCH  21  23
ENDBRANCH  20  21
ENDBRANCH  19  20
ENDBRANCH  18  19
ENDBRANCH   6  18
TORSDOF 10
ENDMDL
MODEL 5
REMARK VINA RESULT:      -7.6      1.316      1.791
REMARK  Name = 
REMARK  11 active torsions:
REMARK  status: ('A' for Active; 'I' for Inactive)
REMARK    1  A    between atoms: C_1  and  C_2
REMARK    2  A    between atoms: C_2  and  C_3
REMARK    3  A    between atoms: C_3  and  C_4
REMARK    4  A    between atoms: C_4  and  O_5
REMARK    5  A    between atoms: O_5  and  C_6
REMARK    6  A    between atoms: C_10  and  N_11
REMARK    7  A    between atoms: N_16  and  C_17
REMARK    8  A    between atoms: C_17  and  C_18
REMARK    9  A    between atoms: C_18  and  C_19
REMARK   10  A    between atoms: C_19  and  C_20
REMARK   11  A    between atoms: C_20  and  C_22
REMARK                            x       y       z     vdW  Elec       q    Type
REMARK                         _______ _______ _______ _____ _____    ______ ____
ROOT
ATOM      1  N   UNL     1       4.010   3.979  18.972  0.00  0.00    +0.000 N 
ATOM      2  C   UNL     1       3.934   2.722  19.716  0.00  0.00    +0.000 C 
ATOM      3  C   UNL     1       2.821   2.920  20.728  0.00  0.00    +0.000 C 
ATOM      4  C   UNL     1       2.063   4.084  20.172  0.00  0.00    +0.000 C 
ATOM      5  O   UNL     1       0.896   4.359  20.450  0.00  0.00    +0.000 OA
ATOM      6  N   UNL     1       2.920   4.800  19.331  0.00  0.00    +0.000 N 
ENDROOT
BRANCH   1  11
ATOM      7  C   UNL     1       6.893   4.775  16.759  0.00  0.00    +0.000 A 
ATOM      8  C   UNL     1       7.623   5.664  17.541  0.00  0.00    +0.000 A 
ATOM      9  C   UNL     1       7.233   5.918  18.852  0.00  0.00    +0.000 A 
ATOM     10  C   UNL     1       6.069   5.333  19.365  0.00  0.00    +0.000 A 
ATOM     11  C   UNL     1       5.275   4.476  18.594  0.00  0.00    +0.000 A 
ATOM     12  C   UNL     1       5.736   4.200  17.286  0.00  0.00    +0.000 A 
BRANCH   7  13
ATOM     13  O   UNL     1       7.417   4.487  15.528  0.00  0.00    +0.000 OA
BRANCH  13  14
ATOM     14  C   UNL     1       6.650   4.895  14.393  0.00  0.00    +0.000 C 
BRANCH  14  15
ATOM     15  C   UNL     1       5.829   3.699  13.912  0.00  0.00    +0.000 C 
BRANCH  15  17
ATOM     16  C   UNL     1       6.784   2.834  11.755  0.00  0.00    +0.000 C 
ATOM     17  C   UNL     1       5.702   3.689  12.391  0.00  0.00    +0.000 C 
ENDBRANCH  15  17
ENDBRANCH  14  15
ENDBRANCH  13  14
ENDBRANCH   7  13
ENDBRANCH   1  11
BRANCH   6  18
ATOM     18  C   UNL     1       2.372   5.755  18.381  0.00  0.00    +0.000 C 
BRANCH  18  19
ATOM     19  C   UNL     1       2.850   7.169  18.630  0.00  0.00    +0.000 C 
BRANCH  19  20
ATOM     20  C   UNL     1       1.832   8.070  19.279  0.00  0.00    +0.000 C 
BRANCH  20  21
ATOM     21  C   UNL     1       1.509   9.213  18.338  0.00  0.00    +0.000 C 
ATOM     22  O   UNL     1       2.143   9.452  17.285  0.00  0.00    +0.000 OA
BRANCH  21  23
ATOM     23  C   UNL     1       0.375  10.071  18.677  0.00  0.00    +0.000 A 
ATOM     24  C   UNL     1       0.471  10.941  19.766  0.00  0.00    +0.000 A 
ATOM     25  C   UNL     1      -0.621  11.696  20.147  0.00  0.00    +0.000 A 
ATOM     26  C   UNL     1      -1.782  11.645  19.381  0.00  0.00    +0.000 A 
ATOM     27  F   UNL     1      -2.812  12.431  19.699  0.00  0.00    +0.000 F 
ATOM     28  C   UNL     1      -1.887  10.793  18.285  0.00  0.00    +0.000 A 
ATOM     29  C   UNL     1      -0.811   9.989  17.938  0.00  0.00    +0.000 A 
ENDBRANCH  21  23
ENDBRANCH  20  21
ENDBRANCH  19  20
ENDBRANCH  18  19
ENDBRANCH   6  18
TORSDOF 10
ENDMDL
MODEL 6
REMARK VINA RESULT:      -7.6      1.989      2.519
REMARK  Name = 
REMARK  11 active torsions:
REMARK  status: ('A' for Active; 'I' for Inactive)
REMARK    1  A    between atoms: C_1  and  C_2
REMARK    2  A    between atoms: C_2  and  C_3
REMARK    3  A    between atoms: C_3  and  C_4
REMARK    4  A    between atoms: C_4  and  O_5
REMARK    5  A    between atoms: O_5  and  C_6
REMARK    6  A    between atoms: C_10  and  N_11
REMARK    7  A    between atoms: N_16  and  C_17
REMARK    8  A    between atoms: C_17  and  C_18
REMARK    9  A    between atoms: C_18  and  C_19
REMARK   10  A    between atoms: C_19  and  C_20
REMARK   11  A    between atoms: C_20  and  C_22
REMARK                            x       y       z     vdW  Elec       q    Type
REMARK                         _______ _______ _______ _____ _____    ______ ____
ROOT
ATOM      1  N   UNL     1       3.695   4.153  18.471  0.00  0.00    +0.000 N 
ATOM      2  C   UNL     1       3.609   3.055  19.433  0.00  0.00    +0.000 C 
ATOM      3  C   UNL     1       2.998   3.663  20.682  0.00  0.00    +0.000 C 
ATOM      4  C   UNL     1       2.372   4.923  20.174  0.00  0.00    +0.000 C 
ATOM      5  O   UNL     1       1.471   5.539  20.743  0.00  0.00    +0.000 OA
ATOM      6  N   UNL     1       3.013   5.277  18.983  0.00  0.00    +0.000 N 
ENDROOT
BRANCH   1  11
ATOM      7  C   UNL     1       5.631   4.484  15.311  0.00  0.00    +0.000 A 
ATOM      8  C   UNL     1       6.915   4.737  15.782  0.00  0.00    +0.000 A 
ATOM      9  C   UNL     1       7.177   4.683  17.148  0.00  0.00    +0.000 A 
ATOM     10  C   UNL     1       6.138   4.441  18.054  0.00  0.00    +0.000 A 
ATOM     11  C   UNL     1       4.821   4.237  17.626  0.00  0.00    +0.000 A 
ATOM     12  C   UNL     1       4.607   4.245  16.228  0.00  0.00    +0.000 A 
BRANCH   7  13
ATOM     13  O   UNL     1       5.490   4.433  13.951  0.00  0.00    +0.000 OA
BRANCH  13  14
ATOM     14  C   UNL     1       6.445   3.646  13.235  0.00  0.00    +0.000 C 
BRANCH  14  15
ATOM     15  C   UNL     1       5.853   3.293  11.872  0.00  0.00    +0.000 C 
BRANCH  15  17
ATOM     16  C   UNL     1       3.726   3.557  10.559  0.00  0.00    +0.000 C 
ATOM     17  C   UNL     1       4.328   3.259  11.921  0.00  0.00    +0.000 C 
ENDBRANCH  15  17
ENDBRANCH  14  15
ENDBRANCH  13  14
ENDBRANCH   7  13
ENDBRANCH   1  11
BRANCH   6  18
ATOM     18  C   UNL     1       2.393   6.237  18.084  0.00  0.00    +0.000 C 
BRANCH  18  19
ATOM     19  C   UNL     1       2.856   7.656  18.329  0.00  0.00    +0.000 C 
BRANCH  19  20
ATOM     20  C   UNL     1       1.917   8.719  17.825  0.00  0.00    +0.000 C 
BRANCH  20  21
ATOM     21  C   UNL     1       1.264   9.406  19.008  0.00  0.00    +0.000 C 
ATOM     22  O   UNL     1       1.101   8.868  20.126  0.00  0.00    +0.000 OA
BRANCH  21  23
ATOM     23  C   UNL     1       0.816  10.787  18.828  0.00  0.00    +0.000 A 
ATOM     24  C   UNL     1      -0.552  11.069  18.800  0.00  0.00    +0.000 A 
ATOM     25  C   UNL     1      -0.987  12.356  18.548  0.00  0.00    +0.000 A 
ATOM     26  C   UNL     1      -0.050  13.376  18.416  0.00  0.00    +0.000 A 
ATOM     27  F   UNL     1      -0.467  14.632  18.251  0.00  0.00    +0.000 F 
ATOM     28  C   UNL     1       1.316  13.111  18.457  0.00  0.00    +0.000 A 
ATOM     29  C   UNL     1       1.756  11.809  18.647  0.00  0.00    +0.000 A 
ENDBRANCH  21  23
ENDBRANCH  20  21
ENDBRANCH  19  20
ENDBRANCH  18  19
ENDBRANCH   6  18
TORSDOF 10
ENDMDL
MODEL 7
REMARK VINA RESULT:      -7.5      1.751      2.164
REMARK  Name = 
REMARK  11 active torsions:
REMARK  status: ('A' for Active; 'I' for Inactive)
REMARK    1  A    between atoms: C_1  and  C_2
REMARK    2  A    between atoms: C_2  and  C_3
REMARK    3  A    between atoms: C_3  and  C_4
REMARK    4  A    between atoms: C_4  and  O_5
REMARK    5  A    between atoms: O_5  and  C_6
REMARK    6  A    between atoms: C_10  and  N_11
REMARK    7  A    between atoms: N_16  and  C_17
REMARK    8  A    between atoms: C_17  and  C_18
REMARK    9  A    between atoms: C_18  and  C_19
REMARK   10  A    between atoms: C_19  and  C_20
REMARK   11  A    between atoms: C_20  and  C_22
REMARK                            x       y       z     vdW  Elec       q    Type
REMARK                         _______ _______ _______ _____ _____    ______ ____
ROOT
ATOM      1  N   UNL     1       3.882   4.170  18.831  0.00  0.00    +0.000 N 
ATOM      2  C   UNL     1       3.810   2.915  19.578  0.00  0.00    +0.000 C 
ATOM      3  C   UNL     1       2.806   3.166  20.688  0.00  0.00    +0.000 C 
ATOM      4  C   UNL     1       2.062   4.369  20.205  0.00  0.00    +0.000 C 
ATOM      5  O   UNL     1       0.941   4.703  20.589  0.00  0.00    +0.000 OA
ATOM      6  N   UNL     1       2.873   5.044  19.289  0.00  0.00    +0.000 N 
ENDROOT
BRANCH   1  11
ATOM      7  C   UNL     1       6.539   4.947  16.345  0.00  0.00    +0.000 A 
ATOM      8  C   UNL     1       7.430   5.704  17.097  0.00  0.00    +0.000 A 
ATOM      9  C   UNL     1       7.222   5.865  18.464  0.00  0.00    +0.000 A 
ATOM     10  C   UNL     1       6.082   5.325  19.070  0.00  0.00    +0.000 A 
ATOM     11  C   UNL     1       5.131   4.604  18.338  0.00  0.00    +0.000 A 
ATOM     12  C   UNL     1       5.407   4.415  16.965  0.00  0.00    +0.000 A 
BRANCH   7  13
ATOM     13  O   UNL     1       6.886   4.734  15.038  0.00  0.00    +0.000 OA
BRANCH  13  14
ATOM     14  C   UNL     1       6.035   3.870  14.280  0.00  0.00    +0.000 C 
BRANCH  14  15
ATOM     15  C   UNL     1       6.492   3.902  12.822  0.00  0.00    +0.000 C 
BRANCH  15  17
ATOM     16  C   UNL     1       4.404   3.330  11.546  0.00  0.00    +0.000 C 
ATOM     17  C   UNL     1       5.771   2.843  11.993  0.00  0.00    +0.000 C 
ENDBRANCH  15  17
ENDBRANCH  14  15
ENDBRANCH  13  14
ENDBRANCH   7  13
ENDBRANCH   1  11
BRANCH   6  18
ATOM     18  C   UNL     1       2.291   6.032  18.394  0.00  0.00    +0.000 C 
BRANCH  18  19
ATOM     19  C   UNL     1       2.360   7.438  18.948  0.00  0.00    +0.000 C 
BRANCH  19  20
ATOM     20  C   UNL     1       2.508   8.516  17.907  0.00  0.00    +0.000 C 
BRANCH  20  21
ATOM     21  C   UNL     1       1.317   9.451  17.987  0.00  0.00    +0.000 C 
ATOM     22  O   UNL     1       0.180   9.174  17.543  0.00  0.00    +0.000 OA
BRANCH  21  23
ATOM     23  C   UNL     1       1.513  10.744  18.642  0.00  0.00    +0.000 A 
ATOM     24  C   UNL     1       2.295  11.720  18.018  0.00  0.00    +0.000 A 
ATOM     25  C   UNL     1       2.556  12.913  18.664  0.00  0.00    +0.000 A 
ATOM     26  C   UNL     1       1.958  13.163  19.895  0.00  0.00    +0.000 A 
ATOM     27  F   UNL     1       2.144  14.345  20.486  0.00  0.00    +0.000 F 
ATOM     28  C   UNL     1       1.165  12.206  20.521  0.00  0.00    +0.000 A 
ATOM     29  C   UNL     1       0.952  10.982  19.902  0.00  0.00    +0.000 A 
ENDBRANCH  21  23
ENDBRANCH  20  21
ENDBRANCH  19  20
ENDBRANCH  18  19
ENDBRANCH   6  18
TORSDOF 10
ENDMDL
MODEL 8
REMARK VINA RESULT:      -7.5      1.145      1.603
REMARK  Name = 
REMARK  11 active torsions:
REMARK  status: ('A' for Active; 'I' for Inactive)
REMARK    1  A    between atoms: C_1  and  C_2
REMARK    2  A    between atoms: C_2  and  C_3
REMARK    3  A    between atoms: C_3  and  C_4
REMARK    4  A    between atoms: C_4  and  O_5
REMARK    5  A    between atoms: O_5  and  C_6
REMARK    6  A    between atoms: C_10  and  N_11
REMARK    7  A    between atoms: N_16  and  C_17
REMARK    8  A    between atoms: C_17  and  C_18
REMARK    9  A    between atoms: C_18  and  C_19
REMARK   10  A    between atoms: C_19  and  C_20
REMARK   11  A    between atoms: C_20  and  C_22
REMARK                            x       y       z     vdW  Elec       q    Type
REMARK                         _______ _______ _______ _____ _____    ______ ____
ROOT
ATOM      1  N   UNL     1       3.245   3.991  17.843  0.00  0.00    +0.000 N 
ATOM      2  C   UNL     1       2.507   2.789  17.456  0.00  0.00    +0.000 C 
ATOM      3  C   UNL     1       1.663   2.430  18.665  0.00  0.00    +0.000 C 
ATOM      4  C   UNL     1       1.644   3.700  19.454  0.00  0.00    +0.000 C 
ATOM      5  O   UNL     1       0.800   3.987  20.303  0.00  0.00    +0.000 OA
ATOM      6  N   UNL     1       2.756   4.461  19.081  0.00  0.00    +0.000 N 
ENDROOT
BRANCH   1  11
ATOM      7  C   UNL     1       6.099   4.534  15.519  0.00  0.00    +0.000 A 
ATOM      8  C   UNL     1       7.149   4.773  16.399  0.00  0.00    +0.000 A 
ATOM      9  C   UNL     1       6.951   4.640  17.770  0.00  0.00    +0.000 A 
ATOM     10  C   UNL     1       5.680   4.333  18.269  0.00  0.00    +0.000 A 
ATOM     11  C   UNL     1       4.583   4.139  17.421  0.00  0.00    +0.000 A 
ATOM     12  C   UNL     1       4.839   4.228  16.034  0.00  0.00    +0.000 A 
BRANCH   7  13
ATOM     13  O   UNL     1       6.413   4.563  14.187  0.00  0.00    +0.000 OA
BRANCH  13  14
ATOM     14  C   UNL     1       6.463   3.303  13.513  0.00  0.00    +0.000 C 
BRANCH  14  15
ATOM     15  C   UNL     1       5.958   3.501  12.084  0.00  0.00    +0.000 C 
BRANCH  15  17
ATOM     16  C   UNL     1       3.750   3.038  10.977  0.00  0.00    +0.000 C 
ATOM     17  C   UNL     1       4.466   3.821  12.064  0.00  0.00    +0.000 C 
ENDBRANCH  15  17
ENDBRANCH  14  15
ENDBRANCH  13  14
ENDBRANCH   7  13
ENDBRANCH   1  11
BRANCH   6  18
ATOM     18  C   UNL     1       2.807   5.878  19.404  0.00  0.00    +0.000 C 
BRANCH  18  19
ATOM     19  C   UNL     1       2.282   6.754  18.289  0.00  0.00    +0.000 C 
BRANCH  19  20
ATOM     20  C   UNL     1       2.592   8.219  18.442  0.00  0.00    +0.000 C 
BRANCH  20  21
ATOM     21  C   UNL     1       1.294   9.000  18.489  0.00  0.00    +0.000 C 
ATOM     22  O   UNL     1       0.636   9.323  17.474  0.00  0.00    +0.000 OA
BRANCH  21  23
ATOM     23  C   UNL     1       0.778   9.378  19.804  0.00  0.00    +0.000 A 
ATOM     24  C   UNL     1      -0.052  10.497  19.922  0.00  0.00    +0.000 A 
ATOM     25  C   UNL     1      -0.478  10.913  21.168  0.00  0.00    +0.000 A 
ATOM     26  C   UNL     1      -0.148  10.154  22.286  0.00  0.00    +0.000 A 
ATOM     27  F   UNL     1      -0.623  10.508  23.482  0.00  0.00    +0.000 F 
ATOM     28  C   UNL     1       0.665   9.029  22.182  0.00  0.00    +0.000 A 
ATOM     29  C   UNL     1       1.146   8.645  20.938  0.00  0.00    +0.000 A 
ENDBRANCH  21  23
ENDBRANCH  20  21
ENDBRANCH  19  20
ENDBRANCH  18  19
ENDBRANCH   6  18
TORSDOF 10
ENDMDL
MODEL 9
REMARK VINA RESULT:      -7.5      1.477      2.190
REMARK  Name = 
REMARK  11 active torsions:
REMARK  status: ('A' for Active; 'I' for Inactive)
REMARK    1  A    between atoms: C_1  and  C_2
REMARK    2  A    between atoms: C_2  and  C_3
REMARK    3  A    between atoms: C_3  and  C_4
REMARK    4  A    between atoms: C_4  and  O_5
REMARK    5  A    between atoms: O_5  and  C_6
REMARK    6  A    between atoms: C_10  and  N_11
REMARK    7  A    between atoms: N_16  and  C_17
REMARK    8  A    between atoms: C_17  and  C_18
REMARK    9  A    between atoms: C_18  and  C_19
REMARK   10  A    between atoms: C_19  and  C_20
REMARK   11  A    between atoms: C_20  and  C_22
REMARK                            x       y       z     vdW  Elec       q    Type
REMARK                         _______ _______ _______ _____ _____    ______ ____
ROOT
ATOM      1  N   UNL     1       2.900   4.591  18.012  0.00  0.00    +0.000 N 
ATOM      2  C   UNL     1       2.013   3.646  17.334  0.00  0.00    +0.000 C 
ATOM      3  C   UNL     1       1.343   2.857  18.444  0.00  0.00    +0.000 C 
ATOM      4  C   UNL     1       1.554   3.721  19.647  0.00  0.00    +0.000 C 
ATOM      5  O   UNL     1       0.881   3.668  20.677  0.00  0.00    +0.000 OA
ATOM      6  N   UNL     1       2.652   4.550  19.401  0.00  0.00    +0.000 N 
ENDROOT
BRANCH   1  11
ATOM      7  C   UNL     1       5.745   4.382  15.625  0.00  0.00    +0.000 A 
ATOM      8  C   UNL     1       6.502   5.495  15.975  0.00  0.00    +0.000 A 
ATOM      9  C   UNL     1       6.142   6.258  17.082  0.00  0.00    +0.000 A 
ATOM     10  C   UNL     1       4.983   5.950  17.802  0.00  0.00    +0.000 A 
ATOM     11  C   UNL     1       4.162   4.872  17.449  0.00  0.00    +0.000 A 
ATOM     12  C   UNL     1       4.592   4.088  16.354  0.00  0.00    +0.000 A 
BRANCH   7  13
ATOM     13  O   UNL     1       6.241   3.616  14.603  0.00  0.00    +0.000 OA
BRANCH  13  14
ATOM     14  C   UNL     1       7.039   4.289  13.626  0.00  0.00    +0.000 C 
BRANCH  14  15
ATOM     15  C   UNL     1       6.440   4.018  12.247  0.00  0.00    +0.000 C 
BRANCH  15  17
ATOM     16  C   UNL     1       4.225   3.283  11.316  0.00  0.00    +0.000 C 
ATOM     17  C   UNL     1       5.323   2.982  12.322  0.00  0.00    +0.000 C 
ENDBRANCH  15  17
ENDBRANCH  14  15
ENDBRANCH  13  14
ENDBRANCH   7  13
ENDBRANCH   1  11
BRANCH   6  18
ATOM     18  C   UNL     1       2.870   5.729  20.224  0.00  0.00    +0.000 C 
BRANCH  18  19
ATOM     19  C   UNL     1       2.090   6.933  19.745  0.00  0.00    +0.000 C 
BRANCH  19  20
ATOM     20  C   UNL     1       1.441   7.737  20.841  0.00  0.00    +0.000 C 
BRANCH  20  21
ATOM     21  C   UNL     1       0.958   9.055  20.271  0.00  0.00    +0.000 C 
ATOM     22  O   UNL     1       1.233   9.460  19.118  0.00  0.00    +0.000 OA
BRANCH  21  23
ATOM     23  C   UNL     1       0.106   9.889  21.117  0.00  0.00    +0.000 A 
ATOM     24  C   UNL     1      -0.442  11.064  20.597  0.00  0.00    +0.000 A 
ATOM     25  C   UNL     1      -1.180  11.902  21.410  0.00  0.00    +0.000 A 
ATOM     26  C   UNL     1      -1.443  11.517  22.720  0.00  0.00    +0.000 A 
ATOM     27  F   UNL     1      -2.221  12.285  23.486  0.00  0.00    +0.000 F 
ATOM     28  C   UNL     1      -0.916  10.342  23.248  0.00  0.00    +0.000 A 
ATOM     29  C   UNL     1      -0.123   9.529  22.450  0.00  0.00    +0.000 A 
ENDBRANCH  21  23
ENDBRANCH  20  21
ENDBRANCH  19  20
ENDBRANCH  18  19
ENDBRANCH   6  18
TORSDOF 10
ENDMDL
