MODEL 1
REMARK VINA RESULT:      -7.6      0.000      0.000
REMARK  Name = 
REMARK  13 active torsions:
REMARK  status: ('A' for Active; 'I' for Inactive)
REMARK    1  A    between atoms: C_1  and  C_2
REMARK    2  A    between atoms: C_2  and  C_13
REMARK    3  A    between atoms: C_3  and  C_4
REMARK    4  A    between atoms: N_6  and  C_7
REMARK    5  A    between atoms: N_6  and  C_10
REMARK    6  A    between atoms: C_7  and  C_8
REMARK    7  A    between atoms: C_7  and  C_9
REMARK    8  A    between atoms: C_10  and  C_11
REMARK    9  A    between atoms: C_10  and  C_12
REMARK   10  A    between atoms: C_16  and  O_17
REMARK   11  A    between atoms: O_17  and  C_18
REMARK   12  A    between atoms: C_18  and  C_19
REMARK   13  A    between atoms: C_18  and  C_20
REMARK                            x       y       z     vdW  Elec       q    Type
REMARK                         _______ _______ _______ _____ _____    ______ ____
ROOT
ATOM      1  C   UNL     1       1.286   8.642  19.999  0.00  0.00    +0.000 A 
ATOM      2  C   UNL     1       1.632   9.073  18.716  0.00  0.00    +0.000 A 
ATOM      3  C   UNL     1       2.364   8.233  17.865  0.00  0.00    +0.000 A 
ATOM      4  C   UNL     1       2.780   6.965  18.287  0.00  0.00    +0.000 A 
ATOM      5  C   UNL     1       2.459   6.545  19.576  0.00  0.00    +0.000 A 
ATOM      6  C   UNL     1       1.708   7.375  20.422  0.00  0.00    +0.000 A 
ENDROOT
BRANCH   1   8
ATOM      7  C   UNL     1      -0.382   8.723  21.874  0.00  0.00    +0.000 C 
ATOM      8  C   UNL     1       0.474   9.486  20.898  0.00  0.00    +0.000 C 
ATOM      9  C   UNL     1       0.538  10.826  20.757  0.00  0.00    +0.000 C 
BRANCH   9  10
ATOM     10  C   UNL     1      -0.367  11.767  21.467  0.00  0.00    +0.000 C 
ATOM     11  O   UNL     1      -0.202  11.921  22.679  0.00  0.00    +0.000 OA
ATOM     12  N   UNL     1      -1.411  12.383  20.763  0.00  0.00    +0.000 N 
BRANCH  12  13
ATOM     13  C   UNL     1      -1.569  12.440  19.284  0.00  0.00    +0.000 C 
ATOM     14  C   UNL     1      -0.421  13.126  18.538  0.00  0.00    +0.000 C 
ATOM     15  C   UNL     1      -1.916  11.089  18.656  0.00  0.00    +0.000 C 
ENDBRANCH  12  13
BRANCH  12  16
ATOM     16  C   UNL     1      -2.359  13.158  21.613  0.00  0.00    +0.000 C 
ATOM     17  C   UNL     1      -2.073  14.661  21.543  0.00  0.00    +0.000 C 
ATOM     18  C   UNL     1      -3.851  12.897  21.359  0.00  0.00    +0.000 C 
ENDBRANCH  12  16
ENDBRANCH   9  10
ENDBRANCH   1   8
BRANCH   4  19
ATOM     19  O   UNL     1       3.417   6.214  17.338  0.00  0.00    +0.000 OA
BRANCH  19  20
ATOM     20  C   UNL     1       4.326   5.184  17.755  0.00  0.00    +0.000 C 
ATOM     21  C   UNL     1       4.517   4.139  16.651  0.00  0.00    +0.000 C 
BRANCH  20  22
ATOM     22  C   UNL     1       5.683   5.817  18.059  0.00  0.00    +0.000 A 
ATOM     23  C   UNL     1       6.464   5.332  19.123  0.00  0.00    +0.000 A 
ATOM     24  C   UNL     1       7.725   5.869  19.389  0.00  0.00    +0.000 A 
ATOM     25  C   UNL     1       8.232   6.897  18.594  0.00  0.00    +0.000 A 
ATOM     26  C   UNL     1       7.476   7.382  17.530  0.00  0.00    +0.000 A 
ATOM     27  C   UNL     1       6.216   6.844  17.262  0.00  0.00    +0.000 A 
ENDBRANCH  20  22
ENDBRANCH  19  20
ENDBRANCH   4  19
TORSDOF 7
ENDMDL
MODEL 2
REMARK VINA RESULT:      -7.4      3.113      9.185
REMARK  Name = 
REMARK  13 active torsions:
REMARK  status: ('A' for Active; 'I' for Inactive)
REMARK    1  A    between atoms: C_1  and  C_2
REMARK    2  A    between atoms: C_2  and  C_13
REMARK    3  A    between atoms: C_3  and  C_4
REMARK    4  A    between atoms: N_6  and  C_7
REMARK    5  A    between atoms: N_6  and  C_10
REMARK    6  A    between atoms: C_7  and  C_8
REMARK    7  A    between atoms: C_7  and  C_9
REMARK    8  A    between atoms: C_10  and  C_11
REMARK    9  A    between atoms: C_10  and  C_12
REMARK   10  A    between atoms: C_16  and  O_17
REMARK   11  A    between atoms: O_17  and  C_18
REMARK   12  A    between atoms: C_18  and  C_19
REMARK   13  A    between atoms: C_18  and  C_20
REMARK                            x       y       z     vdW  Elec       q    Type
REMARK                         _______ _______ _______ _____ _____    ______ ____
ROOT
ATOM      1  C   UNL     1       2.625   7.816  18.646  0.00  0.00    +0.000 A 
ATOM      2  C   UNL     1       1.842   8.027  19.783  0.00  0.00    +0.000 A 
ATOM      3  C   UNL     1       1.008   9.150  19.865  0.00  0.00    +0.000 A 
ATOM      4  C   UNL     1       0.958  10.089  18.829  0.00  0.00    +0.000 A 
ATOM      5  C   UNL     1       1.759   9.894  17.706  0.00  0.00    +0.000 A 
ATOM      6  C   UNL     1       2.579   8.759  17.611  0.00  0.00    +0.000 A 
ENDROOT
BRANCH   1   8
ATOM      7  C   UNL     1       3.969   6.349  17.115  0.00  0.00    +0.000 C 
ATOM      8  C   UNL     1       3.476   6.616  18.511  0.00  0.00    +0.000 C 
ATOM      9  C   UNL     1       3.708   5.864  19.607  0.00  0.00    +0.000 C 
BRANCH   9  10
ATOM     10  C   UNL     1       4.383   4.541  19.563  0.00  0.00    +0.000 C 
ATOM     11  O   UNL     1       5.614   4.525  19.499  0.00  0.00    +0.000 OA
ATOM     12  N   UNL     1       3.610   3.374  19.520  0.00  0.00    +0.000 N 
BRANCH  12  13
ATOM     13  C   UNL     1       2.153   3.265  19.806  0.00  0.00    +0.000 C 
ATOM     14  C   UNL     1       1.709   3.874  21.139  0.00  0.00    +0.000 C 
ATOM     15  C   UNL     1       1.269   3.740  18.652  0.00  0.00    +0.000 C 
ENDBRANCH  12  13
BRANCH  12  16
ATOM     16  C   UNL     1       4.388   2.123  19.293  0.00  0.00    +0.000 C 
ATOM     17  C   UNL     1       4.783   1.462  20.617  0.00  0.00    +0.000 C 
ATOM     18  C   UNL     1       3.734   1.087  18.366  0.00  0.00    +0.000 C 
ENDBRANCH  12  16
ENDBRANCH   9  10
ENDBRANCH   1   8
BRANCH   4  19
ATOM     19  O   UNL     1       0.048  11.095  18.996  0.00  0.00    +0.000 OA
BRANCH  19  20
ATOM     20  C   UNL     1      -1.282  10.770  19.428  0.00  0.00    +0.000 C 
ATOM     21  C   UNL     1      -1.822  11.832  20.392  0.00  0.00    +0.000 C 
BRANCH  20  22
ATOM     22  C   UNL     1      -2.199  10.719  18.206  0.00  0.00    +0.000 A 
ATOM     23  C   UNL     1      -3.338  11.540  18.147  0.00  0.00    +0.000 A 
ATOM     24  C   UNL     1      -4.164  11.539  17.021  0.00  0.00    +0.000 A 
ATOM     25  C   UNL     1      -3.863  10.722  15.931  0.00  0.00    +0.000 A 
ATOM     26  C   UNL     1      -2.733   9.910  15.969  0.00  0.00    +0.000 A 
ATOM     27  C   UNL     1      -1.906   9.912  17.094  0.00  0.00    +0.000 A 
ENDBRANCH  20  22
ENDBRANCH  19  20
ENDBRANCH   4  19
TORSDOF 7
ENDMDL
MODEL 3
REMARK VINA RESULT:      -7.4      3.117      9.227
REMARK  Name = 
REMARK  13 active torsions:
REMARK  status: ('A' for Active; 'I' for Inactive)
REMARK    1  A    between atoms: C_1  and  C_2
REMARK    2  A    between atoms: C_2  and  C_13
REMARK    3  A    between atoms: C_3  and  C_4
REMARK    4  A    between atoms: N_6  and  C_7
REMARK    5  A    between atoms: N_6  and  C_10
REMARK    6  A    between atoms: C_7  and  C_8
REMARK    7  A    between atoms: C_7  and  C_9
REMARK    8  A    between atoms: C_10  and  C_11
REMARK    9  A    between atoms: C_10  and  C_12
REMARK   10  A    between atoms: C_16  and  O_17
REMARK   11  A    between atoms: O_17  and  C_18
REMARK   12  A    between atoms: C_18  and  C_19
REMARK   13  A    between atoms: C_18  and  C_20
REMARK                            x       y       z     vdW  Elec       q    Type
REMARK                         _______ _______ _______ _____ _____    ______ ____
ROOT
ATOM      1  C   UNL     1       2.471   7.705  18.738  0.00  0.00    +0.000 A 
ATOM      2  C   UNL     1       2.276   8.615  17.696  0.00  0.00    +0.000 A 
ATOM      3  C   UNL     1       1.440   9.726  17.880  0.00  0.00    +0.000 A 
ATOM      4  C   UNL     1       0.770   9.932  19.091  0.00  0.00    +0.000 A 
ATOM      5  C   UNL     1       0.943   9.009  20.121  0.00  0.00    +0.000 A 
ATOM      6  C   UNL     1       1.796   7.909  19.948  0.00  0.00    +0.000 A 
ENDROOT
BRANCH   1   8
ATOM      7  C   UNL     1       3.918   6.350  17.198  0.00  0.00    +0.000 C 
ATOM      8  C   UNL     1       3.383   6.553  18.589  0.00  0.00    +0.000 C 
ATOM      9  C   UNL     1       3.631   5.783  19.669  0.00  0.00    +0.000 C 
BRANCH   9  10
ATOM     10  C   UNL     1       4.373   4.498  19.605  0.00  0.00    +0.000 C 
ATOM     11  O   UNL     1       5.593   4.545  19.435  0.00  0.00    +0.000 OA
ATOM     12  N   UNL     1       3.665   3.290  19.661  0.00  0.00    +0.000 N 
BRANCH  12  13
ATOM     13  C   UNL     1       2.246   3.113  20.075  0.00  0.00    +0.000 C 
ATOM     14  C   UNL     1       1.921   3.598  21.491  0.00  0.00    +0.000 C 
ATOM     15  C   UNL     1       1.242   3.654  19.055  0.00  0.00    +0.000 C 
ENDBRANCH  12  13
BRANCH  12  16
ATOM     16  C   UNL     1       4.490   2.075  19.404  0.00  0.00    +0.000 C 
ATOM     17  C   UNL     1       4.902   1.391  20.711  0.00  0.00    +0.000 C 
ATOM     18  C   UNL     1       3.878   1.044  18.444  0.00  0.00    +0.000 C 
ENDBRANCH  12  16
ENDBRANCH   9  10
ENDBRANCH   1   8
BRANCH   4  19
ATOM     19  O   UNL     1       0.050  11.091  19.169  0.00  0.00    +0.000 OA
BRANCH  19  20
ATOM     20  C   UNL     1      -1.315  11.037  19.613  0.00  0.00    +0.000 C 
ATOM     21  C   UNL     1      -1.673  12.277  20.439  0.00  0.00    +0.000 C 
BRANCH  20  22
ATOM     22  C   UNL     1      -2.230  10.994  18.389  0.00  0.00    +0.000 A 
ATOM     23  C   UNL     1      -1.858  10.242  17.261  0.00  0.00    +0.000 A 
ATOM     24  C   UNL     1      -2.700  10.154  16.150  0.00  0.00    +0.000 A 
ATOM     25  C   UNL     1      -3.930  10.812  16.149  0.00  0.00    +0.000 A 
ATOM     26  C   UNL     1      -4.318  11.553  17.262  0.00  0.00    +0.000 A 
ATOM     27  C   UNL     1      -3.478  11.638  18.374  0.00  0.00    +0.000 A 
ENDBRANCH  20  22
ENDBRANCH  19  20
ENDBRANCH   4  19
TORSDOF 7
ENDMDL
MODEL 4
REMARK VINA RESULT:      -7.3      3.128      9.209
REMARK  Name = 
REMARK  13 active torsions:
REMARK  status: ('A' for Active; 'I' for Inactive)
REMARK    1  A    between atoms: C_1  and  C_2
REMARK    2  A    between atoms: C_2  and  C_13
REMARK    3  A    between atoms: C_3  and  C_4
REMARK    4  A    between atoms: N_6  and  C_7
REMARK    5  A    between atoms: N_6  and  C_10
REMARK    6  A    between atoms: C_7  and  C_8
REMARK    7  A    between atoms: C_7  and  C_9
REMARK    8  A    between atoms: C_10  and  C_11
REMARK    9  A    between atoms: C_10  and  C_12
REMARK   10  A    between atoms: C_16  and  O_17
REMARK   11  A    between atoms: O_17  and  C_18
REMARK   12  A    between atoms: C_18  and  C_19
REMARK   13  A    between atoms: C_18  and  C_20
REMARK                            x       y       z     vdW  Elec       q    Type
REMARK                         _______ _______ _______ _____ _____    ______ ____
ROOT
ATOM      1  C   UNL     1       2.349   7.925  18.781  0.00  0.00    +0.000 A 
ATOM      2  C   UNL     1       1.607   8.203  19.931  0.00  0.00    +0.000 A 
ATOM      3  C   UNL     1       0.830   9.367  20.004  0.00  0.00    +0.000 A 
ATOM      4  C   UNL     1       0.798  10.281  18.944  0.00  0.00    +0.000 A 
ATOM      5  C   UNL     1       1.560  10.018  17.807  0.00  0.00    +0.000 A 
ATOM      6  C   UNL     1       2.321   8.844  17.723  0.00  0.00    +0.000 A 
ENDROOT
BRANCH   1   8
ATOM      7  C   UNL     1       3.869   6.530  17.351  0.00  0.00    +0.000 C 
ATOM      8  C   UNL     1       3.138   6.683  18.657  0.00  0.00    +0.000 C 
ATOM      9  C   UNL     1       3.115   5.800  19.677  0.00  0.00    +0.000 C 
BRANCH   9  10
ATOM     10  C   UNL     1       3.707   4.440  19.595  0.00  0.00    +0.000 C 
ATOM     11  O   UNL     1       4.919   4.351  19.384  0.00  0.00    +0.000 OA
ATOM     12  N   UNL     1       2.873   3.318  19.683  0.00  0.00    +0.000 N 
BRANCH  12  13
ATOM     13  C   UNL     1       1.458   3.301  20.146  0.00  0.00    +0.000 C 
ATOM     14  C   UNL     1       0.470   2.643  19.178  0.00  0.00    +0.000 C 
ATOM     15  C   UNL     1       1.289   2.764  21.569  0.00  0.00    +0.000 C 
ENDBRANCH  12  13
BRANCH  12  16
ATOM     16  C   UNL     1       3.548   2.019  19.405  0.00  0.00    +0.000 C 
ATOM     17  C   UNL     1       3.850   1.854  17.913  0.00  0.00    +0.000 C 
ATOM     18  C   UNL     1       4.812   1.733  20.230  0.00  0.00    +0.000 C 
ENDBRANCH  12  16
ENDBRANCH   9  10
ENDBRANCH   1   8
BRANCH   4  19
ATOM     19  O   UNL     1      -0.058  11.333  19.107  0.00  0.00    +0.000 OA
BRANCH  19  20
ATOM     20  C   UNL     1      -1.413  11.077  19.511  0.00  0.00    +0.000 C 
ATOM     21  C   UNL     1      -1.954  12.220  20.375  0.00  0.00    +0.000 C 
BRANCH  20  22
ATOM     22  C   UNL     1      -2.286  10.963  18.261  0.00  0.00    +0.000 A 
ATOM     23  C   UNL     1      -1.952  10.042  17.252  0.00  0.00    +0.000 A 
ATOM     24  C   UNL     1      -2.760   9.893  16.124  0.00  0.00    +0.000 A 
ATOM     25  C   UNL     1      -3.919  10.657  15.985  0.00  0.00    +0.000 A 
ATOM     26  C   UNL     1      -4.269  11.567  16.978  0.00  0.00    +0.000 A 
ATOM     27  C   UNL     1      -3.462  11.714  18.109  0.00  0.00    +0.000 A 
ENDBRANCH  20  22
ENDBRANCH  19  20
ENDBRANCH   4  19
TORSDOF 7
ENDMDL
MODEL 5
REMARK VINA RESULT:      -7.1      2.334      3.931
REMARK  Name = 
REMARK  13 active torsions:
REMARK  status: ('A' for Active; 'I' for Inactive)
REMARK    1  A    between atoms: C_1  and  C_2
REMARK    2  A    between atoms: C_2  and  C_13
REMARK    3  A    between atoms: C_3  and  C_4
REMARK    4  A    between atoms: N_6  and  C_7
REMARK    5  A    between atoms: N_6  and  C_10
REMARK    6  A    between atoms: C_7  and  C_8
REMARK    7  A    between atoms: C_7  and  C_9
REMARK    8  A    between atoms: C_10  and  C_11
REMARK    9  A    between atoms: C_10  and  C_12
REMARK   10  A    between atoms: C_16  and  O_17
REMARK   11  A    between atoms: O_17  and  C_18
REMARK   12  A    between atoms: C_18  and  C_19
REMARK   13  A    between atoms: C_18  and  C_20
REMARK                            x       y       z     vdW  Elec       q    Type
REMARK                         _______ _______ _______ _____ _____    ______ ____
ROOT
ATOM      1  C   UNL     1       0.346   9.695  19.575  0.00  0.00    +0.000 A 
ATOM      2  C   UNL     1       0.883   8.824  20.527  0.00  0.00    +0.000 A 
ATOM      3  C   UNL     1       1.871   7.901  20.158  0.00  0.00    +0.000 A 
ATOM      4  C   UNL     1       2.320   7.815  18.835  0.00  0.00    +0.000 A 
ATOM      5  C   UNL     1       1.765   8.664  17.880  0.00  0.00    +0.000 A 
ATOM      6  C   UNL     1       0.792   9.604  18.250  0.00  0.00    +0.000 A 
ENDROOT
BRANCH   1   8
ATOM      7  C   UNL     1      -0.724  11.025  21.415  0.00  0.00    +0.000 C 
ATOM      8  C   UNL     1      -0.660  10.710  19.945  0.00  0.00    +0.000 C 
ATOM      9  C   UNL     1      -1.437  11.232  18.973  0.00  0.00    +0.000 C 
BRANCH   9  10
ATOM     10  C   UNL     1      -2.604  12.112  19.243  0.00  0.00    +0.000 C 
ATOM     11  O   UNL     1      -2.437  13.076  19.993  0.00  0.00    +0.000 OA
ATOM     12  N   UNL     1      -3.855  11.782  18.706  0.00  0.00    +0.000 N 
BRANCH  12  13
ATOM     13  C   UNL     1      -4.123  10.786  17.632  0.00  0.00    +0.000 C 
ATOM     14  C   UNL     1      -3.594  11.172  16.247  0.00  0.00    +0.000 C 
ATOM     15  C   UNL     1      -3.718   9.360  18.008  0.00  0.00    +0.000 C 
ENDBRANCH  12  13
BRANCH  12  16
ATOM     16  C   UNL     1      -4.981  12.629  19.191  0.00  0.00    +0.000 C 
ATOM     17  C   UNL     1      -6.033  12.840  18.098  0.00  0.00    +0.000 C 
ATOM     18  C   UNL     1      -5.660  12.161  20.487  0.00  0.00    +0.000 C 
ENDBRANCH  12  16
ENDBRANCH   9  10
ENDBRANCH   1   8
BRANCH   4  19
ATOM     19  O   UNL     1       3.340   6.931  18.622  0.00  0.00    +0.000 OA
BRANCH  19  20
ATOM     20  C   UNL     1       3.076   5.720  17.896  0.00  0.00    +0.000 C 
ATOM     21  C   UNL     1       4.371   5.118  17.342  0.00  0.00    +0.000 C 
BRANCH  20  22
ATOM     22  C   UNL     1       2.440   4.705  18.846  0.00  0.00    +0.000 A 
ATOM     23  C   UNL     1       1.405   3.869  18.390  0.00  0.00    +0.000 A 
ATOM     24  C   UNL     1       0.842   2.906  19.230  0.00  0.00    +0.000 A 
ATOM     25  C   UNL     1       1.304   2.758  20.537  0.00  0.00    +0.000 A 
ATOM     26  C   UNL     1       2.335   3.571  21.001  0.00  0.00    +0.000 A 
ATOM     27  C   UNL     1       2.901   4.532  20.161  0.00  0.00    +0.000 A 
ENDBRANCH  20  22
ENDBRANCH  19  20
ENDBRANCH   4  19
TORSDOF 7
ENDMDL
MODEL 6
REMARK VINA RESULT:      -7.1      2.236      3.685
REMARK  Name = 
REMARK  13 active torsions:
REMARK  status: ('A' for Active; 'I' for Inactive)
REMARK    1  A    between atoms: C_1  and  C_2
REMARK    2  A    between atoms: C_2  and  C_13
REMARK    3  A    between atoms: C_3  and  C_4
REMARK    4  A    between atoms: N_6  and  C_7
REMARK    5  A    between atoms: N_6  and  C_10
REMARK    6  A    between atoms: C_7  and  C_8
REMARK    7  A    between atoms: C_7  and  C_9
REMARK    8  A    between atoms: C_10  and  C_11
REMARK    9  A    between atoms: C_10  and  C_12
REMARK   10  A    between atoms: C_16  and  O_17
REMARK   11  A    between atoms: O_17  and  C_18
REMARK   12  A    between atoms: C_18  and  C_19
REMARK   13  A    between atoms: C_18  and  C_20
REMARK                            x       y       z     vdW  Elec       q    Type
REMARK                         _______ _______ _______ _____ _____    ______ ____
ROOT
ATOM      1  C   UNL     1       0.697   9.400  19.455  0.00  0.00    +0.000 A 
ATOM      2  C   UNL     1       1.181   8.458  20.366  0.00  0.00    +0.000 A 
ATOM      3  C   UNL     1       2.143   7.521  19.964  0.00  0.00    +0.000 A 
ATOM      4  C   UNL     1       2.618   7.494  18.648  0.00  0.00    +0.000 A 
ATOM      5  C   UNL     1       2.116   8.416  17.732  0.00  0.00    +0.000 A 
ATOM      6  C   UNL     1       1.169   9.369  18.137  0.00  0.00    +0.000 A 
ENDROOT
BRANCH   1   8
ATOM      7  C   UNL     1      -0.467  10.565  21.350  0.00  0.00    +0.000 C 
ATOM      8  C   UNL     1      -0.280  10.430  19.863  0.00  0.00    +0.000 C 
ATOM      9  C   UNL     1      -0.928  11.120  18.902  0.00  0.00    +0.000 C 
BRANCH   9  10
ATOM     10  C   UNL     1      -2.063  12.039  19.179  0.00  0.00    +0.000 C 
ATOM     11  O   UNL     1      -1.866  12.982  19.949  0.00  0.00    +0.000 OA
ATOM     12  N   UNL     1      -3.321  11.767  18.625  0.00  0.00    +0.000 N 
BRANCH  12  13
ATOM     13  C   UNL     1      -3.617  10.803  17.530  0.00  0.00    +0.000 C 
ATOM     14  C   UNL     1      -2.842  11.042  16.231  0.00  0.00    +0.000 C 
ATOM     15  C   UNL     1      -3.536   9.340  17.968  0.00  0.00    +0.000 C 
ENDBRANCH  12  13
BRANCH  12  16
ATOM     16  C   UNL     1      -4.418  12.648  19.117  0.00  0.00    +0.000 C 
ATOM     17  C   UNL     1      -5.644  12.578  18.202  0.00  0.00    +0.000 C 
ATOM     18  C   UNL     1      -4.843  12.434  20.577  0.00  0.00    +0.000 C 
ENDBRANCH  12  16
ENDBRANCH   9  10
ENDBRANCH   1   8
BRANCH   4  19
ATOM     19  O   UNL     1       3.610   6.586  18.405  0.00  0.00    +0.000 OA
BRANCH  19  20
ATOM     20  C   UNL     1       3.299   5.390  17.672  0.00  0.00    +0.000 C 
ATOM     21  C   UNL     1       4.564   4.773  17.065  0.00  0.00    +0.000 C 
BRANCH  20  22
ATOM     22  C   UNL     1       2.679   4.373  18.629  0.00  0.00    +0.000 A 
ATOM     23  C   UNL     1       3.360   4.007  19.804  0.00  0.00    +0.000 A 
ATOM     24  C   UNL     1       2.790   3.112  20.712  0.00  0.00    +0.000 A 
ATOM     25  C   UNL     1       1.529   2.571  20.466  0.00  0.00    +0.000 A 
ATOM     26  C   UNL     1       0.837   2.930  19.312  0.00  0.00    +0.000 A 
ATOM     27  C   UNL     1       1.405   3.826  18.405  0.00  0.00    +0.000 A 
ENDBRANCH  20  22
ENDBRANCH  19  20
ENDBRANCH   4  19
TORSDOF 7
ENDMDL
MODEL 7
REMARK VINA RESULT:      -7.1      1.112      1.832
REMARK  Name = 
REMARK  13 active torsions:
REMARK  status: ('A' for Active; 'I' for Inactive)
REMARK    1  A    between atoms: C_1  and  C_2
REMARK    2  A    between atoms: C_2  and  C_13
REMARK    3  A    between atoms: C_3  and  C_4
REMARK    4  A    between atoms: N_6  and  C_7
REMARK    5  A    between atoms: N_6  and  C_10
REMARK    6  A    between atoms: C_7  and  C_8
REMARK    7  A    between atoms: C_7  and  C_9
REMARK    8  A    between atoms: C_10  and  C_11
REMARK    9  A    between atoms: C_10  and  C_12
REMARK   10  A    between atoms: C_16  and  O_17
REMARK   11  A    between atoms: O_17  and  C_18
REMARK   12  A    between atoms: C_18  and  C_19
REMARK   13  A    between atoms: C_18  and  C_20
REMARK                            x       y       z     vdW  Elec       q    Type
REMARK                         _______ _______ _______ _____ _____    ______ ____
ROOT
ATOM      1  C   UNL     1       0.963   9.085  20.315  0.00  0.00    +0.000 A 
ATOM      2  C   UNL     1       1.538   7.874  20.706  0.00  0.00    +0.000 A 
ATOM      3  C   UNL     1       2.284   7.120  19.789  0.00  0.00    +0.000 A 
ATOM      4  C   UNL     1       2.448   7.550  18.467  0.00  0.00    +0.000 A 
ATOM      5  C   UNL     1       1.851   8.744  18.069  0.00  0.00    +0.000 A 
ATOM      6  C   UNL     1       1.122   9.511  18.990  0.00  0.00    +0.000 A 
ENDROOT
BRANCH   1   8
ATOM      7  C   UNL     1      -0.504   9.157  22.351  0.00  0.00    +0.000 C 
ATOM      8  C   UNL     1       0.213   9.923  21.273  0.00  0.00    +0.000 C 
ATOM      9  C   UNL     1       0.206  11.260  21.091  0.00  0.00    +0.000 C 
BRANCH   9  10
ATOM     10  C   UNL     1      -0.660  12.186  21.867  0.00  0.00    +0.000 C 
ATOM     11  O   UNL     1      -0.469  12.270  23.082  0.00  0.00    +0.000 OA
ATOM     12  N   UNL     1      -1.698  12.866  21.217  0.00  0.00    +0.000 N 
BRANCH  12  13
ATOM     13  C   UNL     1      -1.881  13.007  19.746  0.00  0.00    +0.000 C 
ATOM     14  C   UNL     1      -0.641  13.484  18.984  0.00  0.00    +0.000 C 
ATOM     15  C   UNL     1      -2.501  11.773  19.089  0.00  0.00    +0.000 C 
ENDBRANCH  12  13
BRANCH  12  16
ATOM     16  C   UNL     1      -2.609  13.620  22.125  0.00  0.00    +0.000 C 
ATOM     17  C   UNL     1      -2.963  14.994  21.547  0.00  0.00    +0.000 C 
ATOM     18  C   UNL     1      -3.889  12.885  22.548  0.00  0.00    +0.000 C 
ENDBRANCH  12  16
ENDBRANCH   9  10
ENDBRANCH   1   8
BRANCH   4  19
ATOM     19  O   UNL     1       3.261   6.767  17.696  0.00  0.00    +0.000 OA
BRANCH  19  20
ATOM     20  C   UNL     1       3.569   5.434  18.134  0.00  0.00    +0.000 C 
ATOM     21  C   UNL     1       2.542   4.430  17.600  0.00  0.00    +0.000 C 
BRANCH  20  22
ATOM     22  C   UNL     1       4.947   5.046  17.598  0.00  0.00    +0.000 A 
ATOM     23  C   UNL     1       5.093   4.649  16.257  0.00  0.00    +0.000 A 
ATOM     24  C   UNL     1       6.349   4.332  15.737  0.00  0.00    +0.000 A 
ATOM     25  C   UNL     1       7.483   4.410  16.546  0.00  0.00    +0.000 A 
ATOM     26  C   UNL     1       7.357   4.810  17.873  0.00  0.00    +0.000 A 
ATOM     27  C   UNL     1       6.101   5.130  18.393  0.00  0.00    +0.000 A 
ENDBRANCH  20  22
ENDBRANCH  19  20
ENDBRANCH   4  19
TORSDOF 7
ENDMDL
MODEL 8
REMARK VINA RESULT:      -7.1      0.425      1.019
REMARK  Name = 
REMARK  13 active torsions:
REMARK  status: ('A' for Active; 'I' for Inactive)
REMARK    1  A    between atoms: C_1  and  C_2
REMARK    2  A    between atoms: C_2  and  C_13
REMARK    3  A    between atoms: C_3  and  C_4
REMARK    4  A    between atoms: N_6  and  C_7
REMARK    5  A    between atoms: N_6  and  C_10
REMARK    6  A    between atoms: C_7  and  C_8
REMARK    7  A    between atoms: C_7  and  C_9
REMARK    8  A    between atoms: C_10  and  C_11
REMARK    9  A    between atoms: C_10  and  C_12
REMARK   10  A    between atoms: C_16  and  O_17
REMARK   11  A    between atoms: O_17  and  C_18
REMARK   12  A    between atoms: C_18  and  C_19
REMARK   13  A    between atoms: C_18  and  C_20
REMARK                            x       y       z     vdW  Elec       q    Type
REMARK                         _______ _______ _______ _____ _____    ______ ____
ROOT
ATOM      1  C   UNL     1       1.336   8.706  20.167  0.00  0.00    +0.000 A 
ATOM      2  C   UNL     1       1.661   7.405  20.560  0.00  0.00    +0.000 A 
ATOM      3  C   UNL     1       2.272   6.528  19.653  0.00  0.00    +0.000 A 
ATOM      4  C   UNL     1       2.546   6.924  18.339  0.00  0.00    +0.000 A 
ATOM      5  C   UNL     1       2.197   8.212  17.938  0.00  0.00    +0.000 A 
ATOM      6  C   UNL     1       1.606   9.099  18.849  0.00  0.00    +0.000 A 
ENDROOT
BRANCH   1   8
ATOM      7  C   UNL     1       0.540   9.135  22.508  0.00  0.00    +0.000 C 
ATOM      8  C   UNL     1       0.737   9.666  21.114  0.00  0.00    +0.000 C 
ATOM      9  C   UNL     1       0.395  10.891  20.662  0.00  0.00    +0.000 C 
BRANCH   9  10
ATOM     10  C   UNL     1      -0.383  11.871  21.462  0.00  0.00    +0.000 C 
ATOM     11  O   UNL     1      -0.114  11.980  22.660  0.00  0.00    +0.000 OA
ATOM     12  N   UNL     1      -1.433  12.575  20.858  0.00  0.00    +0.000 N 
BRANCH  12  13
ATOM     13  C   UNL     1      -1.703  12.684  19.397  0.00  0.00    +0.000 C 
ATOM     14  C   UNL     1      -0.526  13.193  18.560  0.00  0.00    +0.000 C 
ATOM     15  C   UNL     1      -2.311  11.417  18.794  0.00  0.00    +0.000 C 
ENDBRANCH  12  13
BRANCH  12  16
ATOM     16  C   UNL     1      -2.256  13.389  21.797  0.00  0.00    +0.000 C 
ATOM     17  C   UNL     1      -2.396  14.834  21.311  0.00  0.00    +0.000 C 
ATOM     18  C   UNL     1      -3.639  12.817  22.142  0.00  0.00    +0.000 C 
ENDBRANCH  12  16
ENDBRANCH   9  10
ENDBRANCH   1   8
BRANCH   4  19
ATOM     19  O   UNL     1       3.214   6.004  17.580  0.00  0.00    +0.000 OA
BRANCH  19  20
ATOM     20  C   UNL     1       4.111   5.085  18.223  0.00  0.00    +0.000 C 
ATOM     21  C   UNL     1       4.226   3.781  17.427  0.00  0.00    +0.000 C 
BRANCH  20  22
ATOM     22  C   UNL     1       5.497   5.725  18.303  0.00  0.00    +0.000 A 
ATOM     23  C   UNL     1       6.395   5.332  19.311  0.00  0.00    +0.000 A 
ATOM     24  C   UNL     1       7.681   5.873  19.375  0.00  0.00    +0.000 A 
ATOM     25  C   UNL     1       8.095   6.811  18.430  0.00  0.00    +0.000 A 
ATOM     26  C   UNL     1       7.221   7.204  17.420  0.00  0.00    +0.000 A 
ATOM     27  C   UNL     1       5.937   6.661  17.354  0.00  0.00    +0.000 A 
ENDBRANCH  20  22
ENDBRANCH  19  20
ENDBRANCH   4  19
TORSDOF 7
ENDMDL
MODEL 9
REMARK VINA RESULT:      -7.1      3.001      9.616
REMARK  Name = 
REMARK  13 active torsions:
REMARK  status: ('A' for Active; 'I' for Inactive)
REMARK    1  A    between atoms: C_1  and  C_2
REMARK    2  A    between atoms: C_2  and  C_13
REMARK    3  A    between atoms: C_3  and  C_4
REMARK    4  A    between atoms: N_6  and  C_7
REMARK    5  A    between atoms: N_6  and  C_10
REMARK    6  A    between atoms: C_7  and  C_8
REMARK    7  A    between atoms: C_7  and  C_9
REMARK    8  A    between atoms: C_10  and  C_11
REMARK    9  A    between atoms: C_10  and  C_12
REMARK   10  A    between atoms: C_16  and  O_17
REMARK   11  A    between atoms: O_17  and  C_18
REMARK   12  A    between atoms: C_18  and  C_19
REMARK   13  A    between atoms: C_18  and  C_20
REMARK                            x       y       z     vdW  Elec       q    Type
REMARK                         _______ _______ _______ _____ _____    ______ ____
ROOT
ATOM      1  C   UNL     1       1.526   8.425  19.775  0.00  0.00    +0.000 A 
ATOM      2  C   UNL     1       1.015   9.400  18.916  0.00  0.00    +0.000 A 
ATOM      3  C   UNL     1       0.186  10.415  19.416  0.00  0.00    +0.000 A 
ATOM      4  C   UNL     1      -0.163  10.459  20.770  0.00  0.00    +0.000 A 
ATOM      5  C   UNL     1       0.323   9.471  21.623  0.00  0.00    +0.000 A 
ATOM      6  C   UNL     1       1.170   8.467  21.130  0.00  0.00    +0.000 A 
ENDROOT
BRANCH   1   8
ATOM      7  C   UNL     1       2.993   7.613  17.908  0.00  0.00    +0.000 C 
ATOM      8  C   UNL     1       2.440   7.374  19.286  0.00  0.00    +0.000 C 
ATOM      9  C   UNL     1       2.673   6.304  20.075  0.00  0.00    +0.000 C 
BRANCH   9  10
ATOM     10  C   UNL     1       3.415   5.099  19.621  0.00  0.00    +0.000 C 
ATOM     11  O   UNL     1       4.625   5.212  19.414  0.00  0.00    +0.000 OA
ATOM     12  N   UNL     1       2.715   3.911  19.372  0.00  0.00    +0.000 N 
BRANCH  12  13
ATOM     13  C   UNL     1       1.318   3.602  19.786  0.00  0.00    +0.000 C 
ATOM     14  C   UNL     1       0.534   2.722  18.808  0.00  0.00    +0.000 C 
ATOM     15  C   UNL     1       1.209   3.079  21.219  0.00  0.00    +0.000 C 
ENDBRANCH  12  13
BRANCH  12  16
ATOM     16  C   UNL     1       3.530   2.830  18.749  0.00  0.00    +0.000 C 
ATOM     17  C   UNL     1       4.212   3.313  17.466  0.00  0.00    +0.000 C 
ATOM     18  C   UNL     1       4.559   2.155  19.667  0.00  0.00    +0.000 C 
ENDBRANCH  12  16
ENDBRANCH   9  10
ENDBRANCH   1   8
BRANCH   4  19
ATOM     19  O   UNL     1      -0.910  11.540  21.144  0.00  0.00    +0.000 OA
BRANCH  19  20
ATOM     20  C   UNL     1      -0.408  12.418  22.165  0.00  0.00    +0.000 C 
ATOM     21  C   UNL     1       0.280  13.640  21.548  0.00  0.00    +0.000 C 
BRANCH  20  22
ATOM     22  C   UNL     1      -1.580  12.904  23.017  0.00  0.00    +0.000 A 
ATOM     23  C   UNL     1      -2.694  12.071  23.221  0.00  0.00    +0.000 A 
ATOM     24  C   UNL     1      -3.755  12.480  24.032  0.00  0.00    +0.000 A 
ATOM     25  C   UNL     1      -3.720  13.726  24.657  0.00  0.00    +0.000 A 
ATOM     26  C   UNL     1      -2.620  14.559  24.473  0.00  0.00    +0.000 A 
ATOM     27  C   UNL     1      -1.557  14.150  23.665  0.00  0.00    +0.000 A 
ENDBRANCH  20  22
ENDBRANCH  19  20
ENDBRANCH   4  19
TORSDOF 7
ENDMDL
