MODEL 1
REMARK VINA RESULT:      -7.9      0.000      0.000
REMARK  Name = 
REMARK  6 active torsions:
REMARK  status: ('A' for Active; 'I' for Inactive)
REMARK    1  A    between atoms: C_2  and  C_8
REMARK    2  A    between atoms: N_3  and  C_4
REMARK    3  A    between atoms: C_4  and  C_5
REMARK    4  A    between atoms: C_5  and  C_6
REMARK    5  A    between atoms: C_6  and  O_7
REMARK    6  A    between atoms: C_19  and  C_20
REMARK                            x       y       z     vdW  Elec       q    Type
REMARK                         _______ _______ _______ _____ _____    ______ ____
ROOT
ATOM      1  C   UNL     1       5.087   3.968  17.778  0.00  0.00    +0.000 A 
ATOM      2  C   UNL     1       5.108   3.463  16.486  0.00  0.00    +0.000 A 
ATOM      3  C   UNL     1       5.919   4.132  15.566  0.00  0.00    +0.000 A 
ATOM      4  C   UNL     1       6.643   5.244  15.998  0.00  0.00    +0.000 A 
ATOM      5  N   UNL     1       7.416   5.635  14.927  0.00  0.00    +0.000 N 
ATOM      6  C   UNL     1       7.119   4.911  13.800  0.00  0.00    +0.000 A 
ATOM      7  C   UNL     1       7.609   5.035  12.496  0.00  0.00    +0.000 A 
ATOM      8  C   UNL     1       7.132   4.133  11.542  0.00  0.00    +0.000 A 
ATOM      9  C   UNL     1       6.213   3.145  11.886  0.00  0.00    +0.000 A 
ATOM     10  C   UNL     1       5.737   3.036  13.198  0.00  0.00    +0.000 A 
ATOM     11  C   UNL     1       6.194   3.943  14.175  0.00  0.00    +0.000 A 
ATOM     12  C   UNL     1       6.545   5.755  17.308  0.00  0.00    +0.000 A 
ATOM     13  N   UNL     1       5.758   5.078  18.195  0.00  0.00    +0.000 NA
ATOM     14  H   UNL     1       8.105   6.372  14.953  0.00  0.00    +0.000 HD
ENDROOT
BRANCH  12  15
ATOM     15  C   UNL     1       7.255   6.959  17.774  0.00  0.00    +0.000 A 
ATOM     16  C   UNL     1       7.057   8.228  17.192  0.00  0.00    +0.000 A 
ATOM     17  C   UNL     1       7.790   9.348  17.595  0.00  0.00    +0.000 A 
ATOM     18  C   UNL     1       8.706   9.239  18.634  0.00  0.00    +0.000 A 
ATOM     19  C   UNL     1       8.885   8.013  19.269  0.00  0.00    +0.000 A 
ATOM     20  C   UNL     1       8.170   6.887  18.840  0.00  0.00    +0.000 A 
ENDBRANCH  12  15
BRANCH   1  22
ATOM     21  O   UNL     1       4.734   2.762  19.797  0.00  0.00    +0.000 OA
ATOM     22  C   UNL     1       4.239   3.255  18.787  0.00  0.00    +0.000 C 
ATOM     23  N   UNL     1       2.895   3.151  18.489  0.00  0.00    +0.000 N 
ATOM     24  H   UNL     1       2.582   3.561  17.613  0.00  0.00    +0.000 HD
BRANCH  23  25
ATOM     25  C   UNL     1       1.986   2.401  19.331  0.00  0.00    +0.000 C 
BRANCH  25  26
ATOM     26  C   UNL     1       1.200   3.282  20.305  0.00  0.00    +0.000 C 
BRANCH  26  27
ATOM     27  C   UNL     1       1.893   3.537  21.639  0.00  0.00    +0.000 C 
BRANCH  27  28
ATOM     28  O   UNL     1       2.770   2.470  21.971  0.00  0.00    +0.000 OA
ATOM     29  H   UNL     1       2.706   1.823  21.234  0.00  0.00    +0.000 HD
ENDBRANCH  27  28
ENDBRANCH  26  27
ENDBRANCH  25  26
ENDBRANCH  23  25
ENDBRANCH   1  22
TORSDOF 6
ENDMDL
MODEL 2
REMARK VINA RESULT:      -7.9      0.351      1.005
REMARK  Name = 
REMARK  6 active torsions:
REMARK  status: ('A' for Active; 'I' for Inactive)
REMARK    1  A    between atoms: C_2  and  C_8
REMARK    2  A    between atoms: N_3  and  C_4
REMARK    3  A    between atoms: C_4  and  C_5
REMARK    4  A    between atoms: C_5  and  C_6
REMARK    5  A    between atoms: C_6  and  O_7
REMARK    6  A    between atoms: C_19  and  C_20
REMARK                            x       y       z     vdW  Elec       q    Type
REMARK                         _______ _______ _______ _____ _____    ______ ____
ROOT
ATOM      1  C   UNL     1       4.822   4.147  17.644  0.00  0.00    +0.000 A 
ATOM      2  C   UNL     1       4.854   3.638  16.354  0.00  0.00    +0.000 A 
ATOM      3  C   UNL     1       5.763   4.228  15.471  0.00  0.00    +0.000 A 
ATOM      4  C   UNL     1       6.565   5.270  15.937  0.00  0.00    +0.000 A 
ATOM      5  N   UNL     1       7.417   5.586  14.901  0.00  0.00    +0.000 N 
ATOM      6  C   UNL     1       7.104   4.889  13.761  0.00  0.00    +0.000 A 
ATOM      7  C   UNL     1       7.661   4.965  12.479  0.00  0.00    +0.000 A 
ATOM      8  C   UNL     1       7.146   4.107  11.504  0.00  0.00    +0.000 A 
ATOM      9  C   UNL     1       6.126   3.208  11.806  0.00  0.00    +0.000 A 
ATOM     10  C   UNL     1       5.584   3.147  13.096  0.00  0.00    +0.000 A 
ATOM     11  C   UNL     1       6.080   4.011  14.093  0.00  0.00    +0.000 A 
ATOM     12  C   UNL     1       6.457   5.791  17.241  0.00  0.00    +0.000 A 
ATOM     13  N   UNL     1       5.573   5.191  18.092  0.00  0.00    +0.000 NA
ATOM     14  H   UNL     1       8.169   6.256  14.958  0.00  0.00    +0.000 HD
ENDROOT
BRANCH  12  15
ATOM     15  C   UNL     1       7.253   6.927  17.740  0.00  0.00    +0.000 A 
ATOM     16  C   UNL     1       8.149   6.805  18.822  0.00  0.00    +0.000 A 
ATOM     17  C   UNL     1       8.844   7.905  19.333  0.00  0.00    +0.000 A 
ATOM     18  C   UNL     1       8.703   9.152  18.734  0.00  0.00    +0.000 A 
ATOM     19  C   UNL     1       7.870   9.294  17.628  0.00  0.00    +0.000 A 
ATOM     20  C   UNL     1       7.152   8.195  17.141  0.00  0.00    +0.000 A 
ENDBRANCH  12  15
BRANCH   1  22
ATOM     21  O   UNL     1       4.254   3.097  19.701  0.00  0.00    +0.000 OA
ATOM     22  C   UNL     1       3.869   3.517  18.614  0.00  0.00    +0.000 C 
ATOM     23  N   UNL     1       2.559   3.400  18.192  0.00  0.00    +0.000 N 
ATOM     24  H   UNL     1       2.340   3.747  17.262  0.00  0.00    +0.000 HD
BRANCH  23  25
ATOM     25  C   UNL     1       1.561   2.721  18.993  0.00  0.00    +0.000 C 
BRANCH  25  26
ATOM     26  C   UNL     1       1.131   3.521  20.225  0.00  0.00    +0.000 C 
BRANCH  26  27
ATOM     27  C   UNL     1       1.272   2.778  21.551  0.00  0.00    +0.000 C 
BRANCH  27  28
ATOM     28  O   UNL     1       2.542   3.022  22.139  0.00  0.00    +0.000 OA
ATOM     29  H   UNL     1       3.175   3.127  21.395  0.00  0.00    +0.000 HD
ENDBRANCH  27  28
ENDBRANCH  26  27
ENDBRANCH  25  26
ENDBRANCH  23  25
ENDBRANCH   1  22
TORSDOF 6
ENDMDL
MODEL 3
REMARK VINA RESULT:      -7.8      1.226      1.616
REMARK  Name = 
REMARK  6 active torsions:
REMARK  status: ('A' for Active; 'I' for Inactive)
REMARK    1  A    between atoms: C_2  and  C_8
REMARK    2  A    between atoms: N_3  and  C_4
REMARK    3  A    between atoms: C_4  and  C_5
REMARK    4  A    between atoms: C_5  and  C_6
REMARK    5  A    between atoms: C_6  and  O_7
REMARK    6  A    between atoms: C_19  and  C_20
REMARK                            x       y       z     vdW  Elec       q    Type
REMARK                         _______ _______ _______ _____ _____    ______ ____
ROOT
ATOM      1  C   UNL     1       4.295   4.895  17.616  0.00  0.00    +0.000 A 
ATOM      2  C   UNL     1       4.355   4.265  16.382  0.00  0.00    +0.000 A 
ATOM      3  C   UNL     1       5.421   4.618  15.550  0.00  0.00    +0.000 A 
ATOM      4  C   UNL     1       6.339   5.563  16.008  0.00  0.00    +0.000 A 
ATOM      5  N   UNL     1       7.319   5.640  15.041  0.00  0.00    +0.000 N 
ATOM      6  C   UNL     1       6.997   4.893  13.936  0.00  0.00    +0.000 A 
ATOM      7  C   UNL     1       7.667   4.757  12.716  0.00  0.00    +0.000 A 
ATOM      8  C   UNL     1       7.106   3.899  11.767  0.00  0.00    +0.000 A 
ATOM      9  C   UNL     1       5.930   3.203  12.037  0.00  0.00    +0.000 A 
ATOM     10  C   UNL     1       5.276   3.352  13.266  0.00  0.00    +0.000 A 
ATOM     11  C   UNL     1       5.817   4.221  14.234  0.00  0.00    +0.000 A 
ATOM     12  C   UNL     1       6.205   6.219  17.247  0.00  0.00    +0.000 A 
ATOM     13  N   UNL     1       5.165   5.849  18.050  0.00  0.00    +0.000 NA
ATOM     14  H   UNL     1       8.162   6.189  15.119  0.00  0.00    +0.000 HD
ENDROOT
BRANCH  12  15
ATOM     15  C   UNL     1       7.130   7.260  17.730  0.00  0.00    +0.000 A 
ATOM     16  C   UNL     1       8.103   7.009  18.719  0.00  0.00    +0.000 A 
ATOM     17  C   UNL     1       8.926   8.021  19.220  0.00  0.00    +0.000 A 
ATOM     18  C   UNL     1       8.834   9.308  18.702  0.00  0.00    +0.000 A 
ATOM     19  C   UNL     1       7.923   9.577  17.684  0.00  0.00    +0.000 A 
ATOM     20  C   UNL     1       7.079   8.566  17.208  0.00  0.00    +0.000 A 
ENDBRANCH  12  15
BRANCH   1  22
ATOM     21  O   UNL     1       2.318   3.703  18.191  0.00  0.00    +0.000 OA
ATOM     22  C   UNL     1       3.170   4.518  18.533  0.00  0.00    +0.000 C 
ATOM     23  N   UNL     1       3.131   5.171  19.749  0.00  0.00    +0.000 N 
ATOM     24  H   UNL     1       3.862   5.855  19.930  0.00  0.00    +0.000 HD
BRANCH  23  25
ATOM     25  C   UNL     1       2.043   4.971  20.684  0.00  0.00    +0.000 C 
BRANCH  25  26
ATOM     26  C   UNL     1       2.252   3.766  21.604  0.00  0.00    +0.000 C 
BRANCH  26  27
ATOM     27  C   UNL     1       1.233   2.645  21.430  0.00  0.00    +0.000 C 
BRANCH  27  28
ATOM     28  O   UNL     1       0.484   2.816  20.236  0.00  0.00    +0.000 OA
ATOM     29  H   UNL     1      -0.213   2.122  20.246  0.00  0.00    +0.000 HD
ENDBRANCH  27  28
ENDBRANCH  26  27
ENDBRANCH  25  26
ENDBRANCH  23  25
ENDBRANCH   1  22
TORSDOF 6
ENDMDL
MODEL 4
REMARK VINA RESULT:      -7.8      4.256      8.092
REMARK  Name = 
REMARK  6 active torsions:
REMARK  status: ('A' for Active; 'I' for Inactive)
REMARK    1  A    between atoms: C_2  and  C_8
REMARK    2  A    between atoms: N_3  and  C_4
REMARK    3  A    between atoms: C_4  and  C_5
REMARK    4  A    between atoms: C_5  and  C_6
REMARK    5  A    between atoms: C_6  and  O_7
REMARK    6  A    between atoms: C_19  and  C_20
REMARK                            x       y       z     vdW  Elec       q    Type
REMARK                         _______ _______ _______ _____ _____    ______ ____
ROOT
ATOM      1  C   UNL     1       4.042   6.642  17.176  0.00  0.00    +0.000 A 
ATOM      2  C   UNL     1       3.600   7.954  17.259  0.00  0.00    +0.000 A 
ATOM      3  C   UNL     1       2.657   8.235  18.252  0.00  0.00    +0.000 A 
ATOM      4  C   UNL     1       2.232   7.198  19.081  0.00  0.00    +0.000 A 
ATOM      5  N   UNL     1       1.394   7.774  20.012  0.00  0.00    +0.000 N 
ATOM      6  C   UNL     1       1.164   9.097  19.731  0.00  0.00    +0.000 A 
ATOM      7  C   UNL     1       0.326  10.019  20.369  0.00  0.00    +0.000 A 
ATOM      8  C   UNL     1       0.307  11.322  19.867  0.00  0.00    +0.000 A 
ATOM      9  C   UNL     1       1.101  11.685  18.782  0.00  0.00    +0.000 A 
ATOM     10  C   UNL     1       1.934  10.748  18.160  0.00  0.00    +0.000 A 
ATOM     11  C   UNL     1       1.961   9.423  18.640  0.00  0.00    +0.000 A 
ATOM     12  C   UNL     1       2.667   5.867  18.922  0.00  0.00    +0.000 A 
ATOM     13  N   UNL     1       3.599   5.617  17.956  0.00  0.00    +0.000 NA
ATOM     14  H   UNL     1       0.983   7.288  20.795  0.00  0.00    +0.000 HD
ENDROOT
BRANCH  12  15
ATOM     15  C   UNL     1       2.191   4.744  19.749  0.00  0.00    +0.000 A 
ATOM     16  C   UNL     1       2.595   4.565  21.088  0.00  0.00    +0.000 A 
ATOM     17  C   UNL     1       2.194   3.457  21.839  0.00  0.00    +0.000 A 
ATOM     18  C   UNL     1       1.330   2.520  21.284  0.00  0.00    +0.000 A 
ATOM     19  C   UNL     1       0.867   2.696  19.983  0.00  0.00    +0.000 A 
ATOM     20  C   UNL     1       1.297   3.793  19.225  0.00  0.00    +0.000 A 
ENDBRANCH  12  15
BRANCH   1  22
ATOM     21  O   UNL     1       5.159   6.987  15.105  0.00  0.00    +0.000 OA
ATOM     22  C   UNL     1       5.068   6.321  16.132  0.00  0.00    +0.000 C 
ATOM     23  N   UNL     1       5.859   5.215  16.375  0.00  0.00    +0.000 N 
ATOM     24  H   UNL     1       5.688   4.705  17.238  0.00  0.00    +0.000 HD
BRANCH  23  25
ATOM     25  C   UNL     1       6.819   4.739  15.401  0.00  0.00    +0.000 C 
BRANCH  25  26
ATOM     26  C   UNL     1       6.257   3.653  14.481  0.00  0.00    +0.000 C 
BRANCH  26  27
ATOM     27  C   UNL     1       6.459   3.910  12.990  0.00  0.00    +0.000 C 
BRANCH  27  28
ATOM     28  O   UNL     1       6.288   2.717  12.239  0.00  0.00    +0.000 OA
ATOM     29  H   UNL     1       6.402   2.967  11.296  0.00  0.00    +0.000 HD
ENDBRANCH  27  28
ENDBRANCH  26  27
ENDBRANCH  25  26
ENDBRANCH  23  25
ENDBRANCH   1  22
TORSDOF 6
ENDMDL
MODEL 5
REMARK VINA RESULT:      -7.7      4.220      8.054
REMARK  Name = 
REMARK  6 active torsions:
REMARK  status: ('A' for Active; 'I' for Inactive)
REMARK    1  A    between atoms: C_2  and  C_8
REMARK    2  A    between atoms: N_3  and  C_4
REMARK    3  A    between atoms: C_4  and  C_5
REMARK    4  A    between atoms: C_5  and  C_6
REMARK    5  A    between atoms: C_6  and  O_7
REMARK    6  A    between atoms: C_19  and  C_20
REMARK                            x       y       z     vdW  Elec       q    Type
REMARK                         _______ _______ _______ _____ _____    ______ ____
ROOT
ATOM      1  C   UNL     1       4.140   6.587  17.161  0.00  0.00    +0.000 A 
ATOM      2  C   UNL     1       3.691   7.897  17.234  0.00  0.00    +0.000 A 
ATOM      3  C   UNL     1       2.726   8.175  18.206  0.00  0.00    +0.000 A 
ATOM      4  C   UNL     1       2.287   7.136  19.026  0.00  0.00    +0.000 A 
ATOM      5  N   UNL     1       1.427   7.708  19.939  0.00  0.00    +0.000 N 
ATOM      6  C   UNL     1       1.197   9.030  19.653  0.00  0.00    +0.000 A 
ATOM      7  C   UNL     1       0.342   9.948  20.272  0.00  0.00    +0.000 A 
ATOM      8  C   UNL     1       0.329  11.252  19.771  0.00  0.00    +0.000 A 
ATOM      9  C   UNL     1       1.145  11.618  18.703  0.00  0.00    +0.000 A 
ATOM     10  C   UNL     1       1.995  10.684  18.099  0.00  0.00    +0.000 A 
ATOM     11  C   UNL     1       2.017   9.360  18.580  0.00  0.00    +0.000 A 
ATOM     12  C   UNL     1       2.730   5.806  18.877  0.00  0.00    +0.000 A 
ATOM     13  N   UNL     1       3.684   5.560  17.931  0.00  0.00    +0.000 NA
ATOM     14  H   UNL     1       1.001   7.220  20.712  0.00  0.00    +0.000 HD
ENDROOT
BRANCH  12  15
ATOM     15  C   UNL     1       2.241   4.681  19.693  0.00  0.00    +0.000 A 
ATOM     16  C   UNL     1       1.315   3.737  19.203  0.00  0.00    +0.000 A 
ATOM     17  C   UNL     1       0.804   2.717  20.009  0.00  0.00    +0.000 A 
ATOM     18  C   UNL     1       1.250   2.579  21.319  0.00  0.00    +0.000 A 
ATOM     19  C   UNL     1       2.206   3.460  21.816  0.00  0.00    +0.000 A 
ATOM     20  C   UNL     1       2.692   4.500  21.013  0.00  0.00    +0.000 A 
ENDBRANCH  12  15
BRANCH   1  22
ATOM     21  O   UNL     1       5.311   6.948  15.123  0.00  0.00    +0.000 OA
ATOM     22  C   UNL     1       5.190   6.270  16.139  0.00  0.00    +0.000 C 
ATOM     23  N   UNL     1       5.967   5.156  16.389  0.00  0.00    +0.000 N 
ATOM     24  H   UNL     1       5.770   4.638  17.242  0.00  0.00    +0.000 HD
BRANCH  23  25
ATOM     25  C   UNL     1       6.948   4.684  15.434  0.00  0.00    +0.000 C 
BRANCH  25  26
ATOM     26  C   UNL     1       6.327   3.938  14.251  0.00  0.00    +0.000 C 
BRANCH  26  27
ATOM     27  C   UNL     1       6.883   4.328  12.885  0.00  0.00    +0.000 C 
BRANCH  27  28
ATOM     28  O   UNL     1       7.787   5.419  12.995  0.00  0.00    +0.000 OA
ATOM     29  H   UNL     1       7.873   5.795  12.091  0.00  0.00    +0.000 HD
ENDBRANCH  27  28
ENDBRANCH  26  27
ENDBRANCH  25  26
ENDBRANCH  23  25
ENDBRANCH   1  22
TORSDOF 6
ENDMDL
MODEL 6
REMARK VINA RESULT:      -7.6      1.034      1.101
REMARK  Name = 
REMARK  6 active torsions:
REMARK  status: ('A' for Active; 'I' for Inactive)
REMARK    1  A    between atoms: C_2  and  C_8
REMARK    2  A    between atoms: N_3  and  C_4
REMARK    3  A    between atoms: C_4  and  C_5
REMARK    4  A    between atoms: C_5  and  C_6
REMARK    5  A    between atoms: C_6  and  O_7
REMARK    6  A    between atoms: C_19  and  C_20
REMARK                            x       y       z     vdW  Elec       q    Type
REMARK                         _______ _______ _______ _____ _____    ______ ____
ROOT
ATOM      1  C   UNL     1       4.675   4.016  17.439  0.00  0.00    +0.000 A 
ATOM      2  C   UNL     1       4.755   3.542  16.138  0.00  0.00    +0.000 A 
ATOM      3  C   UNL     1       5.695   4.156  15.305  0.00  0.00    +0.000 A 
ATOM      4  C   UNL     1       6.478   5.184  15.828  0.00  0.00    +0.000 A 
ATOM      5  N   UNL     1       7.368   5.528  14.833  0.00  0.00    +0.000 N 
ATOM      6  C   UNL     1       7.098   4.862  13.664  0.00  0.00    +0.000 A 
ATOM      7  C   UNL     1       7.701   4.972  12.406  0.00  0.00    +0.000 A 
ATOM      8  C   UNL     1       7.223   4.142  11.390  0.00  0.00    +0.000 A 
ATOM      9  C   UNL     1       6.193   3.235  11.630  0.00  0.00    +0.000 A 
ATOM     10  C   UNL     1       5.605   3.139  12.897  0.00  0.00    +0.000 A 
ATOM     11  C   UNL     1       6.063   3.975  13.934  0.00  0.00    +0.000 A 
ATOM     12  C   UNL     1       6.322   5.671  17.141  0.00  0.00    +0.000 A 
ATOM     13  N   UNL     1       5.409   5.048  17.942  0.00  0.00    +0.000 NA
ATOM     14  H   UNL     1       8.117   6.197  14.936  0.00  0.00    +0.000 HD
ENDROOT
BRANCH  12  15
ATOM     15  C   UNL     1       7.099   6.792  17.699  0.00  0.00    +0.000 A 
ATOM     16  C   UNL     1       7.011   8.103  17.187  0.00  0.00    +0.000 A 
ATOM     17  C   UNL     1       7.806   9.142  17.678  0.00  0.00    +0.000 A 
ATOM     18  C   UNL     1       8.676   8.908  18.737  0.00  0.00    +0.000 A 
ATOM     19  C   UNL     1       8.745   7.639  19.303  0.00  0.00    +0.000 A 
ATOM     20  C   UNL     1       7.969   6.593  18.787  0.00  0.00    +0.000 A 
ENDBRANCH  12  15
BRANCH   1  22
ATOM     21  O   UNL     1       2.624   2.917  17.932  0.00  0.00    +0.000 OA
ATOM     22  C   UNL     1       3.688   3.360  18.356  0.00  0.00    +0.000 C 
ATOM     23  N   UNL     1       4.027   3.329  19.695  0.00  0.00    +0.000 N 
ATOM     24  H   UNL     1       4.914   3.751  19.956  0.00  0.00    +0.000 HD
BRANCH  23  25
ATOM     25  C   UNL     1       3.117   2.814  20.697  0.00  0.00    +0.000 C 
BRANCH  25  26
ATOM     26  C   UNL     1       2.239   3.896  21.328  0.00  0.00    +0.000 C 
BRANCH  26  27
ATOM     27  C   UNL     1       0.986   4.248  20.532  0.00  0.00    +0.000 C 
BRANCH  27  28
ATOM     28  O   UNL     1       0.382   3.082  19.990  0.00  0.00    +0.000 OA
ATOM     29  H   UNL     1      -0.566   3.119  20.247  0.00  0.00    +0.000 HD
ENDBRANCH  27  28
ENDBRANCH  26  27
ENDBRANCH  25  26
ENDBRANCH  23  25
ENDBRANCH   1  22
TORSDOF 6
ENDMDL
MODEL 7
REMARK VINA RESULT:      -7.6      2.852      7.112
REMARK  Name = 
REMARK  6 active torsions:
REMARK  status: ('A' for Active; 'I' for Inactive)
REMARK    1  A    between atoms: C_2  and  C_8
REMARK    2  A    between atoms: N_3  and  C_4
REMARK    3  A    between atoms: C_4  and  C_5
REMARK    4  A    between atoms: C_5  and  C_6
REMARK    5  A    between atoms: C_6  and  O_7
REMARK    6  A    between atoms: C_19  and  C_20
REMARK                            x       y       z     vdW  Elec       q    Type
REMARK                         _______ _______ _______ _____ _____    ______ ____
ROOT
ATOM      1  C   UNL     1       6.954   6.377  17.685  0.00  0.00    +0.000 A 
ATOM      2  C   UNL     1       5.923   5.941  18.504  0.00  0.00    +0.000 A 
ATOM      3  C   UNL     1       5.038   5.011  17.952  0.00  0.00    +0.000 A 
ATOM      4  C   UNL     1       5.245   4.589  16.640  0.00  0.00    +0.000 A 
ATOM      5  N   UNL     1       4.299   3.617  16.398  0.00  0.00    +0.000 N 
ATOM      6  C   UNL     1       3.420   3.499  17.445  0.00  0.00    +0.000 A 
ATOM      7  C   UNL     1       2.280   2.698  17.577  0.00  0.00    +0.000 A 
ATOM      8  C   UNL     1       1.578   2.772  18.782  0.00  0.00    +0.000 A 
ATOM      9  C   UNL     1       2.008   3.607  19.812  0.00  0.00    +0.000 A 
ATOM     10  C   UNL     1       3.152   4.399  19.660  0.00  0.00    +0.000 A 
ATOM     11  C   UNL     1       3.870   4.349  18.448  0.00  0.00    +0.000 A 
ATOM     12  C   UNL     1       6.274   5.104  15.826  0.00  0.00    +0.000 A 
ATOM     13  N   UNL     1       7.137   6.000  16.389  0.00  0.00    +0.000 NA
ATOM     14  H   UNL     1       4.240   3.067  15.554  0.00  0.00    +0.000 HD
ENDROOT
BRANCH  12  15
ATOM     15  C   UNL     1       6.481   4.716  14.420  0.00  0.00    +0.000 A 
ATOM     16  C   UNL     1       5.656   3.780  13.764  0.00  0.00    +0.000 A 
ATOM     17  C   UNL     1       5.906   3.366  12.452  0.00  0.00    +0.000 A 
ATOM     18  C   UNL     1       6.962   3.923  11.740  0.00  0.00    +0.000 A 
ATOM     19  C   UNL     1       7.762   4.892  12.339  0.00  0.00    +0.000 A 
ATOM     20  C   UNL     1       7.525   5.280  13.664  0.00  0.00    +0.000 A 
ENDBRANCH  12  15
BRANCH   1  22
ATOM     21  O   UNL     1       8.666   7.051  19.193  0.00  0.00    +0.000 OA
ATOM     22  C   UNL     1       7.928   7.360  18.262  0.00  0.00    +0.000 C 
ATOM     23  N   UNL     1       7.909   8.629  17.715  0.00  0.00    +0.000 N 
ATOM     24  H   UNL     1       7.240   8.800  16.969  0.00  0.00    +0.000 HD
BRANCH  23  25
ATOM     25  C   UNL     1       8.729   9.697  18.248  0.00  0.00    +0.000 C 
BRANCH  25  26
ATOM     26  C   UNL     1       8.297  11.085  17.768  0.00  0.00    +0.000 C 
BRANCH  26  27
ATOM     27  C   UNL     1       9.375  12.160  17.867  0.00  0.00    +0.000 C 
BRANCH  27  28
ATOM     28  O   UNL     1      10.661  11.619  17.602  0.00  0.00    +0.000 OA
ATOM     29  H   UNL     1      10.875  11.033  18.362  0.00  0.00    +0.000 HD
ENDBRANCH  27  28
ENDBRANCH  26  27
ENDBRANCH  25  26
ENDBRANCH  23  25
ENDBRANCH   1  22
TORSDOF 6
ENDMDL
MODEL 8
REMARK VINA RESULT:      -7.6      0.861      1.468
REMARK  Name = 
REMARK  6 active torsions:
REMARK  status: ('A' for Active; 'I' for Inactive)
REMARK    1  A    between atoms: C_2  and  C_8
REMARK    2  A    between atoms: N_3  and  C_4
REMARK    3  A    between atoms: C_4  and  C_5
REMARK    4  A    between atoms: C_5  and  C_6
REMARK    5  A    between atoms: C_6  and  O_7
REMARK    6  A    between atoms: C_19  and  C_20
REMARK                            x       y       z     vdW  Elec       q    Type
REMARK                         _______ _______ _______ _____ _____    ______ ____
ROOT
ATOM      1  C   UNL     1       5.176   4.314  18.108  0.00  0.00    +0.000 A 
ATOM      2  C   UNL     1       5.143   3.725  16.853  0.00  0.00    +0.000 A 
ATOM      3  C   UNL     1       5.927   4.321  15.861  0.00  0.00    +0.000 A 
ATOM      4  C   UNL     1       6.678   5.448  16.193  0.00  0.00    +0.000 A 
ATOM      5  N   UNL     1       7.416   5.758  15.071  0.00  0.00    +0.000 N 
ATOM      6  C   UNL     1       7.068   4.966  14.005  0.00  0.00    +0.000 A 
ATOM      7  C   UNL     1       7.511   4.998  12.678  0.00  0.00    +0.000 A 
ATOM      8  C   UNL     1       6.989   4.042  11.804  0.00  0.00    +0.000 A 
ATOM      9  C   UNL     1       6.072   3.091  12.246  0.00  0.00    +0.000 A 
ATOM     10  C   UNL     1       5.644   3.075  13.579  0.00  0.00    +0.000 A 
ATOM     11  C   UNL     1       6.148   4.037  14.476  0.00  0.00    +0.000 A 
ATOM     12  C   UNL     1       6.635   6.046  17.468  0.00  0.00    +0.000 A 
ATOM     13  N   UNL     1       5.875   5.439  18.426  0.00  0.00    +0.000 NA
ATOM     14  H   UNL     1       8.114   6.485  15.023  0.00  0.00    +0.000 HD
ENDROOT
BRANCH  12  15
ATOM     15  C   UNL     1       7.377   7.268  17.828  0.00  0.00    +0.000 A 
ATOM     16  C   UNL     1       8.378   7.281  18.820  0.00  0.00    +0.000 A 
ATOM     17  C   UNL     1       9.023   8.460  19.203  0.00  0.00    +0.000 A 
ATOM     18  C   UNL     1       8.720   9.656  18.561  0.00  0.00    +0.000 A 
ATOM     19  C   UNL     1       7.776   9.667  17.538  0.00  0.00    +0.000 A 
ATOM     20  C   UNL     1       7.110   8.488  17.180  0.00  0.00    +0.000 A 
ENDBRANCH  12  15
BRANCH   1  22
ATOM     21  O   UNL     1       4.691   2.611  19.697  0.00  0.00    +0.000 OA
ATOM     22  C   UNL     1       4.358   3.680  19.193  0.00  0.00    +0.000 C 
ATOM     23  N   UNL     1       3.200   4.343  19.549  0.00  0.00    +0.000 N 
ATOM     24  H   UNL     1       2.990   5.205  19.053  0.00  0.00    +0.000 HD
BRANCH  23  25
ATOM     25  C   UNL     1       2.272   3.787  20.512  0.00  0.00    +0.000 C 
BRANCH  25  26
ATOM     26  C   UNL     1       0.955   3.328  19.884  0.00  0.00    +0.000 C 
BRANCH  26  27
ATOM     27  C   UNL     1       1.097   2.637  18.531  0.00  0.00    +0.000 C 
BRANCH  27  28
ATOM     28  O   UNL     1       1.970   1.520  18.618  0.00  0.00    +0.000 OA
ATOM     29  H   UNL     1       1.515   0.779  18.161  0.00  0.00    +0.000 HD
ENDBRANCH  27  28
ENDBRANCH  26  27
ENDBRANCH  25  26
ENDBRANCH  23  25
ENDBRANCH   1  22
TORSDOF 6
ENDMDL
MODEL 9
REMARK VINA RESULT:      -7.5      2.813      6.208
REMARK  Name = 
REMARK  6 active torsions:
REMARK  status: ('A' for Active; 'I' for Inactive)
REMARK    1  A    between atoms: C_2  and  C_8
REMARK    2  A    between atoms: N_3  and  C_4
REMARK    3  A    between atoms: C_4  and  C_5
REMARK    4  A    between atoms: C_5  and  C_6
REMARK    5  A    between atoms: C_6  and  O_7
REMARK    6  A    between atoms: C_19  and  C_20
REMARK                            x       y       z     vdW  Elec       q    Type
REMARK                         _______ _______ _______ _____ _____    ______ ____
ROOT
ATOM      1  C   UNL     1       7.027   6.137  17.557  0.00  0.00    +0.000 A 
ATOM      2  C   UNL     1       7.418   5.938  16.242  0.00  0.00    +0.000 A 
ATOM      3  C   UNL     1       6.588   5.132  15.458  0.00  0.00    +0.000 A 
ATOM      4  C   UNL     1       5.441   4.591  16.039  0.00  0.00    +0.000 A 
ATOM      5  N   UNL     1       4.775   3.935  15.026  0.00  0.00    +0.000 N 
ATOM      6  C   UNL     1       5.509   3.920  13.867  0.00  0.00    +0.000 A 
ATOM      7  C   UNL     1       5.241   3.303  12.640  0.00  0.00    +0.000 A 
ATOM      8  C   UNL     1       6.174   3.478  11.616  0.00  0.00    +0.000 A 
ATOM      9  C   UNL     1       7.320   4.245  11.814  0.00  0.00    +0.000 A 
ATOM     10  C   UNL     1       7.569   4.855  13.049  0.00  0.00    +0.000 A 
ATOM     11  C   UNL     1       6.647   4.683  14.100  0.00  0.00    +0.000 A 
ATOM     12  C   UNL     1       5.115   4.774  17.397  0.00  0.00    +0.000 A 
ATOM     13  N   UNL     1       5.931   5.577  18.142  0.00  0.00    +0.000 NA
ATOM     14  H   UNL     1       3.869   3.501  15.120  0.00  0.00    +0.000 HD
ENDROOT
BRANCH  12  15
ATOM     15  C   UNL     1       3.940   4.168  18.049  0.00  0.00    +0.000 A 
ATOM     16  C   UNL     1       2.624   4.604  17.793  0.00  0.00    +0.000 A 
ATOM     17  C   UNL     1       1.524   4.071  18.471  0.00  0.00    +0.000 A 
ATOM     18  C   UNL     1       1.708   3.042  19.388  0.00  0.00    +0.000 A 
ATOM     19  C   UNL     1       2.988   2.549  19.622  0.00  0.00    +0.000 A 
ATOM     20  C   UNL     1       4.090   3.109  18.963  0.00  0.00    +0.000 A 
ENDBRANCH  12  15
BRANCH   1  22
ATOM     21  O   UNL     1       8.397   6.593  19.448  0.00  0.00    +0.000 OA
ATOM     22  C   UNL     1       7.891   7.015  18.412  0.00  0.00    +0.000 C 
ATOM     23  N   UNL     1       8.040   8.321  17.988  0.00  0.00    +0.000 N 
ATOM     24  H   UNL     1       7.556   8.588  17.135  0.00  0.00    +0.000 HD
BRANCH  23  25
ATOM     25  C   UNL     1       8.767   9.296  18.775  0.00  0.00    +0.000 C 
BRANCH  25  26
ATOM     26  C   UNL     1       9.014  10.609  18.029  0.00  0.00    +0.000 C 
BRANCH  26  27
ATOM     27  C   UNL     1      10.285  11.348  18.438  0.00  0.00    +0.000 C 
BRANCH  27  28
ATOM     28  O   UNL     1      11.150  11.529  17.327  0.00  0.00    +0.000 OA
ATOM     29  H   UNL     1      10.606  11.941  16.619  0.00  0.00    +0.000 HD
ENDBRANCH  27  28
ENDBRANCH  26  27
ENDBRANCH  25  26
ENDBRANCH  23  25
ENDBRANCH   1  22
TORSDOF 6
ENDMDL
