MODEL 1
REMARK VINA RESULT:      -8.9      0.000      0.000
REMARK  Name = 
REMARK  3 active torsions:
REMARK  status: ('A' for Active; 'I' for Inactive)
REMARK    1  A    between atoms: C_1  and  O_2
REMARK    2  A    between atoms: O_2  and  C_3
REMARK    3  A    between atoms: N_22  and  O_23
REMARK                            x       y       z     vdW  Elec       q    Type
REMARK                         _______ _______ _______ _____ _____    ______ ____
ROOT
ATOM      1  C   UNL     1       5.738   5.246  15.877  0.00  0.00    +0.000 A 
ATOM      2  C   UNL     1       5.159   6.514  15.852  0.00  0.00    +0.000 A 
ATOM      3  C   UNL     1       4.311   6.933  16.874  0.00  0.00    +0.000 A 
ATOM      4  C   UNL     1       3.983   6.083  17.911  0.00  0.00    +0.000 A 
ATOM      5  C   UNL     1       4.581   4.821  17.934  0.00  0.00    +0.000 A 
ATOM      6  C   UNL     1       5.455   4.381  16.944  0.00  0.00    +0.000 A 
ATOM      7  N   UNL     1       4.190   4.127  19.077  0.00  0.00    +0.000 N 
ATOM      8  C   UNL     1       3.328   4.883  19.862  0.00  0.00    +0.000 C 
ATOM      9  O   UNL     1       2.844   4.562  20.933  0.00  0.00    +0.000 OA
ATOM     10  C   UNL     1       3.129   6.180  19.111  0.00  0.00    +0.000 C 
ATOM     11  C   UNL     1       2.283   7.118  19.584  0.00  0.00    +0.000 C 
ATOM     12  N   UNL     1       1.549   7.130  20.769  0.00  0.00    +0.000 N 
ATOM     13  C   UNL     1       0.991   8.390  20.979  0.00  0.00    +0.000 A 
ATOM     14  C   UNL     1       0.195   8.827  22.021  0.00  0.00    +0.000 A 
ATOM     15  C   UNL     1      -0.345  10.125  21.961  0.00  0.00    +0.000 A 
ATOM     16  C   UNL     1      -0.096  10.964  20.865  0.00  0.00    +0.000 A 
ATOM     17  C   UNL     1       0.686  10.517  19.809  0.00  0.00    +0.000 A 
ATOM     18  C   UNL     1       1.201   9.232  19.882  0.00  0.00    +0.000 A 
ATOM     19  C   UNL     1       1.982   8.457  18.899  0.00  0.00    +0.000 C 
ATOM     20  N   UNL     1       2.318   8.787  17.700  0.00  0.00    +0.000 NA
ATOM     21  H   UNL     1       4.498   3.207  19.338  0.00  0.00    +0.000 HD
ATOM     22  H   UNL     1       1.741   6.450  21.496  0.00  0.00    +0.000 HD
ENDROOT
BRANCH   1  24
ATOM     23  C   UNL     1       6.009   3.992  13.880  0.00  0.00    +0.000 C 
ATOM     24  O   UNL     1       6.599   4.788  14.912  0.00  0.00    +0.000 OA
ENDBRANCH   1  24
BRANCH  20  25
ATOM     25  O   UNL     1       1.997  10.082  17.325  0.00  0.00    +0.000 OA
ATOM     26  H   UNL     1       2.818  10.380  16.891  0.00  0.00    +0.000 HD
ENDBRANCH  20  25
TORSDOF 2
ENDMDL
MODEL 2
REMARK VINA RESULT:      -8.1      2.021      7.607
REMARK  Name = 
REMARK  3 active torsions:
REMARK  status: ('A' for Active; 'I' for Inactive)
REMARK    1  A    between atoms: C_1  and  O_2
REMARK    2  A    between atoms: O_2  and  C_3
REMARK    3  A    between atoms: N_22  and  O_23
REMARK                            x       y       z     vdW  Elec       q    Type
REMARK                         _______ _______ _______ _____ _____    ______ ____
ROOT
ATOM      1  C   UNL     1      -0.442  10.461  22.520  0.00  0.00    +0.000 A 
ATOM      2  C   UNL     1       0.080   9.184  22.723  0.00  0.00    +0.000 A 
ATOM      3  C   UNL     1       0.833   8.554  21.734  0.00  0.00    +0.000 A 
ATOM      4  C   UNL     1       1.037   9.159  20.512  0.00  0.00    +0.000 A 
ATOM      5  C   UNL     1       0.524  10.445  20.325  0.00  0.00    +0.000 A 
ATOM      6  C   UNL     1      -0.209  11.114  21.301  0.00  0.00    +0.000 A 
ATOM      7  N   UNL     1       0.878  10.924  19.065  0.00  0.00    +0.000 N 
ATOM      8  C   UNL     1       1.638   9.996  18.363  0.00  0.00    +0.000 C 
ATOM      9  O   UNL     1       2.121  10.137  17.254  0.00  0.00    +0.000 OA
ATOM     10  C   UNL     1       1.741   8.789  19.267  0.00  0.00    +0.000 C 
ATOM     11  C   UNL     1       2.371   7.673  18.846  0.00  0.00    +0.000 C 
ATOM     12  N   UNL     1       3.052   7.440  17.653  0.00  0.00    +0.000 N 
ATOM     13  C   UNL     1       3.755   6.239  17.723  0.00  0.00    +0.000 A 
ATOM     14  C   UNL     1       4.549   5.637  16.766  0.00  0.00    +0.000 A 
ATOM     15  C   UNL     1       5.073   4.357  17.029  0.00  0.00    +0.000 A 
ATOM     16  C   UNL     1       4.793   3.692  18.231  0.00  0.00    +0.000 A 
ATOM     17  C   UNL     1       3.978   4.289  19.184  0.00  0.00    +0.000 A 
ATOM     18  C   UNL     1       3.463   5.545  18.902  0.00  0.00    +0.000 A 
ATOM     19  C   UNL     1       2.517   6.383  19.662  0.00  0.00    +0.000 C 
ATOM     20  N   UNL     1       1.895   6.104  20.756  0.00  0.00    +0.000 NA
ATOM     21  H   UNL     1       0.650  11.830  18.698  0.00  0.00    +0.000 HD
ATOM     22  H   UNL     1       3.279   8.211  17.034  0.00  0.00    +0.000 HD
ENDROOT
BRANCH   1  24
ATOM     23  C   UNL     1      -2.287  11.885  22.971  0.00  0.00    +0.000 C 
ATOM     24  O   UNL     1      -1.169  11.140  23.465  0.00  0.00    +0.000 OA
ENDBRANCH   1  24
BRANCH  20  25
ATOM     25  O   UNL     1       2.246   4.903  21.352  0.00  0.00    +0.000 OA
ATOM     26  H   UNL     1       1.385   4.574  21.671  0.00  0.00    +0.000 HD
ENDBRANCH  20  25
TORSDOF 2
ENDMDL
MODEL 3
REMARK VINA RESULT:      -7.2      2.586      4.576
REMARK  Name = 
REMARK  3 active torsions:
REMARK  status: ('A' for Active; 'I' for Inactive)
REMARK    1  A    between atoms: C_1  and  O_2
REMARK    2  A    between atoms: O_2  and  C_3
REMARK    3  A    between atoms: N_22  and  O_23
REMARK                            x       y       z     vdW  Elec       q    Type
REMARK                         _______ _______ _______ _____ _____    ______ ____
ROOT
ATOM      1  C   UNL     1       2.710   4.961  19.815  0.00  0.00    +0.000 A 
ATOM      2  C   UNL     1       1.979   5.484  20.881  0.00  0.00    +0.000 A 
ATOM      3  C   UNL     1       1.513   6.797  20.853  0.00  0.00    +0.000 A 
ATOM      4  C   UNL     1       1.806   7.626  19.790  0.00  0.00    +0.000 A 
ATOM      5  C   UNL     1       2.525   7.087  18.720  0.00  0.00    +0.000 A 
ATOM      6  C   UNL     1       2.982   5.773  18.704  0.00  0.00    +0.000 A 
ATOM      7  N   UNL     1       2.672   8.040  17.714  0.00  0.00    +0.000 N 
ATOM      8  C   UNL     1       2.065   9.241  18.057  0.00  0.00    +0.000 C 
ATOM      9  O   UNL     1       1.996  10.247  17.374  0.00  0.00    +0.000 OA
ATOM     10  C   UNL     1       1.505   9.030  19.446  0.00  0.00    +0.000 C 
ATOM     11  C   UNL     1       0.900  10.044  20.098  0.00  0.00    +0.000 C 
ATOM     12  N   UNL     1       0.622  11.337  19.659  0.00  0.00    +0.000 N 
ATOM     13  C   UNL     1      -0.224  11.982  20.559  0.00  0.00    +0.000 A 
ATOM     14  C   UNL     1      -0.736  13.265  20.507  0.00  0.00    +0.000 A 
ATOM     15  C   UNL     1      -1.488  13.738  21.597  0.00  0.00    +0.000 A 
ATOM     16  C   UNL     1      -1.713  12.936  22.726  0.00  0.00    +0.000 A 
ATOM     17  C   UNL     1      -1.180  11.655  22.786  0.00  0.00    +0.000 A 
ATOM     18  C   UNL     1      -0.433  11.211  21.706  0.00  0.00    +0.000 A 
ATOM     19  C   UNL     1       0.318   9.956  21.515  0.00  0.00    +0.000 C 
ATOM     20  N   UNL     1       0.501   8.993  22.351  0.00  0.00    +0.000 NA
ATOM     21  H   UNL     1       3.132   7.894  16.833  0.00  0.00    +0.000 HD
ATOM     22  H   UNL     1       0.719  11.576  18.678  0.00  0.00    +0.000 HD
ENDROOT
BRANCH   1  24
ATOM     23  C   UNL     1       4.486   3.498  19.231  0.00  0.00    +0.000 C 
ATOM     24  O   UNL     1       3.174   3.671  19.777  0.00  0.00    +0.000 OA
ENDBRANCH   1  24
BRANCH  20  25
ATOM     25  O   UNL     1      -0.188   9.103  23.549  0.00  0.00    +0.000 OA
ATOM     26  H   UNL     1      -0.483  10.032  23.530  0.00  0.00    +0.000 HD
ENDBRANCH  20  25
TORSDOF 2
ENDMDL
MODEL 4
REMARK VINA RESULT:      -7.1      4.482      5.028
REMARK  Name = 
REMARK  3 active torsions:
REMARK  status: ('A' for Active; 'I' for Inactive)
REMARK    1  A    between atoms: C_1  and  O_2
REMARK    2  A    between atoms: O_2  and  C_3
REMARK    3  A    between atoms: N_22  and  O_23
REMARK                            x       y       z     vdW  Elec       q    Type
REMARK                         _______ _______ _______ _____ _____    ______ ____
ROOT
ATOM      1  C   UNL     1       6.938   4.692  13.927  0.00  0.00    +0.000 A 
ATOM      2  C   UNL     1       5.695   4.091  14.122  0.00  0.00    +0.000 A 
ATOM      3  C   UNL     1       5.145   3.983  15.397  0.00  0.00    +0.000 A 
ATOM      4  C   UNL     1       5.841   4.424  16.504  0.00  0.00    +0.000 A 
ATOM      5  C   UNL     1       7.077   5.040  16.295  0.00  0.00    +0.000 A 
ATOM      6  C   UNL     1       7.643   5.189  15.033  0.00  0.00    +0.000 A 
ATOM      7  N   UNL     1       7.603   5.479  17.509  0.00  0.00    +0.000 N 
ATOM      8  C   UNL     1       6.754   5.185  18.569  0.00  0.00    +0.000 C 
ATOM      9  O   UNL     1       6.923   5.470  19.741  0.00  0.00    +0.000 OA
ATOM     10  C   UNL     1       5.583   4.450  17.958  0.00  0.00    +0.000 C 
ATOM     11  C   UNL     1       4.598   3.965  18.742  0.00  0.00    +0.000 C 
ATOM     12  N   UNL     1       4.426   4.085  20.119  0.00  0.00    +0.000 N 
ATOM     13  C   UNL     1       3.157   3.641  20.489  0.00  0.00    +0.000 A 
ATOM     14  C   UNL     1       2.586   3.585  21.745  0.00  0.00    +0.000 A 
ATOM     15  C   UNL     1       1.319   2.990  21.886  0.00  0.00    +0.000 A 
ATOM     16  C   UNL     1       0.643   2.452  20.781  0.00  0.00    +0.000 A 
ATOM     17  C   UNL     1       1.228   2.490  19.522  0.00  0.00    +0.000 A 
ATOM     18  C   UNL     1       2.481   3.071  19.406  0.00  0.00    +0.000 A 
ATOM     19  C   UNL     1       3.378   3.184  18.240  0.00  0.00    +0.000 C 
ATOM     20  N   UNL     1       3.221   2.704  17.055  0.00  0.00    +0.000 NA
ATOM     21  H   UNL     1       8.471   5.971  17.627  0.00  0.00    +0.000 HD
ATOM     22  H   UNL     1       4.990   4.739  20.651  0.00  0.00    +0.000 HD
ENDROOT
BRANCH   1  24
ATOM     23  C   UNL     1       7.104   3.915  11.690  0.00  0.00    +0.000 C 
ATOM     24  O   UNL     1       7.518   4.849  12.693  0.00  0.00    +0.000 OA
ENDBRANCH   1  24
BRANCH  20  25
ATOM     25  O   UNL     1       1.998   2.095  16.815  0.00  0.00    +0.000 OA
ATOM     26  H   UNL     1       2.268   1.224  16.469  0.00  0.00    +0.000 HD
ENDBRANCH  20  25
TORSDOF 2
ENDMDL
MODEL 5
REMARK VINA RESULT:      -7.1      3.413      4.795
REMARK  Name = 
REMARK  3 active torsions:
REMARK  status: ('A' for Active; 'I' for Inactive)
REMARK    1  A    between atoms: C_1  and  O_2
REMARK    2  A    between atoms: O_2  and  C_3
REMARK    3  A    between atoms: N_22  and  O_23
REMARK                            x       y       z     vdW  Elec       q    Type
REMARK                         _______ _______ _______ _____ _____    ______ ____
ROOT
ATOM      1  C   UNL     1       6.811   4.010  12.833  0.00  0.00    +0.000 A 
ATOM      2  C   UNL     1       5.606   3.478  13.292  0.00  0.00    +0.000 A 
ATOM      3  C   UNL     1       5.103   3.824  14.544  0.00  0.00    +0.000 A 
ATOM      4  C   UNL     1       5.811   4.663  15.381  0.00  0.00    +0.000 A 
ATOM      5  C   UNL     1       7.008   5.202  14.904  0.00  0.00    +0.000 A 
ATOM      6  C   UNL     1       7.526   4.899  13.649  0.00  0.00    +0.000 A 
ATOM      7  N   UNL     1       7.550   6.072  15.849  0.00  0.00    +0.000 N 
ATOM      8  C   UNL     1       6.751   6.156  16.982  0.00  0.00    +0.000 C 
ATOM      9  O   UNL     1       6.943   6.855  17.961  0.00  0.00    +0.000 OA
ATOM     10  C   UNL     1       5.598   5.209  16.737  0.00  0.00    +0.000 C 
ATOM     11  C   UNL     1       4.664   5.009  17.690  0.00  0.00    +0.000 C 
ATOM     12  N   UNL     1       4.530   5.618  18.935  0.00  0.00    +0.000 N 
ATOM     13  C   UNL     1       3.297   5.296  19.500  0.00  0.00    +0.000 A 
ATOM     14  C   UNL     1       2.769   5.683  20.717  0.00  0.00    +0.000 A 
ATOM     15  C   UNL     1       1.538   5.136  21.125  0.00  0.00    +0.000 A 
ATOM     16  C   UNL     1       0.855   4.209  20.324  0.00  0.00    +0.000 A 
ATOM     17  C   UNL     1       1.397   3.805  19.111  0.00  0.00    +0.000 A 
ATOM     18  C   UNL     1       2.615   4.347  18.732  0.00  0.00    +0.000 A 
ATOM     19  C   UNL     1       3.468   4.057  17.564  0.00  0.00    +0.000 C 
ATOM     20  N   UNL     1       3.298   3.173  16.643  0.00  0.00    +0.000 NA
ATOM     21  H   UNL     1       8.396   6.602  15.739  0.00  0.00    +0.000 HD
ATOM     22  H   UNL     1       5.078   6.440  19.165  0.00  0.00    +0.000 HD
ENDROOT
BRANCH   1  24
ATOM     23  C   UNL     1       7.303   2.349  11.211  0.00  0.00    +0.000 C 
ATOM     24  O   UNL     1       7.343   3.725  11.601  0.00  0.00    +0.000 OA
ENDBRANCH   1  24
BRANCH  20  25
ATOM     25  O   UNL     1       2.100   2.477  16.699  0.00  0.00    +0.000 OA
ATOM     26  H   UNL     1       2.075   2.187  17.629  0.00  0.00    +0.000 HD
ENDBRANCH  20  25
TORSDOF 2
ENDMDL
MODEL 6
REMARK VINA RESULT:      -7.0      2.461      4.167
REMARK  Name = 
REMARK  3 active torsions:
REMARK  status: ('A' for Active; 'I' for Inactive)
REMARK    1  A    between atoms: C_1  and  O_2
REMARK    2  A    between atoms: O_2  and  C_3
REMARK    3  A    between atoms: N_22  and  O_23
REMARK                            x       y       z     vdW  Elec       q    Type
REMARK                         _______ _______ _______ _____ _____    ______ ____
ROOT
ATOM      1  C   UNL     1       2.896   3.874  20.360  0.00  0.00    +0.000 A 
ATOM      2  C   UNL     1       2.011   4.634  21.124  0.00  0.00    +0.000 A 
ATOM      3  C   UNL     1       1.677   5.933  20.749  0.00  0.00    +0.000 A 
ATOM      4  C   UNL     1       2.251   6.516  19.639  0.00  0.00    +0.000 A 
ATOM      5  C   UNL     1       3.123   5.740  18.872  0.00  0.00    +0.000 A 
ATOM      6  C   UNL     1       3.459   4.431  19.202  0.00  0.00    +0.000 A 
ATOM      7  N   UNL     1       3.555   6.462  17.760  0.00  0.00    +0.000 N 
ATOM      8  C   UNL     1       2.997   7.735  17.731  0.00  0.00    +0.000 C 
ATOM      9  O   UNL     1       3.157   8.583  16.872  0.00  0.00    +0.000 OA
ATOM     10  C   UNL     1       2.149   7.834  18.979  0.00  0.00    +0.000 C 
ATOM     11  C   UNL     1       1.514   8.985  19.283  0.00  0.00    +0.000 C 
ATOM     12  N   UNL     1       1.446  10.173  18.558  0.00  0.00    +0.000 N 
ATOM     13  C   UNL     1       0.493  11.025  19.115  0.00  0.00    +0.000 A 
ATOM     14  C   UNL     1       0.116  12.292  18.713  0.00  0.00    +0.000 A 
ATOM     15  C   UNL     1      -0.799  13.009  19.506  0.00  0.00    +0.000 A 
ATOM     16  C   UNL     1      -1.318  12.463  20.689  0.00  0.00    +0.000 A 
ATOM     17  C   UNL     1      -0.922  11.198  21.103  0.00  0.00    +0.000 A 
ATOM     18  C   UNL     1      -0.012  10.512  20.314  0.00  0.00    +0.000 A 
ATOM     19  C   UNL     1       0.650   9.211  20.529  0.00  0.00    +0.000 C 
ATOM     20  N   UNL     1       0.576   8.430  21.551  0.00  0.00    +0.000 NA
ATOM     21  H   UNL     1       4.170   6.121  17.044  0.00  0.00    +0.000 HD
ATOM     22  H   UNL     1       1.761  10.204  17.595  0.00  0.00    +0.000 HD
ENDROOT
BRANCH   1  24
ATOM     23  C   UNL     1       4.473   2.119  20.098  0.00  0.00    +0.000 C 
ATOM     24  O   UNL     1       3.244   2.583  20.667  0.00  0.00    +0.000 OA
ENDBRANCH   1  24
BRANCH  20  25
ATOM     25  O   UNL     1      -0.331   8.811  22.529  0.00  0.00    +0.000 OA
ATOM     26  H   UNL     1      -0.886   8.014  22.615  0.00  0.00    +0.000 HD
ENDBRANCH  20  25
TORSDOF 2
ENDMDL
MODEL 7
REMARK VINA RESULT:      -7.0      2.964      8.021
REMARK  Name = 
REMARK  3 active torsions:
REMARK  status: ('A' for Active; 'I' for Inactive)
REMARK    1  A    between atoms: C_1  and  O_2
REMARK    2  A    between atoms: O_2  and  C_3
REMARK    3  A    between atoms: N_22  and  O_23
REMARK                            x       y       z     vdW  Elec       q    Type
REMARK                         _______ _______ _______ _____ _____    ______ ____
ROOT
ATOM      1  C   UNL     1      -1.852  13.900  20.826  0.00  0.00    +0.000 A 
ATOM      2  C   UNL     1      -1.192  13.378  19.714  0.00  0.00    +0.000 A 
ATOM      3  C   UNL     1      -0.543  12.147  19.781  0.00  0.00    +0.000 A 
ATOM      4  C   UNL     1      -0.497  11.437  20.964  0.00  0.00    +0.000 A 
ATOM      5  C   UNL     1      -1.177  11.961  22.066  0.00  0.00    +0.000 A 
ATOM      6  C   UNL     1      -1.857  13.175  22.027  0.00  0.00    +0.000 A 
ATOM      7  N   UNL     1      -1.080  11.088  23.147  0.00  0.00    +0.000 N 
ATOM      8  C   UNL     1      -0.345   9.954  22.822  0.00  0.00    +0.000 C 
ATOM      9  O   UNL     1      -0.116   9.000  23.544  0.00  0.00    +0.000 OA
ATOM     10  C   UNL     1       0.096  10.154  21.390  0.00  0.00    +0.000 C 
ATOM     11  C   UNL     1       0.893   9.246  20.789  0.00  0.00    +0.000 C 
ATOM     12  N   UNL     1       1.366   8.028  21.273  0.00  0.00    +0.000 N 
ATOM     13  C   UNL     1       1.958   7.297  20.245  0.00  0.00    +0.000 A 
ATOM     14  C   UNL     1       2.552   6.050  20.293  0.00  0.00    +0.000 A 
ATOM     15  C   UNL     1       3.185   5.557  19.137  0.00  0.00    +0.000 A 
ATOM     16  C   UNL     1       3.227   6.311  17.955  0.00  0.00    +0.000 A 
ATOM     17  C   UNL     1       2.648   7.573  17.914  0.00  0.00    +0.000 A 
ATOM     18  C   UNL     1       2.038   8.045  19.066  0.00  0.00    +0.000 A 
ATOM     19  C   UNL     1       1.423   9.354  19.354  0.00  0.00    +0.000 C 
ATOM     20  N   UNL     1       1.365  10.398  18.601  0.00  0.00    +0.000 NA
ATOM     21  H   UNL     1      -1.500  11.224  24.049  0.00  0.00    +0.000 HD
ATOM     22  H   UNL     1       0.980   7.630  22.122  0.00  0.00    +0.000 HD
ENDROOT
BRANCH   1  24
ATOM     23  C   UNL     1      -3.646  15.185  21.702  0.00  0.00    +0.000 C 
ATOM     24  O   UNL     1      -2.528  15.094  20.813  0.00  0.00    +0.000 OA
ENDBRANCH   1  24
BRANCH  20  25
ATOM     25  O   UNL     1       1.849  10.233  17.312  0.00  0.00    +0.000 OA
ATOM     26  H   UNL     1       1.118  10.587  16.773  0.00  0.00    +0.000 HD
ENDBRANCH  20  25
TORSDOF 2
ENDMDL
MODEL 8
REMARK VINA RESULT:      -7.0      3.419      5.518
REMARK  Name = 
REMARK  3 active torsions:
REMARK  status: ('A' for Active; 'I' for Inactive)
REMARK    1  A    between atoms: C_1  and  O_2
REMARK    2  A    between atoms: O_2  and  C_3
REMARK    3  A    between atoms: N_22  and  O_23
REMARK                            x       y       z     vdW  Elec       q    Type
REMARK                         _______ _______ _______ _____ _____    ______ ____
ROOT
ATOM      1  C   UNL     1       2.089   8.172  18.328  0.00  0.00    +0.000 A 
ATOM      2  C   UNL     1       1.254   9.219  17.938  0.00  0.00    +0.000 A 
ATOM      3  C   UNL     1       0.551   9.962  18.883  0.00  0.00    +0.000 A 
ATOM      4  C   UNL     1       0.625   9.647  20.224  0.00  0.00    +0.000 A 
ATOM      5  C   UNL     1       1.476   8.608  20.605  0.00  0.00    +0.000 A 
ATOM      6  C   UNL     1       2.214   7.862  19.690  0.00  0.00    +0.000 A 
ATOM      7  N   UNL     1       1.476   8.472  21.992  0.00  0.00    +0.000 N 
ATOM      8  C   UNL     1       0.640   9.404  22.595  0.00  0.00    +0.000 C 
ATOM      9  O   UNL     1       0.456   9.556  23.789  0.00  0.00    +0.000 OA
ATOM     10  C   UNL     1       0.021  10.187  21.459  0.00  0.00    +0.000 C 
ATOM     11  C   UNL     1      -0.901  11.140  21.711  0.00  0.00    +0.000 C 
ATOM     12  N   UNL     1      -1.374  11.610  22.934  0.00  0.00    +0.000 N 
ATOM     13  C   UNL     1      -2.141  12.758  22.747  0.00  0.00    +0.000 A 
ATOM     14  C   UNL     1      -2.794  13.532  23.687  0.00  0.00    +0.000 A 
ATOM     15  C   UNL     1      -3.606  14.593  23.244  0.00  0.00    +0.000 A 
ATOM     16  C   UNL     1      -3.764  14.864  21.877  0.00  0.00    +0.000 A 
ATOM     17  C   UNL     1      -3.124  14.072  20.932  0.00  0.00    +0.000 A 
ATOM     18  C   UNL     1      -2.337  13.025  21.388  0.00  0.00    +0.000 A 
ATOM     19  C   UNL     1      -1.614  11.978  20.643  0.00  0.00    +0.000 C 
ATOM     20  N   UNL     1      -1.598  11.760  19.373  0.00  0.00    +0.000 NA
ATOM     21  H   UNL     1       2.022   7.811  22.515  0.00  0.00    +0.000 HD
ATOM     22  H   UNL     1      -0.901  11.361  23.796  0.00  0.00    +0.000 HD
ENDROOT
BRANCH   1  24
ATOM     23  C   UNL     1       3.473   6.272  17.998  0.00  0.00    +0.000 C 
ATOM     24  O   UNL     1       2.824   7.422  17.445  0.00  0.00    +0.000 OA
ENDBRANCH   1  24
BRANCH  20  25
ATOM     25  O   UNL     1      -2.260  12.699  18.598  0.00  0.00    +0.000 OA
ATOM     26  H   UNL     1      -1.566  12.974  17.971  0.00  0.00    +0.000 HD
ENDBRANCH  20  25
TORSDOF 2
ENDMDL
MODEL 9
REMARK VINA RESULT:      -6.9      3.137      5.051
REMARK  Name = 
REMARK  3 active torsions:
REMARK  status: ('A' for Active; 'I' for Inactive)
REMARK    1  A    between atoms: C_1  and  O_2
REMARK    2  A    between atoms: O_2  and  C_3
REMARK    3  A    between atoms: N_22  and  O_23
REMARK                            x       y       z     vdW  Elec       q    Type
REMARK                         _______ _______ _______ _____ _____    ______ ____
ROOT
ATOM      1  C   UNL     1       2.386   7.357  18.399  0.00  0.00    +0.000 A 
ATOM      2  C   UNL     1       1.949   8.554  17.832  0.00  0.00    +0.000 A 
ATOM      3  C   UNL     1       1.383   9.554  18.619  0.00  0.00    +0.000 A 
ATOM      4  C   UNL     1       1.196   9.363  19.973  0.00  0.00    +0.000 A 
ATOM      5  C   UNL     1       1.652   8.168  20.533  0.00  0.00    +0.000 A 
ATOM      6  C   UNL     1       2.246   7.159  19.780  0.00  0.00    +0.000 A 
ATOM      7  N   UNL     1       1.441   8.174  21.911  0.00  0.00    +0.000 N 
ATOM      8  C   UNL     1       0.847   9.358  22.330  0.00  0.00    +0.000 C 
ATOM      9  O   UNL     1       0.569   9.671  23.473  0.00  0.00    +0.000 OA
ATOM     10  C   UNL     1       0.629  10.170  21.073  0.00  0.00    +0.000 C 
ATOM     11  C   UNL     1       0.003  11.364  21.131  0.00  0.00    +0.000 C 
ATOM     12  N   UNL     1      -0.458  12.065  22.243  0.00  0.00    +0.000 N 
ATOM     13  C   UNL     1      -0.826  13.359  21.880  0.00  0.00    +0.000 A 
ATOM     14  C   UNL     1      -1.334  14.374  22.668  0.00  0.00    +0.000 A 
ATOM     15  C   UNL     1      -1.738  15.572  22.050  0.00  0.00    +0.000 A 
ATOM     16  C   UNL     1      -1.640  15.742  20.661  0.00  0.00    +0.000 A 
ATOM     17  C   UNL     1      -1.149  14.713  19.868  0.00  0.00    +0.000 A 
ATOM     18  C   UNL     1      -0.766  13.537  20.494  0.00  0.00    +0.000 A 
ATOM     19  C   UNL     1      -0.295  12.261  19.924  0.00  0.00    +0.000 C 
ATOM     20  N   UNL     1      -0.187  11.924  18.685  0.00  0.00    +0.000 NA
ATOM     21  H   UNL     1       1.700   7.441  22.546  0.00  0.00    +0.000 HD
ATOM     22  H   UNL     1      -0.189  11.778  23.178  0.00  0.00    +0.000 HD
ENDROOT
BRANCH   1  24
ATOM     23  C   UNL     1       2.540   5.022  18.002  0.00  0.00    +0.000 C 
ATOM     24  O   UNL     1       2.972   6.348  17.678  0.00  0.00    +0.000 OA
ENDBRANCH   1  24
BRANCH  20  25
ATOM     25  O   UNL     1      -0.445  12.932  17.768  0.00  0.00    +0.000 OA
ATOM     26  H   UNL     1      -1.388  12.790  17.568  0.00  0.00    +0.000 HD
ENDBRANCH  20  25
TORSDOF 2
ENDMDL
