MODEL 1
REMARK VINA RESULT:     -10.0      0.000      0.000
REMARK  Name = 
REMARK  7 active torsions:
REMARK  status: ('A' for Active; 'I' for Inactive)
REMARK    1  A    between atoms: C_1  and  C_2
REMARK    2  A    between atoms: C_4  and  C_5
REMARK    3  A    between atoms: C_11  and  C_12
REMARK    4  A    between atoms: N_14  and  C_15
REMARK    5  A    between atoms: C_19  and  O_20
REMARK    6  A    between atoms: C_19  and  C_21
REMARK    7  A    between atoms: C_21  and  N_22
REMARK                            x       y       z     vdW  Elec       q    Type
REMARK                         _______ _______ _______ _____ _____    ______ ____
ROOT
ATOM      1  C   UNL     1       1.546   6.675  20.327  0.00  0.00    +0.000 C 
ATOM      2  O   UNL     1       1.004   6.743  21.424  0.00  0.00    +0.000 OA
ATOM      3  N   UNL     1       2.017   5.495  19.793  0.00  0.00    +0.000 N 
ATOM      4  H   UNL     1       2.430   5.540  18.880  0.00  0.00    +0.000 HD
ENDROOT
BRANCH   1  11
ATOM      5  C   UNL     1       0.698  11.616  19.374  0.00  0.00    +0.000 A 
ATOM      6  N   UNL     1       1.218  12.414  18.427  0.00  0.00    +0.000 NA
ATOM      7  N   UNL     1       2.058  11.622  17.744  0.00  0.00    +0.000 N 
ATOM      8  C   UNL     1       2.072  10.320  18.163  0.00  0.00    +0.000 A 
ATOM      9  C   UNL     1       2.756   9.195  17.690  0.00  0.00    +0.000 A 
ATOM     10  C   UNL     1       2.569   7.987  18.383  0.00  0.00    +0.000 A 
ATOM     11  C   UNL     1       1.727   7.913  19.501  0.00  0.00    +0.000 A 
ATOM     12  C   UNL     1       1.036   9.058  19.929  0.00  0.00    +0.000 A 
ATOM     13  C   UNL     1       1.213  10.284  19.255  0.00  0.00    +0.000 A 
ATOM     14  H   UNL     1       2.592  12.035  16.987  0.00  0.00    +0.000 HD
BRANCH   5  18
ATOM     15  C   UNL     1      -3.945  13.116  20.468  0.00  0.00    +0.000 C 
ATOM     16  C   UNL     1      -2.520  12.863  20.857  0.00  0.00    +0.000 A 
ATOM     17  C   UNL     1      -1.632  12.294  19.952  0.00  0.00    +0.000 A 
ATOM     18  C   UNL     1      -0.297  12.118  20.324  0.00  0.00    +0.000 A 
ATOM     19  C   UNL     1       0.085  12.465  21.621  0.00  0.00    +0.000 A 
ATOM     20  C   UNL     1      -0.868  13.002  22.466  0.00  0.00    +0.000 A 
ATOM     21  N   UNL     1      -2.153  13.219  22.110  0.00  0.00    +0.000 NA
ENDBRANCH   5  18
ENDBRANCH   1  11
BRANCH   3  22
ATOM     22  C   UNL     1       2.030   4.237  20.543  0.00  0.00    +0.000 C 
ATOM     23  C   UNL     1       0.804   3.342  20.277  0.00  0.00    +0.000 C 
ATOM     24  C   UNL     1       0.911   2.443  19.044  0.00  0.00    +0.000 C 
ATOM     25  C   UNL     1       2.236   1.687  19.003  0.00  0.00    +0.000 C 
ATOM     26  C   UNL     1       3.437   2.639  19.047  0.00  0.00    +0.000 C 
ATOM     27  C   UNL     1       3.352   3.485  20.338  0.00  0.00    +0.000 C 
BRANCH  26  28
ATOM     28  O   UNL     1       4.632   1.854  19.182  0.00  0.00    +0.000 OA
ATOM     29  H   UNL     1       4.382   0.996  19.592  0.00  0.00    +0.000 HD
ENDBRANCH  26  28
BRANCH  26  30
ATOM     30  C   UNL     1       3.541   3.538  17.794  0.00  0.00    +0.000 C 
BRANCH  30  31
ATOM     31  N   UNL     1       4.668   4.454  17.787  0.00  0.00    +0.000 N 
ATOM     32  C   UNL     1       4.773   5.595  17.043  0.00  0.00    +0.000 A 
ATOM     33  C   UNL     1       5.929   6.178  17.477  0.00  0.00    +0.000 A 
ATOM     34  C   UNL     1       6.443   7.387  17.030  0.00  0.00    +0.000 A 
ATOM     35  C   UNL     1       7.629   7.700  17.719  0.00  0.00    +0.000 A 
ATOM     36  F   UNL     1       8.250   8.847  17.404  0.00  0.00    +0.000 F 
ATOM     37  C   UNL     1       8.219   6.886  18.732  0.00  0.00    +0.000 A 
ATOM     38  C   UNL     1       7.670   5.658  19.161  0.00  0.00    +0.000 A 
ATOM     39  C   UNL     1       6.484   5.313  18.494  0.00  0.00    +0.000 A 
ATOM     40  N   UNL     1       5.690   4.238  18.638  0.00  0.00    +0.000 NA
ENDBRANCH  30  31
ENDBRANCH  26  30
ENDBRANCH   3  22
TORSDOF 6
ENDMDL
MODEL 2
REMARK VINA RESULT:      -9.9      0.900      1.137
REMARK  Name = 
REMARK  7 active torsions:
REMARK  status: ('A' for Active; 'I' for Inactive)
REMARK    1  A    between atoms: C_1  and  C_2
REMARK    2  A    between atoms: C_4  and  C_5
REMARK    3  A    between atoms: C_11  and  C_12
REMARK    4  A    between atoms: N_14  and  C_15
REMARK    5  A    between atoms: C_19  and  O_20
REMARK    6  A    between atoms: C_19  and  C_21
REMARK    7  A    between atoms: C_21  and  N_22
REMARK                            x       y       z     vdW  Elec       q    Type
REMARK                         _______ _______ _______ _____ _____    ______ ____
ROOT
ATOM      1  C   UNL     1       1.565   6.618  20.353  0.00  0.00    +0.000 C 
ATOM      2  O   UNL     1       1.044   6.684  21.462  0.00  0.00    +0.000 OA
ATOM      3  N   UNL     1       2.041   5.443  19.815  0.00  0.00    +0.000 N 
ATOM      4  H   UNL     1       2.435   5.490  18.893  0.00  0.00    +0.000 HD
ENDROOT
BRANCH   1  11
ATOM      5  C   UNL     1       1.063  11.645  19.625  0.00  0.00    +0.000 A 
ATOM      6  N   UNL     1       1.474  12.414  18.603  0.00  0.00    +0.000 NA
ATOM      7  N   UNL     1       2.084  11.563  17.765  0.00  0.00    +0.000 N 
ATOM      8  C   UNL     1       2.044  10.254  18.162  0.00  0.00    +0.000 A 
ATOM      9  C   UNL     1       2.508   9.081  17.558  0.00  0.00    +0.000 A 
ATOM     10  C   UNL     1       2.332   7.878  18.263  0.00  0.00    +0.000 A 
ATOM     11  C   UNL     1       1.713   7.856  19.520  0.00  0.00    +0.000 A 
ATOM     12  C   UNL     1       1.235   9.051  20.081  0.00  0.00    +0.000 A 
ATOM     13  C   UNL     1       1.407  10.272  19.397  0.00  0.00    +0.000 A 
ATOM     14  H   UNL     1       2.506  11.942  16.924  0.00  0.00    +0.000 HD
BRANCH   5  18
ATOM     15  C   UNL     1      -0.039  15.467  22.655  0.00  0.00    +0.000 C 
ATOM     16  C   UNL     1      -0.200  14.038  22.230  0.00  0.00    +0.000 A 
ATOM     17  C   UNL     1       0.448  13.563  21.095  0.00  0.00    +0.000 A 
ATOM     18  C   UNL     1       0.321  12.215  20.752  0.00  0.00    +0.000 A 
ATOM     19  C   UNL     1      -0.505  11.402  21.530  0.00  0.00    +0.000 A 
ATOM     20  C   UNL     1      -1.132  11.962  22.627  0.00  0.00    +0.000 A 
ATOM     21  N   UNL     1      -0.987  13.253  23.000  0.00  0.00    +0.000 NA
ENDBRANCH   5  18
ENDBRANCH   1  11
BRANCH   3  22
ATOM     22  C   UNL     1       2.086   4.188  20.569  0.00  0.00    +0.000 C 
ATOM     23  C   UNL     1       0.900   3.248  20.281  0.00  0.00    +0.000 C 
ATOM     24  C   UNL     1       1.065   2.349  19.054  0.00  0.00    +0.000 C 
ATOM     25  C   UNL     1       2.418   1.644  19.042  0.00  0.00    +0.000 C 
ATOM     26  C   UNL     1       3.582   2.641  19.107  0.00  0.00    +0.000 C 
ATOM     27  C   UNL     1       3.439   3.486  20.394  0.00  0.00    +0.000 C 
BRANCH  26  28
ATOM     28  O   UNL     1       4.802   1.901  19.268  0.00  0.00    +0.000 OA
ATOM     29  H   UNL     1       4.563   0.968  19.467  0.00  0.00    +0.000 HD
ENDBRANCH  26  28
BRANCH  26  30
ATOM     30  C   UNL     1       3.677   3.540  17.853  0.00  0.00    +0.000 C 
BRANCH  30  31
ATOM     31  N   UNL     1       4.789   4.474  17.851  0.00  0.00    +0.000 N 
ATOM     32  C   UNL     1       4.880   5.614  17.104  0.00  0.00    +0.000 A 
ATOM     33  C   UNL     1       6.024   6.217  17.545  0.00  0.00    +0.000 A 
ATOM     34  C   UNL     1       6.520   7.434  17.098  0.00  0.00    +0.000 A 
ATOM     35  C   UNL     1       7.697   7.768  17.793  0.00  0.00    +0.000 A 
ATOM     36  F   UNL     1       8.301   8.924  17.479  0.00  0.00    +0.000 F 
ATOM     37  C   UNL     1       8.293   6.967  18.813  0.00  0.00    +0.000 A 
ATOM     38  C   UNL     1       7.762   5.731  19.241  0.00  0.00    +0.000 A 
ATOM     39  C   UNL     1       6.586   5.365  18.568  0.00  0.00    +0.000 A 
ATOM     40  N   UNL     1       5.809   4.277  18.710  0.00  0.00    +0.000 NA
ENDBRANCH  30  31
ENDBRANCH  26  30
ENDBRANCH   3  22
TORSDOF 6
ENDMDL
MODEL 3
REMARK VINA RESULT:      -9.5      6.555      9.657
REMARK  Name = 
REMARK  7 active torsions:
REMARK  status: ('A' for Active; 'I' for Inactive)
REMARK    1  A    between atoms: C_1  and  C_2
REMARK    2  A    between atoms: C_4  and  C_5
REMARK    3  A    between atoms: C_11  and  C_12
REMARK    4  A    between atoms: N_14  and  C_15
REMARK    5  A    between atoms: C_19  and  O_20
REMARK    6  A    between atoms: C_19  and  C_21
REMARK    7  A    between atoms: C_21  and  N_22
REMARK                            x       y       z     vdW  Elec       q    Type
REMARK                         _______ _______ _______ _____ _____    ______ ____
ROOT
ATOM      1  C   UNL     1      -0.497  10.875  18.672  0.00  0.00    +0.000 C 
ATOM      2  O   UNL     1      -0.177   9.992  19.461  0.00  0.00    +0.000 OA
ATOM      3  N   UNL     1       0.359  11.882  18.284  0.00  0.00    +0.000 N 
ATOM      4  H   UNL     1       0.009  12.548  17.620  0.00  0.00    +0.000 HD
ENDROOT
BRANCH   1  11
ATOM      5  C   UNL     1      -5.410  12.254  18.770  0.00  0.00    +0.000 A 
ATOM      6  N   UNL     1      -6.373  12.081  17.850  0.00  0.00    +0.000 NA
ATOM      7  N   UNL     1      -5.762  11.446  16.839  0.00  0.00    +0.000 N 
ATOM      8  C   UNL     1      -4.449  11.142  17.074  0.00  0.00    +0.000 A 
ATOM      9  C   UNL     1      -3.499  10.455  16.311  0.00  0.00    +0.000 A 
ATOM     10  C   UNL     1      -2.203  10.343  16.841  0.00  0.00    +0.000 A 
ATOM     11  C   UNL     1      -1.877  10.894  18.088  0.00  0.00    +0.000 A 
ATOM     12  C   UNL     1      -2.866  11.553  18.837  0.00  0.00    +0.000 A 
ATOM     13  C   UNL     1      -4.172  11.685  18.323  0.00  0.00    +0.000 A 
ATOM     14  H   UNL     1      -6.307  11.238  16.008  0.00  0.00    +0.000 HD
BRANCH   5  18
ATOM     15  C   UNL     1      -7.578  12.281  23.276  0.00  0.00    +0.000 C 
ATOM     16  C   UNL     1      -6.751  12.937  22.212  0.00  0.00    +0.000 A 
ATOM     17  C   UNL     1      -6.422  12.249  21.049  0.00  0.00    +0.000 A 
ATOM     18  C   UNL     1      -5.694  12.902  20.052  0.00  0.00    +0.000 A 
ATOM     19  C   UNL     1      -5.268  14.210  20.285  0.00  0.00    +0.000 A 
ATOM     20  C   UNL     1      -5.618  14.812  21.480  0.00  0.00    +0.000 A 
ATOM     21  N   UNL     1      -6.358  14.211  22.437  0.00  0.00    +0.000 NA
ENDBRANCH   5  18
ENDBRANCH   1  11
BRANCH   3  22
ATOM     22  C   UNL     1       1.686  12.064  18.875  0.00  0.00    +0.000 C 
ATOM     23  C   UNL     1       2.590  13.033  18.088  0.00  0.00    +0.000 C 
ATOM     24  C   UNL     1       2.397  14.515  18.418  0.00  0.00    +0.000 C 
ATOM     25  C   UNL     1       2.397  14.769  19.922  0.00  0.00    +0.000 C 
ATOM     26  C   UNL     1       1.325  13.941  20.641  0.00  0.00    +0.000 C 
ATOM     27  C   UNL     1       1.584  12.443  20.358  0.00  0.00    +0.000 C 
BRANCH  26  28
ATOM     28  O   UNL     1       1.504  14.100  22.057  0.00  0.00    +0.000 OA
ATOM     29  H   UNL     1       1.946  13.291  22.396  0.00  0.00    +0.000 HD
ENDBRANCH  26  28
BRANCH  26  30
ATOM     30  C   UNL     1      -0.114  14.346  20.247  0.00  0.00    +0.000 C 
BRANCH  30  31
ATOM     31  N   UNL     1      -1.116  14.127  21.275  0.00  0.00    +0.000 N 
ATOM     32  C   UNL     1      -1.751  12.947  21.542  0.00  0.00    +0.000 A 
ATOM     33  C   UNL     1      -2.485  13.203  22.665  0.00  0.00    +0.000 A 
ATOM     34  C   UNL     1      -3.281  12.286  23.337  0.00  0.00    +0.000 A 
ATOM     35  C   UNL     1      -3.863  12.881  24.471  0.00  0.00    +0.000 A 
ATOM     36  F   UNL     1      -4.662  12.121  25.235  0.00  0.00    +0.000 F 
ATOM     37  C   UNL     1      -3.663  14.237  24.870  0.00  0.00    +0.000 A 
ATOM     38  C   UNL     1      -2.848  15.145  24.159  0.00  0.00    +0.000 A 
ATOM     39  C   UNL     1      -2.249  14.584  23.020  0.00  0.00    +0.000 A 
ATOM     40  N   UNL     1      -1.418  15.134  22.117  0.00  0.00    +0.000 NA
ENDBRANCH  30  31
ENDBRANCH  26  30
ENDBRANCH   3  22
TORSDOF 6
ENDMDL
MODEL 4
REMARK VINA RESULT:      -9.1      6.609      9.687
REMARK  Name = 
REMARK  7 active torsions:
REMARK  status: ('A' for Active; 'I' for Inactive)
REMARK    1  A    between atoms: C_1  and  C_2
REMARK    2  A    between atoms: C_4  and  C_5
REMARK    3  A    between atoms: C_11  and  C_12
REMARK    4  A    between atoms: N_14  and  C_15
REMARK    5  A    between atoms: C_19  and  O_20
REMARK    6  A    between atoms: C_19  and  C_21
REMARK    7  A    between atoms: C_21  and  N_22
REMARK                            x       y       z     vdW  Elec       q    Type
REMARK                         _______ _______ _______ _____ _____    ______ ____
ROOT
ATOM      1  C   UNL     1      -0.409  10.986  18.756  0.00  0.00    +0.000 C 
ATOM      2  O   UNL     1      -0.078  10.146  19.586  0.00  0.00    +0.000 OA
ATOM      3  N   UNL     1       0.430  11.991  18.328  0.00  0.00    +0.000 N 
ATOM      4  H   UNL     1       0.072  12.620  17.633  0.00  0.00    +0.000 HD
ENDROOT
BRANCH   1  11
ATOM      5  C   UNL     1      -5.332  12.331  18.715  0.00  0.00    +0.000 A 
ATOM      6  N   UNL     1      -6.287  12.082  17.803  0.00  0.00    +0.000 NA
ATOM      7  N   UNL     1      -5.664  11.379  16.847  0.00  0.00    +0.000 N 
ATOM      8  C   UNL     1      -4.350  11.102  17.114  0.00  0.00    +0.000 A 
ATOM      9  C   UNL     1      -3.389  10.368  16.411  0.00  0.00    +0.000 A 
ATOM     10  C   UNL     1      -2.097  10.306  16.958  0.00  0.00    +0.000 A 
ATOM     11  C   UNL     1      -1.785  10.951  18.162  0.00  0.00    +0.000 A 
ATOM     12  C   UNL     1      -2.784  11.656  18.853  0.00  0.00    +0.000 A 
ATOM     13  C   UNL     1      -4.087  11.740  18.320  0.00  0.00    +0.000 A 
ATOM     14  H   UNL     1      -6.200  11.105  16.030  0.00  0.00    +0.000 HD
BRANCH   5  18
ATOM     15  C   UNL     1      -4.994  16.442  21.542  0.00  0.00    +0.000 C 
ATOM     16  C   UNL     1      -5.457  15.033  21.321  0.00  0.00    +0.000 A 
ATOM     17  C   UNL     1      -5.236  14.400  20.103  0.00  0.00    +0.000 A 
ATOM     18  C   UNL     1      -5.631  13.071  19.943  0.00  0.00    +0.000 A 
ATOM     19  C   UNL     1      -6.293  12.439  20.997  0.00  0.00    +0.000 A 
ATOM     20  C   UNL     1      -6.494  13.150  22.166  0.00  0.00    +0.000 A 
ATOM     21  N   UNL     1      -6.080  14.422  22.355  0.00  0.00    +0.000 NA
ENDBRANCH   5  18
ENDBRANCH   1  11
BRANCH   3  22
ATOM     22  C   UNL     1       1.749  12.227  18.920  0.00  0.00    +0.000 C 
ATOM     23  C   UNL     1       2.610  13.237  18.138  0.00  0.00    +0.000 C 
ATOM     24  C   UNL     1       2.354  14.708  18.476  0.00  0.00    +0.000 C 
ATOM     25  C   UNL     1       2.345  14.953  19.982  0.00  0.00    +0.000 C 
ATOM     26  C   UNL     1       1.309  14.076  20.696  0.00  0.00    +0.000 C 
ATOM     27  C   UNL     1       1.631  12.593  20.406  0.00  0.00    +0.000 C 
BRANCH  26  28
ATOM     28  O   UNL     1       1.482  14.236  22.113  0.00  0.00    +0.000 OA
ATOM     29  H   UNL     1       2.352  14.670  22.262  0.00  0.00    +0.000 HD
ENDBRANCH  26  28
BRANCH  26  30
ATOM     30  C   UNL     1      -0.146  14.421  20.305  0.00  0.00    +0.000 C 
BRANCH  30  31
ATOM     31  N   UNL     1      -1.133  14.189  21.346  0.00  0.00    +0.000 N 
ATOM     32  C   UNL     1      -1.758  13.004  21.611  0.00  0.00    +0.000 A 
ATOM     33  C   UNL     1      -2.477  13.247  22.747  0.00  0.00    +0.000 A 
ATOM     34  C   UNL     1      -3.259  12.321  23.423  0.00  0.00    +0.000 A 
ATOM     35  C   UNL     1      -3.828  12.903  24.570  0.00  0.00    +0.000 A 
ATOM     36  F   UNL     1      -4.612  12.133  25.339  0.00  0.00    +0.000 F 
ATOM     37  C   UNL     1      -3.628  14.257  24.977  0.00  0.00    +0.000 A 
ATOM     38  C   UNL     1      -2.827  15.174  24.263  0.00  0.00    +0.000 A 
ATOM     39  C   UNL     1      -2.243  14.626  23.110  0.00  0.00    +0.000 A 
ATOM     40  N   UNL     1      -1.427  15.188  22.201  0.00  0.00    +0.000 NA
ENDBRANCH  30  31
ENDBRANCH  26  30
ENDBRANCH   3  22
TORSDOF 6
ENDMDL
MODEL 5
REMARK VINA RESULT:      -9.0      2.561      2.961
REMARK  Name = 
REMARK  7 active torsions:
REMARK  status: ('A' for Active; 'I' for Inactive)
REMARK    1  A    between atoms: C_1  and  C_2
REMARK    2  A    between atoms: C_4  and  C_5
REMARK    3  A    between atoms: C_11  and  C_12
REMARK    4  A    between atoms: N_14  and  C_15
REMARK    5  A    between atoms: C_19  and  O_20
REMARK    6  A    between atoms: C_19  and  C_21
REMARK    7  A    between atoms: C_21  and  N_22
REMARK                            x       y       z     vdW  Elec       q    Type
REMARK                         _______ _______ _______ _____ _____    ______ ____
ROOT
ATOM      1  C   UNL     1       1.673   7.235  20.144  0.00  0.00    +0.000 C 
ATOM      2  O   UNL     1       1.170   7.023  21.242  0.00  0.00    +0.000 OA
ATOM      3  N   UNL     1       2.424   6.298  19.467  0.00  0.00    +0.000 N 
ATOM      4  H   UNL     1       2.779   6.562  18.567  0.00  0.00    +0.000 HD
ENDROOT
BRANCH   1  11
ATOM      5  C   UNL     1      -0.442  11.871  19.855  0.00  0.00    +0.000 A 
ATOM      6  N   UNL     1      -0.194  12.881  19.006  0.00  0.00    +0.000 NA
ATOM      7  N   UNL     1       0.778  12.417  18.206  0.00  0.00    +0.000 N 
ATOM      8  C   UNL     1       1.142  11.122  18.454  0.00  0.00    +0.000 A 
ATOM      9  C   UNL     1       2.059  10.274  17.824  0.00  0.00    +0.000 A 
ATOM     10  C   UNL     1       2.221   8.986  18.360  0.00  0.00    +0.000 A 
ATOM     11  C   UNL     1       1.490   8.566  19.480  0.00  0.00    +0.000 A 
ATOM     12  C   UNL     1       0.559   9.438  20.068  0.00  0.00    +0.000 A 
ATOM     13  C   UNL     1       0.384  10.738  19.553  0.00  0.00    +0.000 A 
ATOM     14  H   UNL     1       1.147  13.039  17.495  0.00  0.00    +0.000 HD
BRANCH   5  18
ATOM     15  C   UNL     1      -5.040  13.180  21.320  0.00  0.00    +0.000 C 
ATOM     16  C   UNL     1      -3.675  12.631  21.609  0.00  0.00    +0.000 A 
ATOM     17  C   UNL     1      -2.757  12.449  20.582  0.00  0.00    +0.000 A 
ATOM     18  C   UNL     1      -1.475  11.985  20.887  0.00  0.00    +0.000 A 
ATOM     19  C   UNL     1      -1.180  11.663  22.213  0.00  0.00    +0.000 A 
ATOM     20  C   UNL     1      -2.161  11.851  23.169  0.00  0.00    +0.000 A 
ATOM     21  N   UNL     1      -3.391  12.339  22.899  0.00  0.00    +0.000 NA
ENDBRANCH   5  18
ENDBRANCH   1  11
BRANCH   3  22
ATOM     22  C   UNL     1       2.796   5.009  20.054  0.00  0.00    +0.000 C 
ATOM     23  C   UNL     1       1.914   3.836  19.587  0.00  0.00    +0.000 C 
ATOM     24  C   UNL     1       2.335   3.193  18.263  0.00  0.00    +0.000 C 
ATOM     25  C   UNL     1       3.828   2.883  18.229  0.00  0.00    +0.000 C 
ATOM     26  C   UNL     1       4.677   4.135  18.483  0.00  0.00    +0.000 C 
ATOM     27  C   UNL     1       4.291   4.725  19.859  0.00  0.00    +0.000 C 
BRANCH  26  28
ATOM     28  O   UNL     1       6.049   3.732  18.609  0.00  0.00    +0.000 OA
ATOM     29  H   UNL     1       6.424   3.658  17.703  0.00  0.00    +0.000 HD
ENDBRANCH  26  28
BRANCH  26  30
ATOM     30  C   UNL     1       4.542   5.191  17.362  0.00  0.00    +0.000 C 
BRANCH  30  31
ATOM     31  N   UNL     1       5.299   4.906  16.156  0.00  0.00    +0.000 N 
ATOM     32  C   UNL     1       4.973   3.985  15.201  0.00  0.00    +0.000 A 
ATOM     33  C   UNL     1       5.896   4.181  14.213  0.00  0.00    +0.000 A 
ATOM     34  C   UNL     1       5.950   3.491  13.009  0.00  0.00    +0.000 A 
ATOM     35  C   UNL     1       7.007   3.974  12.215  0.00  0.00    +0.000 A 
ATOM     36  F   UNL     1       7.191   3.412  11.011  0.00  0.00    +0.000 F 
ATOM     37  C   UNL     1       7.895   5.024  12.597  0.00  0.00    +0.000 A 
ATOM     38  C   UNL     1       7.813   5.703  13.832  0.00  0.00    +0.000 A 
ATOM     39  C   UNL     1       6.768   5.246  14.652  0.00  0.00    +0.000 A 
ATOM     40  N   UNL     1       6.386   5.651  15.875  0.00  0.00    +0.000 NA
ENDBRANCH  30  31
ENDBRANCH  26  30
ENDBRANCH   3  22
TORSDOF 6
ENDMDL
MODEL 6
REMARK VINA RESULT:      -9.0      0.537      1.080
REMARK  Name = 
REMARK  7 active torsions:
REMARK  status: ('A' for Active; 'I' for Inactive)
REMARK    1  A    between atoms: C_1  and  C_2
REMARK    2  A    between atoms: C_4  and  C_5
REMARK    3  A    between atoms: C_11  and  C_12
REMARK    4  A    between atoms: N_14  and  C_15
REMARK    5  A    between atoms: C_19  and  O_20
REMARK    6  A    between atoms: C_19  and  C_21
REMARK    7  A    between atoms: C_21  and  N_22
REMARK                            x       y       z     vdW  Elec       q    Type
REMARK                         _______ _______ _______ _____ _____    ______ ____
ROOT
ATOM      1  C   UNL     1       1.572   6.464  20.284  0.00  0.00    +0.000 C 
ATOM      2  O   UNL     1       1.095   6.549  21.410  0.00  0.00    +0.000 OA
ATOM      3  N   UNL     1       1.946   5.266  19.714  0.00  0.00    +0.000 N 
ATOM      4  H   UNL     1       2.310   5.299  18.780  0.00  0.00    +0.000 HD
ENDROOT
BRANCH   1  11
ATOM      5  C   UNL     1       0.794  11.415  19.323  0.00  0.00    +0.000 A 
ATOM      6  N   UNL     1       1.336  12.207  18.382  0.00  0.00    +0.000 NA
ATOM      7  N   UNL     1       2.174  11.405  17.709  0.00  0.00    +0.000 N 
ATOM      8  C   UNL     1       2.167  10.103  18.128  0.00  0.00    +0.000 A 
ATOM      9  C   UNL     1       2.844   8.970  17.663  0.00  0.00    +0.000 A 
ATOM     10  C   UNL     1       2.634   7.764  18.353  0.00  0.00    +0.000 A 
ATOM     11  C   UNL     1       1.777   7.700  19.461  0.00  0.00    +0.000 A 
ATOM     12  C   UNL     1       1.095   8.853  19.880  0.00  0.00    +0.000 A 
ATOM     13  C   UNL     1       1.295  10.077  19.209  0.00  0.00    +0.000 A 
ATOM     14  H   UNL     1       2.722  11.812  16.959  0.00  0.00    +0.000 HD
BRANCH   5  18
ATOM     15  C   UNL     1      -3.885  12.804  20.407  0.00  0.00    +0.000 C 
ATOM     16  C   UNL     1      -2.447  12.621  20.788  0.00  0.00    +0.000 A 
ATOM     17  C   UNL     1      -1.550  12.040  19.900  0.00  0.00    +0.000 A 
ATOM     18  C   UNL     1      -0.206  11.929  20.261  0.00  0.00    +0.000 A 
ATOM     19  C   UNL     1       0.180  12.353  21.534  0.00  0.00    +0.000 A 
ATOM     20  C   UNL     1      -0.781  12.897  22.365  0.00  0.00    +0.000 A 
ATOM     21  N   UNL     1      -2.077  13.052  22.016  0.00  0.00    +0.000 NA
ENDBRANCH   5  18
ENDBRANCH   1  11
BRANCH   3  22
ATOM     22  C   UNL     1       1.928   4.000  20.451  0.00  0.00    +0.000 C 
ATOM     23  C   UNL     1       0.712   3.111  20.130  0.00  0.00    +0.000 C 
ATOM     24  C   UNL     1       0.863   2.224  18.892  0.00  0.00    +0.000 C 
ATOM     25  C   UNL     1       2.187   1.466  18.893  0.00  0.00    +0.000 C 
ATOM     26  C   UNL     1       3.388   2.415  18.993  0.00  0.00    +0.000 C 
ATOM     27  C   UNL     1       3.255   3.247  20.288  0.00  0.00    +0.000 C 
BRANCH  26  28
ATOM     28  O   UNL     1       4.575   1.625  19.164  0.00  0.00    +0.000 OA
ATOM     29  H   UNL     1       5.290   2.039  18.630  0.00  0.00    +0.000 HD
ENDBRANCH  26  28
BRANCH  26  30
ATOM     30  C   UNL     1       3.540   3.327  17.753  0.00  0.00    +0.000 C 
BRANCH  30  31
ATOM     31  N   UNL     1       4.531   4.381  17.885  0.00  0.00    +0.000 N 
ATOM     32  C   UNL     1       5.484   4.472  18.860  0.00  0.00    +0.000 A 
ATOM     33  C   UNL     1       6.251   5.538  18.485  0.00  0.00    +0.000 A 
ATOM     34  C   UNL     1       7.374   6.002  19.156  0.00  0.00    +0.000 A 
ATOM     35  C   UNL     1       7.938   7.093  18.471  0.00  0.00    +0.000 A 
ATOM     36  F   UNL     1       9.039   7.657  18.992  0.00  0.00    +0.000 F 
ATOM     37  C   UNL     1       7.425   7.644  17.258  0.00  0.00    +0.000 A 
ATOM     38  C   UNL     1       6.277   7.148  16.603  0.00  0.00    +0.000 A 
ATOM     39  C   UNL     1       5.687   6.056  17.260  0.00  0.00    +0.000 A 
ATOM     40  N   UNL     1       4.602   5.332  16.934  0.00  0.00    +0.000 NA
ENDBRANCH  30  31
ENDBRANCH  26  30
ENDBRANCH   3  22
TORSDOF 6
ENDMDL
MODEL 7
REMARK VINA RESULT:      -8.8      1.040      1.549
REMARK  Name = 
REMARK  7 active torsions:
REMARK  status: ('A' for Active; 'I' for Inactive)
REMARK    1  A    between atoms: C_1  and  C_2
REMARK    2  A    between atoms: C_4  and  C_5
REMARK    3  A    between atoms: C_11  and  C_12
REMARK    4  A    between atoms: N_14  and  C_15
REMARK    5  A    between atoms: C_19  and  O_20
REMARK    6  A    between atoms: C_19  and  C_21
REMARK    7  A    between atoms: C_21  and  N_22
REMARK                            x       y       z     vdW  Elec       q    Type
REMARK                         _______ _______ _______ _____ _____    ______ ____
ROOT
ATOM      1  C   UNL     1       1.633   6.402  20.326  0.00  0.00    +0.000 C 
ATOM      2  O   UNL     1       1.377   6.487  21.522  0.00  0.00    +0.000 OA
ATOM      3  N   UNL     1       1.808   5.199  19.677  0.00  0.00    +0.000 N 
ATOM      4  H   UNL     1       1.998   5.235  18.693  0.00  0.00    +0.000 HD
ENDROOT
BRANCH   1  11
ATOM      5  C   UNL     1       1.063  11.423  19.609  0.00  0.00    +0.000 A 
ATOM      6  N   UNL     1       1.481  12.203  18.598  0.00  0.00    +0.000 NA
ATOM      7  N   UNL     1       2.119  11.365  17.768  0.00  0.00    +0.000 N 
ATOM      8  C   UNL     1       2.093  10.054  18.159  0.00  0.00    +0.000 A 
ATOM      9  C   UNL     1       2.587   8.891  17.558  0.00  0.00    +0.000 A 
ATOM     10  C   UNL     1       2.418   7.683  18.254  0.00  0.00    +0.000 A 
ATOM     11  C   UNL     1       1.776   7.645  19.500  0.00  0.00    +0.000 A 
ATOM     12  C   UNL     1       1.269   8.830  20.058  0.00  0.00    +0.000 A 
ATOM     13  C   UNL     1       1.434  10.057  19.382  0.00  0.00    +0.000 A 
ATOM     14  H   UNL     1       2.550  11.755  16.936  0.00  0.00    +0.000 HD
BRANCH   5  18
ATOM     15  C   UNL     1      -0.120  15.200  22.664  0.00  0.00    +0.000 C 
ATOM     16  C   UNL     1      -0.269  13.778  22.214  0.00  0.00    +0.000 A 
ATOM     17  C   UNL     1       0.409  13.319  21.090  0.00  0.00    +0.000 A 
ATOM     18  C   UNL     1       0.293  11.976  20.724  0.00  0.00    +0.000 A 
ATOM     19  C   UNL     1      -0.552  11.152  21.469  0.00  0.00    +0.000 A 
ATOM     20  C   UNL     1      -1.208  11.696  22.558  0.00  0.00    +0.000 A 
ATOM     21  N   UNL     1      -1.074  12.981  22.953  0.00  0.00    +0.000 NA
ENDBRANCH   5  18
ENDBRANCH   1  11
BRANCH   3  22
ATOM     22  C   UNL     1       1.831   3.916  20.383  0.00  0.00    +0.000 C 
ATOM     23  C   UNL     1       0.667   2.979  20.010  0.00  0.00    +0.000 C 
ATOM     24  C   UNL     1       0.891   2.131  18.756  0.00  0.00    +0.000 C 
ATOM     25  C   UNL     1       2.249   1.436  18.774  0.00  0.00    +0.000 C 
ATOM     26  C   UNL     1       3.401   2.437  18.928  0.00  0.00    +0.000 C 
ATOM     27  C   UNL     1       3.196   3.230  20.239  0.00  0.00    +0.000 C 
BRANCH  26  28
ATOM     28  O   UNL     1       4.619   1.700  19.112  0.00  0.00    +0.000 OA
ATOM     29  H   UNL     1       4.645   0.989  18.433  0.00  0.00    +0.000 HD
ENDBRANCH  26  28
BRANCH  26  30
ATOM     30  C   UNL     1       3.541   3.386  17.715  0.00  0.00    +0.000 C 
BRANCH  30  31
ATOM     31  N   UNL     1       4.532   4.436  17.869  0.00  0.00    +0.000 N 
ATOM     32  C   UNL     1       5.516   4.482  18.815  0.00  0.00    +0.000 A 
ATOM     33  C   UNL     1       6.266   5.570  18.472  0.00  0.00    +0.000 A 
ATOM     34  C   UNL     1       7.409   6.005  19.130  0.00  0.00    +0.000 A 
ATOM     35  C   UNL     1       7.946   7.134  18.485  0.00  0.00    +0.000 A 
ATOM     36  F   UNL     1       9.061   7.676  18.998  0.00  0.00    +0.000 F 
ATOM     37  C   UNL     1       7.392   7.744  17.319  0.00  0.00    +0.000 A 
ATOM     38  C   UNL     1       6.225   7.276  16.676  0.00  0.00    +0.000 A 
ATOM     39  C   UNL     1       5.661   6.149  17.294  0.00  0.00    +0.000 A 
ATOM     40  N   UNL     1       4.569   5.436  16.966  0.00  0.00    +0.000 NA
ENDBRANCH  30  31
ENDBRANCH  26  30
ENDBRANCH   3  22
TORSDOF 6
ENDMDL
MODEL 8
REMARK VINA RESULT:      -8.7      0.728      1.517
REMARK  Name = 
REMARK  7 active torsions:
REMARK  status: ('A' for Active; 'I' for Inactive)
REMARK    1  A    between atoms: C_1  and  C_2
REMARK    2  A    between atoms: C_4  and  C_5
REMARK    3  A    between atoms: C_11  and  C_12
REMARK    4  A    between atoms: N_14  and  C_15
REMARK    5  A    between atoms: C_19  and  O_20
REMARK    6  A    between atoms: C_19  and  C_21
REMARK    7  A    between atoms: C_21  and  N_22
REMARK                            x       y       z     vdW  Elec       q    Type
REMARK                         _______ _______ _______ _____ _____    ______ ____
ROOT
ATOM      1  C   UNL     1       1.539   6.447  20.213  0.00  0.00    +0.000 C 
ATOM      2  O   UNL     1       0.947   6.530  21.284  0.00  0.00    +0.000 OA
ATOM      3  N   UNL     1       2.009   5.255  19.704  0.00  0.00    +0.000 N 
ATOM      4  H   UNL     1       2.465   5.289  18.811  0.00  0.00    +0.000 HD
ENDROOT
BRANCH   1  11
ATOM      5  C   UNL     1       0.634  11.331  19.042  0.00  0.00    +0.000 A 
ATOM      6  N   UNL     1       1.253  12.136  18.162  0.00  0.00    +0.000 NA
ATOM      7  N   UNL     1       2.215  11.372  17.625  0.00  0.00    +0.000 N 
ATOM      8  C   UNL     1       2.222  10.078  18.069  0.00  0.00    +0.000 A 
ATOM      9  C   UNL     1       3.014   8.977  17.725  0.00  0.00    +0.000 A 
ATOM     10  C   UNL     1       2.778   7.773  18.409  0.00  0.00    +0.000 A 
ATOM     11  C   UNL     1       1.786   7.679  19.396  0.00  0.00    +0.000 A 
ATOM     12  C   UNL     1       0.994   8.799  19.694  0.00  0.00    +0.000 A 
ATOM     13  C   UNL     1       1.216  10.021  19.027  0.00  0.00    +0.000 A 
ATOM     14  H   UNL     1       2.835  11.796  16.944  0.00  0.00    +0.000 HD
BRANCH   5  18
ATOM     15  C   UNL     1      -1.676  12.033  23.420  0.00  0.00    +0.000 C 
ATOM     16  C   UNL     1      -1.639  12.125  21.925  0.00  0.00    +0.000 A 
ATOM     17  C   UNL     1      -0.496  11.756  21.223  0.00  0.00    +0.000 A 
ATOM     18  C   UNL     1      -0.507  11.803  19.828  0.00  0.00    +0.000 A 
ATOM     19  C   UNL     1      -1.651  12.279  19.185  0.00  0.00    +0.000 A 
ATOM     20  C   UNL     1      -2.735  12.649  19.960  0.00  0.00    +0.000 A 
ATOM     21  N   UNL     1      -2.758  12.570  21.308  0.00  0.00    +0.000 NA
ENDBRANCH   5  18
ENDBRANCH   1  11
BRANCH   3  22
ATOM     22  C   UNL     1       1.958   3.999  20.454  0.00  0.00    +0.000 C 
ATOM     23  C   UNL     1       0.713   3.144  20.153  0.00  0.00    +0.000 C 
ATOM     24  C   UNL     1       0.828   2.239  18.924  0.00  0.00    +0.000 C 
ATOM     25  C   UNL     1       2.128   1.441  18.924  0.00  0.00    +0.000 C 
ATOM     26  C   UNL     1       3.358   2.354  19.004  0.00  0.00    +0.000 C 
ATOM     27  C   UNL     1       3.261   3.205  20.291  0.00  0.00    +0.000 C 
BRANCH  26  28
ATOM     28  O   UNL     1       4.522   1.531  19.175  0.00  0.00    +0.000 OA
ATOM     29  H   UNL     1       4.470   0.799  18.520  0.00  0.00    +0.000 HD
ENDBRANCH  26  28
BRANCH  26  30
ATOM     30  C   UNL     1       3.528   3.247  17.753  0.00  0.00    +0.000 C 
BRANCH  30  31
ATOM     31  N   UNL     1       4.514   4.305  17.885  0.00  0.00    +0.000 N 
ATOM     32  C   UNL     1       5.473   4.395  18.853  0.00  0.00    +0.000 A 
ATOM     33  C   UNL     1       6.232   5.468  18.479  0.00  0.00    +0.000 A 
ATOM     34  C   UNL     1       7.357   5.934  19.146  0.00  0.00    +0.000 A 
ATOM     35  C   UNL     1       7.911   7.033  18.464  0.00  0.00    +0.000 A 
ATOM     36  F   UNL     1       9.012   7.599  18.980  0.00  0.00    +0.000 F 
ATOM     37  C   UNL     1       7.386   7.588  17.258  0.00  0.00    +0.000 A 
ATOM     38  C   UNL     1       6.236   7.090  16.608  0.00  0.00    +0.000 A 
ATOM     39  C   UNL     1       5.657   5.991  17.262  0.00  0.00    +0.000 A 
ATOM     40  N   UNL     1       4.574   5.263  16.939  0.00  0.00    +0.000 NA
ENDBRANCH  30  31
ENDBRANCH  26  30
ENDBRANCH   3  22
TORSDOF 6
ENDMDL
MODEL 9
REMARK VINA RESULT:      -8.7      2.517      3.043
REMARK  Name = 
REMARK  7 active torsions:
REMARK  status: ('A' for Active; 'I' for Inactive)
REMARK    1  A    between atoms: C_1  and  C_2
REMARK    2  A    between atoms: C_4  and  C_5
REMARK    3  A    between atoms: C_11  and  C_12
REMARK    4  A    between atoms: N_14  and  C_15
REMARK    5  A    between atoms: C_19  and  O_20
REMARK    6  A    between atoms: C_19  and  C_21
REMARK    7  A    between atoms: C_21  and  N_22
REMARK                            x       y       z     vdW  Elec       q    Type
REMARK                         _______ _______ _______ _____ _____    ______ ____
ROOT
ATOM      1  C   UNL     1       1.640   7.442  20.233  0.00  0.00    +0.000 C 
ATOM      2  O   UNL     1       1.129   7.269  21.334  0.00  0.00    +0.000 OA
ATOM      3  N   UNL     1       2.325   6.455  19.558  0.00  0.00    +0.000 N 
ATOM      4  H   UNL     1       2.692   6.691  18.654  0.00  0.00    +0.000 HD
ENDROOT
BRANCH   1  11
ATOM      5  C   UNL     1       0.228  12.346  20.152  0.00  0.00    +0.000 A 
ATOM      6  N   UNL     1       0.466  13.297  19.234  0.00  0.00    +0.000 NA
ATOM      7  N   UNL     1       1.193  12.681  18.291  0.00  0.00    +0.000 N 
ATOM      8  C   UNL     1       1.399  11.347  18.518  0.00  0.00    +0.000 A 
ATOM      9  C   UNL     1       2.047  10.361  17.767  0.00  0.00    +0.000 A 
ATOM     10  C   UNL     1       2.109   9.069  18.314  0.00  0.00    +0.000 A 
ATOM     11  C   UNL     1       1.540   8.779  19.562  0.00  0.00    +0.000 A 
ATOM     12  C   UNL     1       0.874   9.790  20.274  0.00  0.00    +0.000 A 
ATOM     13  C   UNL     1       0.805  11.097  19.750  0.00  0.00    +0.000 A 
ATOM     14  H   UNL     1       1.515  13.231  17.502  0.00  0.00    +0.000 HD
BRANCH   5  18
ATOM     15  C   UNL     1      -0.954  15.265  24.036  0.00  0.00    +0.000 C 
ATOM     16  C   UNL     1      -1.131  14.013  23.231  0.00  0.00    +0.000 A 
ATOM     17  C   UNL     1      -0.423  13.827  22.049  0.00  0.00    +0.000 A 
ATOM     18  C   UNL     1      -0.569  12.629  21.347  0.00  0.00    +0.000 A 
ATOM     19  C   UNL     1      -1.473  11.680  21.827  0.00  0.00    +0.000 A 
ATOM     20  C   UNL     1      -2.155  11.955  22.998  0.00  0.00    +0.000 A 
ATOM     21  N   UNL     1      -1.994  13.090  23.714  0.00  0.00    +0.000 NA
ENDBRANCH   5  18
ENDBRANCH   1  11
BRANCH   3  22
ATOM     22  C   UNL     1       2.615   5.148  20.150  0.00  0.00    +0.000 C 
ATOM     23  C   UNL     1       1.624   4.044  19.736  0.00  0.00    +0.000 C 
ATOM     24  C   UNL     1       1.938   3.352  18.407  0.00  0.00    +0.000 C 
ATOM     25  C   UNL     1       3.399   2.922  18.320  0.00  0.00    +0.000 C 
ATOM     26  C   UNL     1       4.355   4.104  18.521  0.00  0.00    +0.000 C 
ATOM     27  C   UNL     1       4.074   4.741  19.901  0.00  0.00    +0.000 C 
BRANCH  26  28
ATOM     28  O   UNL     1       5.695   3.594  18.600  0.00  0.00    +0.000 OA
ATOM     29  H   UNL     1       6.221   4.021  17.887  0.00  0.00    +0.000 HD
ENDBRANCH  26  28
BRANCH  26  30
ATOM     30  C   UNL     1       4.262   5.154  17.390  0.00  0.00    +0.000 C 
BRANCH  30  31
ATOM     31  N   UNL     1       5.079   4.873  16.222  0.00  0.00    +0.000 N 
ATOM     32  C   UNL     1       4.775   3.997  15.219  0.00  0.00    +0.000 A 
ATOM     33  C   UNL     1       5.765   4.183  14.296  0.00  0.00    +0.000 A 
ATOM     34  C   UNL     1       5.865   3.529  13.076  0.00  0.00    +0.000 A 
ATOM     35  C   UNL     1       6.988   3.989  12.364  0.00  0.00    +0.000 A 
ATOM     36  F   UNL     1       7.224   3.457  11.156  0.00  0.00    +0.000 F 
ATOM     37  C   UNL     1       7.894   4.987  12.834  0.00  0.00    +0.000 A 
ATOM     38  C   UNL     1       7.763   5.630  14.084  0.00  0.00    +0.000 A 
ATOM     39  C   UNL     1       6.652   5.194  14.823  0.00  0.00    +0.000 A 
ATOM     40  N   UNL     1       6.212   5.578  16.034  0.00  0.00    +0.000 NA
ENDBRANCH  30  31
ENDBRANCH  26  30
ENDBRANCH   3  22
TORSDOF 6
ENDMDL
