MODEL 1
REMARK VINA RESULT:      -7.7      0.000      0.000
REMARK  Name = 
REMARK  7 active torsions:
REMARK  status: ('A' for Active; 'I' for Inactive)
REMARK    1  A    between atoms: C_1  and  N_2
REMARK    2  A    between atoms: N_2  and  C_3
REMARK    3  A    between atoms: C_6  and  O_7
REMARK    4  A    between atoms: O_7  and  C_8
REMARK    5  A    between atoms: C_10  and  S_11
REMARK    6  A    between atoms: S_11  and  C_14
REMARK    7  A    between atoms: C_19  and  N_20
REMARK                            x       y       z     vdW  Elec       q    Type
REMARK                         _______ _______ _______ _____ _____    ______ ____
ROOT
ATOM      1  S   UNL     1       4.062   3.379  18.703  0.00  0.00    +0.000 S 
ATOM      2  O   UNL     1       3.048   2.587  18.013  0.00  0.00    +0.000 OA
ATOM      3  O   UNL     1       4.872   2.797  19.755  0.00  0.00    +0.000 OA
ENDROOT
BRANCH   1   9
ATOM      4  C   UNL     1       6.431   4.615  17.767  0.00  0.00    +0.000 A 
ATOM      5  C   UNL     1       7.218   5.017  16.670  0.00  0.00    +0.000 A 
ATOM      6  C   UNL     1       6.797   4.864  15.348  0.00  0.00    +0.000 A 
ATOM      7  C   UNL     1       5.583   4.261  15.064  0.00  0.00    +0.000 A 
ATOM      8  C   UNL     1       4.793   3.810  16.117  0.00  0.00    +0.000 A 
ATOM      9  C   UNL     1       5.219   3.962  17.458  0.00  0.00    +0.000 A 
BRANCH   4  11
ATOM     10  C   UNL     1       7.870   5.816  19.365  0.00  0.00    +0.000 C 
ATOM     11  N   UNL     1       6.941   4.723  19.075  0.00  0.00    +0.000 N 
ATOM     12  H   UNL     1       6.184   4.722  19.771  0.00  0.00    +0.000 HD
ENDBRANCH   4  11
BRANCH   7  13
ATOM     13  O   UNL     1       5.297   4.164  13.732  0.00  0.00    +0.000 OA
ATOM     14  C   UNL     1       6.316   3.632  12.894  0.00  0.00    +0.000 C 
ENDBRANCH   7  13
ENDBRANCH   1   9
BRANCH   1  15
ATOM     15  C   UNL     1       3.181   4.733  19.442  0.00  0.00    +0.000 A 
ATOM     16  C   UNL     1       3.363   6.026  18.942  0.00  0.00    +0.000 A 
ATOM     17  C   UNL     1       2.580   7.078  19.428  0.00  0.00    +0.000 A 
ATOM     18  C   UNL     1       1.628   6.861  20.424  0.00  0.00    +0.000 A 
ATOM     19  C   UNL     1       1.462   5.582  20.953  0.00  0.00    +0.000 A 
ATOM     20  C   UNL     1       2.238   4.521  20.455  0.00  0.00    +0.000 A 
BRANCH  20  21
ATOM     21  N   UNL     1       1.993   3.215  21.044  0.00  0.00    +0.000 N 
ATOM     22  O   UNL     1       1.225   2.456  20.448  0.00  0.00    +0.000 OA
ATOM     23  O   UNL     1       2.664   2.922  22.043  0.00  0.00    +0.000 OA
ENDBRANCH  20  21
ENDBRANCH   1  15
TORSDOF 5
ENDMDL
MODEL 2
REMARK VINA RESULT:      -7.1      2.063      5.740
REMARK  Name = 
REMARK  7 active torsions:
REMARK  status: ('A' for Active; 'I' for Inactive)
REMARK    1  A    between atoms: C_1  and  N_2
REMARK    2  A    between atoms: N_2  and  C_3
REMARK    3  A    between atoms: C_6  and  O_7
REMARK    4  A    between atoms: O_7  and  C_8
REMARK    5  A    between atoms: C_10  and  S_11
REMARK    6  A    between atoms: S_11  and  C_14
REMARK    7  A    between atoms: C_19  and  N_20
REMARK                            x       y       z     vdW  Elec       q    Type
REMARK                         _______ _______ _______ _____ _____    ______ ____
ROOT
ATOM      1  S   UNL     1       4.451   3.800  18.266  0.00  0.00    +0.000 S 
ATOM      2  O   UNL     1       5.429   3.514  19.311  0.00  0.00    +0.000 OA
ATOM      3  O   UNL     1       3.468   2.808  17.876  0.00  0.00    +0.000 OA
ENDROOT
BRANCH   1   9
ATOM      4  C   UNL     1       2.729   5.268  19.968  0.00  0.00    +0.000 A 
ATOM      5  C   UNL     1       2.050   6.473  20.231  0.00  0.00    +0.000 A 
ATOM      6  C   UNL     1       2.071   7.554  19.350  0.00  0.00    +0.000 A 
ATOM      7  C   UNL     1       2.811   7.493  18.180  0.00  0.00    +0.000 A 
ATOM      8  C   UNL     1       3.533   6.335  17.902  0.00  0.00    +0.000 A 
ATOM      9  C   UNL     1       3.514   5.238  18.795  0.00  0.00    +0.000 A 
BRANCH   4  11
ATOM     10  C   UNL     1       1.518   3.443  21.096  0.00  0.00    +0.000 C 
ATOM     11  N   UNL     1       2.735   4.239  20.930  0.00  0.00    +0.000 N 
ATOM     12  H   UNL     1       3.541   3.612  20.800  0.00  0.00    +0.000 HD
ENDBRANCH   4  11
BRANCH   7  13
ATOM     13  O   UNL     1       2.756   8.621  17.415  0.00  0.00    +0.000 OA
ATOM     14  C   UNL     1       1.852   9.636  17.831  0.00  0.00    +0.000 C 
ENDBRANCH   7  13
ENDBRANCH   1   9
BRANCH   1  15
ATOM     15  C   UNL     1       5.405   4.156  16.811  0.00  0.00    +0.000 A 
ATOM     16  C   UNL     1       4.884   3.839  15.553  0.00  0.00    +0.000 A 
ATOM     17  C   UNL     1       5.565   4.231  14.396  0.00  0.00    +0.000 A 
ATOM     18  C   UNL     1       6.775   4.920  14.478  0.00  0.00    +0.000 A 
ATOM     19  C   UNL     1       7.321   5.212  15.727  0.00  0.00    +0.000 A 
ATOM     20  C   UNL     1       6.629   4.832  16.890  0.00  0.00    +0.000 A 
BRANCH  20  21
ATOM     21  N   UNL     1       7.253   5.187  18.154  0.00  0.00    +0.000 N 
ATOM     22  O   UNL     1       8.139   4.442  18.581  0.00  0.00    +0.000 OA
ATOM     23  O   UNL     1       6.924   6.273  18.650  0.00  0.00    +0.000 OA
ENDBRANCH  20  21
ENDBRANCH   1  15
TORSDOF 5
ENDMDL
MODEL 3
REMARK VINA RESULT:      -7.0      2.189      3.243
REMARK  Name = 
REMARK  7 active torsions:
REMARK  status: ('A' for Active; 'I' for Inactive)
REMARK    1  A    between atoms: C_1  and  N_2
REMARK    2  A    between atoms: N_2  and  C_3
REMARK    3  A    between atoms: C_6  and  O_7
REMARK    4  A    between atoms: O_7  and  C_8
REMARK    5  A    between atoms: C_10  and  S_11
REMARK    6  A    between atoms: S_11  and  C_14
REMARK    7  A    between atoms: C_19  and  N_20
REMARK                            x       y       z     vdW  Elec       q    Type
REMARK                         _______ _______ _______ _____ _____    ______ ____
ROOT
ATOM      1  S   UNL     1       2.253   3.581  17.592  0.00  0.00    +0.000 S 
ATOM      2  O   UNL     1       1.051   4.332  17.241  0.00  0.00    +0.000 OA
ATOM      3  O   UNL     1       2.535   2.298  16.977  0.00  0.00    +0.000 OA
ENDROOT
BRANCH   1   9
ATOM      4  C   UNL     1       3.769   5.972  17.629  0.00  0.00    +0.000 A 
ATOM      5  C   UNL     1       4.937   6.654  17.236  0.00  0.00    +0.000 A 
ATOM      6  C   UNL     1       5.901   6.077  16.409  0.00  0.00    +0.000 A 
ATOM      7  C   UNL     1       5.759   4.771  15.970  0.00  0.00    +0.000 A 
ATOM      8  C   UNL     1       4.640   4.045  16.371  0.00  0.00    +0.000 A 
ATOM      9  C   UNL     1       3.663   4.628  17.211  0.00  0.00    +0.000 A 
BRANCH   4  11
ATOM     10  C   UNL     1       2.478   7.965  18.283  0.00  0.00    +0.000 C 
ATOM     11  N   UNL     1       2.870   6.577  18.528  0.00  0.00    +0.000 N 
ATOM     12  H   UNL     1       2.027   6.000  18.657  0.00  0.00    +0.000 HD
ENDBRANCH   4  11
BRANCH   7  13
ATOM     13  O   UNL     1       6.777   4.326  15.178  0.00  0.00    +0.000 OA
ATOM     14  C   UNL     1       6.452   4.008  13.831  0.00  0.00    +0.000 C 
ENDBRANCH   7  13
ENDBRANCH   1   9
BRANCH   1  15
ATOM     15  C   UNL     1       2.131   3.281  19.338  0.00  0.00    +0.000 A 
ATOM     16  C   UNL     1       0.930   3.555  20.000  0.00  0.00    +0.000 A 
ATOM     17  C   UNL     1       0.779   3.203  21.345  0.00  0.00    +0.000 A 
ATOM     18  C   UNL     1       1.821   2.598  22.047  0.00  0.00    +0.000 A 
ATOM     19  C   UNL     1       3.034   2.351  21.407  0.00  0.00    +0.000 A 
ATOM     20  C   UNL     1       3.182   2.690  20.051  0.00  0.00    +0.000 A 
BRANCH  20  21
ATOM     21  N   UNL     1       4.469   2.386  19.449  0.00  0.00    +0.000 N 
ATOM     22  O   UNL     1       5.359   3.234  19.548  0.00  0.00    +0.000 OA
ATOM     23  O   UNL     1       4.608   1.248  18.979  0.00  0.00    +0.000 OA
ENDBRANCH  20  21
ENDBRANCH   1  15
TORSDOF 5
ENDMDL
MODEL 4
REMARK VINA RESULT:      -6.9      2.375      3.785
REMARK  Name = 
REMARK  7 active torsions:
REMARK  status: ('A' for Active; 'I' for Inactive)
REMARK    1  A    between atoms: C_1  and  N_2
REMARK    2  A    between atoms: N_2  and  C_3
REMARK    3  A    between atoms: C_6  and  O_7
REMARK    4  A    between atoms: O_7  and  C_8
REMARK    5  A    between atoms: C_10  and  S_11
REMARK    6  A    between atoms: S_11  and  C_14
REMARK    7  A    between atoms: C_19  and  N_20
REMARK                            x       y       z     vdW  Elec       q    Type
REMARK                         _______ _______ _______ _____ _____    ______ ____
ROOT
ATOM      1  S   UNL     1       3.199   3.073  17.483  0.00  0.00    +0.000 S 
ATOM      2  O   UNL     1       2.046   2.988  16.592  0.00  0.00    +0.000 OA
ATOM      3  O   UNL     1       4.236   2.061  17.455  0.00  0.00    +0.000 OA
ENDROOT
BRANCH   1   9
ATOM      4  C   UNL     1       5.266   4.722  16.469  0.00  0.00    +0.000 A 
ATOM      5  C   UNL     1       5.779   6.021  16.286  0.00  0.00    +0.000 A 
ATOM      6  C   UNL     1       5.152   7.155  16.803  0.00  0.00    +0.000 A 
ATOM      7  C   UNL     1       3.956   7.043  17.494  0.00  0.00    +0.000 A 
ATOM      8  C   UNL     1       3.392   5.782  17.660  0.00  0.00    +0.000 A 
ATOM      9  C   UNL     1       4.025   4.631  17.135  0.00  0.00    +0.000 A 
BRANCH   4  11
ATOM     10  C   UNL     1       6.282   3.742  14.451  0.00  0.00    +0.000 C 
ATOM     11  N   UNL     1       5.900   3.623  15.858  0.00  0.00    +0.000 N 
ATOM     12  H   UNL     1       6.710   3.307  16.409  0.00  0.00    +0.000 HD
ENDBRANCH   4  11
BRANCH   7  13
ATOM     13  O   UNL     1       3.445   8.229  17.935  0.00  0.00    +0.000 OA
ATOM     14  C   UNL     1       2.121   8.205  18.454  0.00  0.00    +0.000 C 
ENDBRANCH   7  13
ENDBRANCH   1   9
BRANCH   1  15
ATOM     15  C   UNL     1       2.529   3.057  19.127  0.00  0.00    +0.000 A 
ATOM     16  C   UNL     1       1.153   3.228  19.310  0.00  0.00    +0.000 A 
ATOM     17  C   UNL     1       0.596   3.088  20.585  0.00  0.00    +0.000 A 
ATOM     18  C   UNL     1       1.398   2.798  21.688  0.00  0.00    +0.000 A 
ATOM     19  C   UNL     1       2.775   2.659  21.523  0.00  0.00    +0.000 A 
ATOM     20  C   UNL     1       3.334   2.785  20.239  0.00  0.00    +0.000 A 
BRANCH  20  21
ATOM     21  N   UNL     1       4.774   2.608  20.146  0.00  0.00    +0.000 N 
ATOM     22  O   UNL     1       5.453   3.600  19.867  0.00  0.00    +0.000 OA
ATOM     23  O   UNL     1       5.219   1.497  20.464  0.00  0.00    +0.000 OA
ENDBRANCH  20  21
ENDBRANCH   1  15
TORSDOF 5
ENDMDL
MODEL 5
REMARK VINA RESULT:      -6.8      2.211      3.189
REMARK  Name = 
REMARK  7 active torsions:
REMARK  status: ('A' for Active; 'I' for Inactive)
REMARK    1  A    between atoms: C_1  and  N_2
REMARK    2  A    between atoms: N_2  and  C_3
REMARK    3  A    between atoms: C_6  and  O_7
REMARK    4  A    between atoms: O_7  and  C_8
REMARK    5  A    between atoms: C_10  and  S_11
REMARK    6  A    between atoms: S_11  and  C_14
REMARK    7  A    between atoms: C_19  and  N_20
REMARK                            x       y       z     vdW  Elec       q    Type
REMARK                         _______ _______ _______ _____ _____    ______ ____
ROOT
ATOM      1  S   UNL     1       3.070   3.145  17.498  0.00  0.00    +0.000 S 
ATOM      2  O   UNL     1       1.875   3.262  16.667  0.00  0.00    +0.000 OA
ATOM      3  O   UNL     1       3.973   2.021  17.348  0.00  0.00    +0.000 OA
ENDROOT
BRANCH   1   9
ATOM      4  C   UNL     1       3.640   5.918  17.553  0.00  0.00    +0.000 A 
ATOM      5  C   UNL     1       4.536   6.961  17.250  0.00  0.00    +0.000 A 
ATOM      6  C   UNL     1       5.737   6.746  16.573  0.00  0.00    +0.000 A 
ATOM      7  C   UNL     1       6.115   5.465  16.204  0.00  0.00    +0.000 A 
ATOM      8  C   UNL     1       5.279   4.399  16.523  0.00  0.00    +0.000 A 
ATOM      9  C   UNL     1       4.062   4.615  17.211  0.00  0.00    +0.000 A 
BRANCH   4  11
ATOM     10  C   UNL     1       2.484   7.349  19.191  0.00  0.00    +0.000 C 
ATOM     11  N   UNL     1       2.480   6.184  18.307  0.00  0.00    +0.000 N 
ATOM     12  H   UNL     1       1.644   6.211  17.707  0.00  0.00    +0.000 HD
ENDBRANCH   4  11
BRANCH   7  13
ATOM     13  O   UNL     1       7.316   5.393  15.560  0.00  0.00    +0.000 OA
ATOM     14  C   UNL     1       7.293   4.971  14.203  0.00  0.00    +0.000 C 
ENDBRANCH   7  13
ENDBRANCH   1   9
BRANCH   1  15
ATOM     15  C   UNL     1       2.477   3.089  19.171  0.00  0.00    +0.000 A 
ATOM     16  C   UNL     1       1.116   3.282  19.425  0.00  0.00    +0.000 A 
ATOM     17  C   UNL     1       0.617   3.112  20.721  0.00  0.00    +0.000 A 
ATOM     18  C   UNL     1       1.463   2.770  21.774  0.00  0.00    +0.000 A 
ATOM     19  C   UNL     1       2.828   2.609  21.539  0.00  0.00    +0.000 A 
ATOM     20  C   UNL     1       3.328   2.764  20.235  0.00  0.00    +0.000 A 
BRANCH  20  21
ATOM     21  N   UNL     1       4.758   2.562  20.067  0.00  0.00    +0.000 N 
ATOM     22  O   UNL     1       5.177   1.402  20.103  0.00  0.00    +0.000 OA
ATOM     23  O   UNL     1       5.432   3.562  19.789  0.00  0.00    +0.000 OA
ENDBRANCH  20  21
ENDBRANCH   1  15
TORSDOF 5
ENDMDL
MODEL 6
REMARK VINA RESULT:      -6.8      1.794      5.629
REMARK  Name = 
REMARK  7 active torsions:
REMARK  status: ('A' for Active; 'I' for Inactive)
REMARK    1  A    between atoms: C_1  and  N_2
REMARK    2  A    between atoms: N_2  and  C_3
REMARK    3  A    between atoms: C_6  and  O_7
REMARK    4  A    between atoms: O_7  and  C_8
REMARK    5  A    between atoms: C_10  and  S_11
REMARK    6  A    between atoms: S_11  and  C_14
REMARK    7  A    between atoms: C_19  and  N_20
REMARK                            x       y       z     vdW  Elec       q    Type
REMARK                         _______ _______ _______ _____ _____    ______ ____
ROOT
ATOM      1  S   UNL     1       3.181   3.529  17.524  0.00  0.00    +0.000 S 
ATOM      2  O   UNL     1       3.375   2.285  18.265  0.00  0.00    +0.000 OA
ATOM      3  O   UNL     1       2.228   3.604  16.434  0.00  0.00    +0.000 OA
ENDROOT
BRANCH   1   9
ATOM      4  C   UNL     1       2.299   4.484  20.039  0.00  0.00    +0.000 A 
ATOM      5  C   UNL     1       1.915   5.582  20.834  0.00  0.00    +0.000 A 
ATOM      6  C   UNL     1       1.820   6.878  20.328  0.00  0.00    +0.000 A 
ATOM      7  C   UNL     1       2.146   7.143  19.008  0.00  0.00    +0.000 A 
ATOM      8  C   UNL     1       2.572   6.094  18.198  0.00  0.00    +0.000 A 
ATOM      9  C   UNL     1       2.671   4.779  18.710  0.00  0.00    +0.000 A 
BRANCH   4  11
ATOM     10  C   UNL     1       1.395   2.729  21.512  0.00  0.00    +0.000 C 
ATOM     11  N   UNL     1       2.452   3.212  20.623  0.00  0.00    +0.000 N 
ATOM     12  H   UNL     1       2.656   2.498  19.911  0.00  0.00    +0.000 HD
ENDBRANCH   4  11
BRANCH   7  13
ATOM     13  O   UNL     1       2.021   8.453  18.645  0.00  0.00    +0.000 OA
ATOM     14  C   UNL     1       1.221   9.278  19.482  0.00  0.00    +0.000 C 
ENDBRANCH   7  13
ENDBRANCH   1   9
BRANCH   1  15
ATOM     15  C   UNL     1       4.768   3.916  16.828  0.00  0.00    +0.000 A 
ATOM     16  C   UNL     1       4.942   3.865  15.441  0.00  0.00    +0.000 A 
ATOM     17  C   UNL     1       6.146   4.292  14.873  0.00  0.00    +0.000 A 
ATOM     18  C   UNL     1       7.191   4.753  15.672  0.00  0.00    +0.000 A 
ATOM     19  C   UNL     1       7.042   4.777  17.058  0.00  0.00    +0.000 A 
ATOM     20  C   UNL     1       5.826   4.362  17.630  0.00  0.00    +0.000 A 
BRANCH  20  21
ATOM     21  N   UNL     1       5.741   4.434  19.079  0.00  0.00    +0.000 N 
ATOM     22  O   UNL     1       5.592   3.374  19.694  0.00  0.00    +0.000 OA
ATOM     23  O   UNL     1       5.937   5.543  19.593  0.00  0.00    +0.000 OA
ENDBRANCH  20  21
ENDBRANCH   1  15
TORSDOF 5
ENDMDL
MODEL 7
REMARK VINA RESULT:      -6.7      2.666      5.520
REMARK  Name = 
REMARK  7 active torsions:
REMARK  status: ('A' for Active; 'I' for Inactive)
REMARK    1  A    between atoms: C_1  and  N_2
REMARK    2  A    between atoms: N_2  and  C_3
REMARK    3  A    between atoms: C_6  and  O_7
REMARK    4  A    between atoms: O_7  and  C_8
REMARK    5  A    between atoms: C_10  and  S_11
REMARK    6  A    between atoms: S_11  and  C_14
REMARK    7  A    between atoms: C_19  and  N_20
REMARK                            x       y       z     vdW  Elec       q    Type
REMARK                         _______ _______ _______ _____ _____    ______ ____
ROOT
ATOM      1  S   UNL     1       5.580   5.978  16.069  0.00  0.00    +0.000 S 
ATOM      2  O   UNL     1       6.247   4.771  15.590  0.00  0.00    +0.000 OA
ATOM      3  O   UNL     1       5.066   6.963  15.138  0.00  0.00    +0.000 OA
ENDROOT
BRANCH   1   9
ATOM      4  C   UNL     1       3.351   6.342  17.776  0.00  0.00    +0.000 A 
ATOM      5  C   UNL     1       2.294   5.762  18.505  0.00  0.00    +0.000 A 
ATOM      6  C   UNL     1       2.109   4.382  18.587  0.00  0.00    +0.000 A 
ATOM      7  C   UNL     1       2.952   3.518  17.907  0.00  0.00    +0.000 A 
ATOM      8  C   UNL     1       3.983   4.052  17.139  0.00  0.00    +0.000 A 
ATOM      9  C   UNL     1       4.172   5.451  17.053  0.00  0.00    +0.000 A 
BRANCH   4  11
ATOM     10  C   UNL     1       2.260   8.540  17.997  0.00  0.00    +0.000 C 
ATOM     11  N   UNL     1       3.442   7.743  17.665  0.00  0.00    +0.000 N 
ATOM     12  H   UNL     1       4.256   8.106  18.180  0.00  0.00    +0.000 HD
ENDBRANCH   4  11
BRANCH   7  13
ATOM     13  O   UNL     1       2.653   2.195  18.063  0.00  0.00    +0.000 OA
ATOM     14  C   UNL     1       1.657   1.871  19.025  0.00  0.00    +0.000 C 
ENDBRANCH   7  13
ENDBRANCH   1   9
BRANCH   1  15
ATOM     15  C   UNL     1       6.783   6.817  17.070  0.00  0.00    +0.000 A 
ATOM     16  C   UNL     1       6.939   8.201  16.942  0.00  0.00    +0.000 A 
ATOM     17  C   UNL     1       7.788   8.891  17.813  0.00  0.00    +0.000 A 
ATOM     18  C   UNL     1       8.502   8.214  18.802  0.00  0.00    +0.000 A 
ATOM     19  C   UNL     1       8.380   6.830  18.917  0.00  0.00    +0.000 A 
ATOM     20  C   UNL     1       7.515   6.138  18.052  0.00  0.00    +0.000 A 
BRANCH  20  21
ATOM     21  N   UNL     1       7.428   4.700  18.247  0.00  0.00    +0.000 N 
ATOM     22  O   UNL     1       8.310   4.002  17.741  0.00  0.00    +0.000 OA
ATOM     23  O   UNL     1       6.533   4.295  19.002  0.00  0.00    +0.000 OA
ENDBRANCH  20  21
ENDBRANCH   1  15
TORSDOF 5
ENDMDL
MODEL 8
REMARK VINA RESULT:      -6.7      1.949      5.466
REMARK  Name = 
REMARK  7 active torsions:
REMARK  status: ('A' for Active; 'I' for Inactive)
REMARK    1  A    between atoms: C_1  and  N_2
REMARK    2  A    between atoms: N_2  and  C_3
REMARK    3  A    between atoms: C_6  and  O_7
REMARK    4  A    between atoms: O_7  and  C_8
REMARK    5  A    between atoms: C_10  and  S_11
REMARK    6  A    between atoms: S_11  and  C_14
REMARK    7  A    between atoms: C_19  and  N_20
REMARK                            x       y       z     vdW  Elec       q    Type
REMARK                         _______ _______ _______ _____ _____    ______ ____
ROOT
ATOM      1  S   UNL     1       5.315   4.368  19.291  0.00  0.00    +0.000 S 
ATOM      2  O   UNL     1       6.372   5.217  19.833  0.00  0.00    +0.000 OA
ATOM      3  O   UNL     1       5.217   2.971  19.666  0.00  0.00    +0.000 OA
ENDROOT
BRANCH   1   9
ATOM      4  C   UNL     1       2.753   4.435  20.494  0.00  0.00    +0.000 A 
ATOM      5  C   UNL     1       1.577   5.162  20.765  0.00  0.00    +0.000 A 
ATOM      6  C   UNL     1       1.356   6.446  20.264  0.00  0.00    +0.000 A 
ATOM      7  C   UNL     1       2.325   7.078  19.502  0.00  0.00    +0.000 A 
ATOM      8  C   UNL     1       3.520   6.413  19.247  0.00  0.00    +0.000 A 
ATOM      9  C   UNL     1       3.747   5.112  19.755  0.00  0.00    +0.000 A 
BRANCH   4  11
ATOM     10  C   UNL     1       1.793   2.487  21.656  0.00  0.00    +0.000 C 
ATOM     11  N   UNL     1       2.954   3.175  21.090  0.00  0.00    +0.000 N 
ATOM     12  H   UNL     1       3.455   2.539  20.455  0.00  0.00    +0.000 HD
ENDBRANCH   4  11
BRANCH   7  13
ATOM     13  O   UNL     1       1.987   8.334  19.086  0.00  0.00    +0.000 OA
ATOM     14  C   UNL     1       2.281   8.664  17.735  0.00  0.00    +0.000 C 
ENDBRANCH   7  13
ENDBRANCH   1   9
BRANCH   1  15
ATOM     15  C   UNL     1       5.542   4.397  17.530  0.00  0.00    +0.000 A 
ATOM     16  C   UNL     1       6.716   4.938  16.997  0.00  0.00    +0.000 A 
ATOM     17  C   UNL     1       6.964   4.850  15.623  0.00  0.00    +0.000 A 
ATOM     18  C   UNL     1       6.043   4.245  14.768  0.00  0.00    +0.000 A 
ATOM     19  C   UNL     1       4.854   3.734  15.283  0.00  0.00    +0.000 A 
ATOM     20  C   UNL     1       4.611   3.808  16.666  0.00  0.00    +0.000 A 
BRANCH  20  21
ATOM     21  N   UNL     1       3.357   3.236  17.129  0.00  0.00    +0.000 N 
ATOM     22  O   UNL     1       2.330   3.896  16.950  0.00  0.00    +0.000 OA
ATOM     23  O   UNL     1       3.403   2.079  17.568  0.00  0.00    +0.000 OA
ENDBRANCH  20  21
ENDBRANCH   1  15
TORSDOF 5
ENDMDL
MODEL 9
REMARK VINA RESULT:      -6.6      1.062      1.181
REMARK  Name = 
REMARK  7 active torsions:
REMARK  status: ('A' for Active; 'I' for Inactive)
REMARK    1  A    between atoms: C_1  and  N_2
REMARK    2  A    between atoms: N_2  and  C_3
REMARK    3  A    between atoms: C_6  and  O_7
REMARK    4  A    between atoms: O_7  and  C_8
REMARK    5  A    between atoms: C_10  and  S_11
REMARK    6  A    between atoms: S_11  and  C_14
REMARK    7  A    between atoms: C_19  and  N_20
REMARK                            x       y       z     vdW  Elec       q    Type
REMARK                         _______ _______ _______ _____ _____    ______ ____
ROOT
ATOM      1  S   UNL     1       3.633   4.065  18.001  0.00  0.00    +0.000 S 
ATOM      2  O   UNL     1       2.594   3.544  17.118  0.00  0.00    +0.000 OA
ATOM      3  O   UNL     1       4.025   3.344  19.196  0.00  0.00    +0.000 OA
ENDROOT
BRANCH   1   9
ATOM      4  C   UNL     1       6.390   4.548  17.570  0.00  0.00    +0.000 A 
ATOM      5  C   UNL     1       7.457   4.655  16.658  0.00  0.00    +0.000 A 
ATOM      6  C   UNL     1       7.278   4.549  15.278  0.00  0.00    +0.000 A 
ATOM      7  C   UNL     1       6.024   4.288  14.750  0.00  0.00    +0.000 A 
ATOM      8  C   UNL     1       4.949   4.131  15.620  0.00  0.00    +0.000 A 
ATOM      9  C   UNL     1       5.128   4.237  17.019  0.00  0.00    +0.000 A 
BRANCH   4  11
ATOM     10  C   UNL     1       7.433   5.699  19.482  0.00  0.00    +0.000 C 
ATOM     11  N   UNL     1       6.642   4.586  18.955  0.00  0.00    +0.000 N 
ATOM     12  H   UNL     1       5.770   4.499  19.495  0.00  0.00    +0.000 HD
ENDBRANCH   4  11
BRANCH   7  13
ATOM     13  O   UNL     1       5.991   4.197  13.389  0.00  0.00    +0.000 OA
ATOM     14  C   UNL     1       4.943   3.421  12.822  0.00  0.00    +0.000 C 
ENDBRANCH   7  13
ENDBRANCH   1   9
BRANCH   1  15
ATOM     15  C   UNL     1       3.040   5.648  18.545  0.00  0.00    +0.000 A 
ATOM     16  C   UNL     1       3.390   6.797  17.829  0.00  0.00    +0.000 A 
ATOM     17  C   UNL     1       2.825   8.030  18.170  0.00  0.00    +0.000 A 
ATOM     18  C   UNL     1       1.928   8.138  19.232  0.00  0.00    +0.000 A 
ATOM     19  C   UNL     1       1.598   7.005  19.975  0.00  0.00    +0.000 A 
ATOM     20  C   UNL     1       2.153   5.762  19.624  0.00  0.00    +0.000 A 
BRANCH  20  21
ATOM     21  N   UNL     1       1.747   4.626  20.433  0.00  0.00    +0.000 N 
ATOM     22  O   UNL     1       0.913   3.853  19.953  0.00  0.00    +0.000 OA
ATOM     23  O   UNL     1       2.352   4.459  21.501  0.00  0.00    +0.000 OA
ENDBRANCH  20  21
ENDBRANCH   1  15
TORSDOF 5
ENDMDL
