MODEL 1
REMARK VINA RESULT:      -7.2      0.000      0.000
REMARK  Name = 
REMARK  7 active torsions:
REMARK  status: ('A' for Active; 'I' for Inactive)
REMARK    1  A    between atoms: C_1  and  O_2
REMARK    2  A    between atoms: O_2  and  C_3
REMARK    3  A    between atoms: C_6  and  C_7
REMARK    4  A    between atoms: C_7  and  C_9
REMARK    5  A    between atoms: C_9  and  N_10
REMARK    6  A    between atoms: C_11  and  C_12
REMARK    7  A    between atoms: C_16  and  C_17
REMARK                            x       y       z     vdW  Elec       q    Type
REMARK                         _______ _______ _______ _____ _____    ______ ____
ROOT
ATOM      1  C   UNL     1       4.760   4.640  15.896  0.00  0.00    +0.000 C 
ENDROOT
BRANCH   1   2
ATOM      2  N   UNL     1       4.002   4.425  17.186  0.00  0.00    +0.000 N 
ATOM      3  C   UNL     1       3.460   5.383  17.898  0.00  0.00    +0.000 C 
ATOM      4  C   UNL     1       3.555   6.835  17.478  0.00  0.00    +0.000 C 
ATOM      5  C   UNL     1       2.767   5.105  19.126  0.00  0.00    +0.000 A 
ATOM      6  C   UNL     1       2.122   5.952  20.014  0.00  0.00    +0.000 A 
ATOM      7  C   UNL     1       1.590   5.155  21.055  0.00  0.00    +0.000 A 
ATOM      8  C   UNL     1       1.913   3.842  20.787  0.00  0.00    +0.000 A 
ATOM      9  C   UNL     1       1.569   2.610  21.549  0.00  0.00    +0.000 C 
ATOM     10  N   UNL     1       2.640   3.839  19.626  0.00  0.00    +0.000 N 
ATOM     11  C   UNL     1       3.196   2.691  18.954  0.00  0.00    +0.000 C 
ATOM     12  C   UNL     1       4.010   2.988  17.700  0.00  0.00    +0.000 C 
ENDBRANCH   1   2
BRANCH   1  13
ATOM     13  C   UNL     1       6.259   4.556  16.113  0.00  0.00    +0.000 C 
ATOM     14  O   UNL     1       6.936   3.724  15.532  0.00  0.00    +0.000 OA
BRANCH  13  18
ATOM     15  C   UNL     1       8.208   7.537  18.497  0.00  0.00    +0.000 A 
ATOM     16  C   UNL     1       7.626   7.863  17.274  0.00  0.00    +0.000 A 
ATOM     17  C   UNL     1       6.950   6.901  16.525  0.00  0.00    +0.000 A 
ATOM     18  C   UNL     1       6.889   5.588  16.992  0.00  0.00    +0.000 A 
ATOM     19  C   UNL     1       7.417   5.273  18.249  0.00  0.00    +0.000 A 
ATOM     20  C   UNL     1       8.078   6.248  19.001  0.00  0.00    +0.000 A 
BRANCH  15  22
ATOM     21  C   UNL     1       8.768   9.835  18.478  0.00  0.00    +0.000 C 
ATOM     22  O   UNL     1       8.866   8.562  19.103  0.00  0.00    +0.000 OA
ENDBRANCH  15  22
ENDBRANCH  13  18
ENDBRANCH   1  13
TORSDOF 4
ENDMDL
MODEL 2
REMARK VINA RESULT:      -6.9      2.291      4.500
REMARK  Name = 
REMARK  7 active torsions:
REMARK  status: ('A' for Active; 'I' for Inactive)
REMARK    1  A    between atoms: C_1  and  O_2
REMARK    2  A    between atoms: O_2  and  C_3
REMARK    3  A    between atoms: C_6  and  C_7
REMARK    4  A    between atoms: C_7  and  C_9
REMARK    5  A    between atoms: C_9  and  N_10
REMARK    6  A    between atoms: C_11  and  C_12
REMARK    7  A    between atoms: C_16  and  C_17
REMARK                            x       y       z     vdW  Elec       q    Type
REMARK                         _______ _______ _______ _____ _____    ______ ____
ROOT
ATOM      1  C   UNL     1       6.228   6.207  16.834  0.00  0.00    +0.000 C 
ENDROOT
BRANCH   1   2
ATOM      2  N   UNL     1       5.250   5.630  17.831  0.00  0.00    +0.000 N 
ATOM      3  C   UNL     1       4.132   6.207  18.196  0.00  0.00    +0.000 C 
ATOM      4  C   UNL     1       3.712   7.550  17.635  0.00  0.00    +0.000 C 
ATOM      5  C   UNL     1       3.256   5.606  19.164  0.00  0.00    +0.000 A 
ATOM      6  C   UNL     1       2.042   6.032  19.676  0.00  0.00    +0.000 A 
ATOM      7  C   UNL     1       1.595   5.051  20.592  0.00  0.00    +0.000 A 
ATOM      8  C   UNL     1       2.536   4.044  20.622  0.00  0.00    +0.000 A 
ATOM      9  C   UNL     1       2.534   2.771  21.395  0.00  0.00    +0.000 C 
ATOM     10  N   UNL     1       3.539   4.411  19.766  0.00  0.00    +0.000 N 
ATOM     11  C   UNL     1       4.741   3.669  19.469  0.00  0.00    +0.000 C 
ATOM     12  C   UNL     1       5.716   4.345  18.511  0.00  0.00    +0.000 C 
ENDBRANCH   1   2
BRANCH   1  13
ATOM     13  C   UNL     1       7.054   5.120  16.173  0.00  0.00    +0.000 C 
ATOM     14  O   UNL     1       8.006   4.615  16.744  0.00  0.00    +0.000 OA
BRANCH  13  18
ATOM     15  C   UNL     1       5.757   3.520  12.414  0.00  0.00    +0.000 A 
ATOM     16  C   UNL     1       4.923   3.498  13.530  0.00  0.00    +0.000 A 
ATOM     17  C   UNL     1       5.330   4.064  14.738  0.00  0.00    +0.000 A 
ATOM     18  C   UNL     1       6.603   4.626  14.836  0.00  0.00    +0.000 A 
ATOM     19  C   UNL     1       7.416   4.706  13.700  0.00  0.00    +0.000 A 
ATOM     20  C   UNL     1       6.993   4.151  12.489  0.00  0.00    +0.000 A 
BRANCH  15  22
ATOM     21  C   UNL     1       3.886   3.167  11.010  0.00  0.00    +0.000 C 
ATOM     22  O   UNL     1       5.250   2.900  11.314  0.00  0.00    +0.000 OA
ENDBRANCH  15  22
ENDBRANCH  13  18
ENDBRANCH   1  13
TORSDOF 4
ENDMDL
MODEL 3
REMARK VINA RESULT:      -6.8      2.478      4.562
REMARK  Name = 
REMARK  7 active torsions:
REMARK  status: ('A' for Active; 'I' for Inactive)
REMARK    1  A    between atoms: C_1  and  O_2
REMARK    2  A    between atoms: O_2  and  C_3
REMARK    3  A    between atoms: C_6  and  C_7
REMARK    4  A    between atoms: C_7  and  C_9
REMARK    5  A    between atoms: C_9  and  N_10
REMARK    6  A    between atoms: C_11  and  C_12
REMARK    7  A    between atoms: C_16  and  C_17
REMARK                            x       y       z     vdW  Elec       q    Type
REMARK                         _______ _______ _______ _____ _____    ______ ____
ROOT
ATOM      1  C   UNL     1       3.544   4.249  18.493  0.00  0.00    +0.000 C 
ENDROOT
BRANCH   1   2
ATOM      2  N   UNL     1       2.962   5.607  18.806  0.00  0.00    +0.000 N 
ATOM      3  C   UNL     1       2.336   5.911  19.917  0.00  0.00    +0.000 C 
ATOM      4  C   UNL     1       2.131   4.889  21.016  0.00  0.00    +0.000 C 
ATOM      5  C   UNL     1       1.791   7.223  20.139  0.00  0.00    +0.000 A 
ATOM      6  C   UNL     1       1.113   7.750  21.226  0.00  0.00    +0.000 A 
ATOM      7  C   UNL     1       0.815   9.101  20.929  0.00  0.00    +0.000 A 
ATOM      8  C   UNL     1       1.316   9.377  19.675  0.00  0.00    +0.000 A 
ATOM      9  C   UNL     1       1.295  10.653  18.908  0.00  0.00    +0.000 C 
ATOM     10  N   UNL     1       1.884   8.221  19.210  0.00  0.00    +0.000 N 
ATOM     11  C   UNL     1       2.536   8.026  17.937  0.00  0.00    +0.000 C 
ATOM     12  C   UNL     1       3.035   6.613  17.660  0.00  0.00    +0.000 C 
ENDBRANCH   1   2
BRANCH   1  13
ATOM     13  C   UNL     1       5.058   4.300  18.410  0.00  0.00    +0.000 C 
ATOM     14  O   UNL     1       5.750   4.164  19.405  0.00  0.00    +0.000 OA
BRANCH  13  18
ATOM     15  C   UNL     1       6.817   4.868  14.543  0.00  0.00    +0.000 A 
ATOM     16  C   UNL     1       7.524   5.171  15.705  0.00  0.00    +0.000 A 
ATOM     17  C   UNL     1       6.966   4.938  16.962  0.00  0.00    +0.000 A 
ATOM     18  C   UNL     1       5.671   4.429  17.052  0.00  0.00    +0.000 A 
ATOM     19  C   UNL     1       4.985   4.065  15.889  0.00  0.00    +0.000 A 
ATOM     20  C   UNL     1       5.557   4.286  14.634  0.00  0.00    +0.000 A 
BRANCH  15  22
ATOM     21  C   UNL     1       7.221   4.327  12.276  0.00  0.00    +0.000 C 
ATOM     22  O   UNL     1       7.464   5.180  13.388  0.00  0.00    +0.000 OA
ENDBRANCH  15  22
ENDBRANCH  13  18
ENDBRANCH   1  13
TORSDOF 4
ENDMDL
MODEL 4
REMARK VINA RESULT:      -6.7      0.154      1.040
REMARK  Name = 
REMARK  7 active torsions:
REMARK  status: ('A' for Active; 'I' for Inactive)
REMARK    1  A    between atoms: C_1  and  O_2
REMARK    2  A    between atoms: O_2  and  C_3
REMARK    3  A    between atoms: C_6  and  C_7
REMARK    4  A    between atoms: C_7  and  C_9
REMARK    5  A    between atoms: C_9  and  N_10
REMARK    6  A    between atoms: C_11  and  C_12
REMARK    7  A    between atoms: C_16  and  C_17
REMARK                            x       y       z     vdW  Elec       q    Type
REMARK                         _______ _______ _______ _____ _____    ______ ____
ROOT
ATOM      1  C   UNL     1       4.716   4.646  15.904  0.00  0.00    +0.000 C 
ENDROOT
BRANCH   1   2
ATOM      2  N   UNL     1       3.960   4.448  17.197  0.00  0.00    +0.000 N 
ATOM      3  C   UNL     1       3.464   5.419  17.924  0.00  0.00    +0.000 C 
ATOM      4  C   UNL     1       3.615   6.871  17.520  0.00  0.00    +0.000 C 
ATOM      5  C   UNL     1       2.769   5.157  19.156  0.00  0.00    +0.000 A 
ATOM      6  C   UNL     1       2.168   6.019  20.058  0.00  0.00    +0.000 A 
ATOM      7  C   UNL     1       1.612   5.233  21.095  0.00  0.00    +0.000 A 
ATOM      8  C   UNL     1       1.878   3.911  20.809  0.00  0.00    +0.000 A 
ATOM      9  C   UNL     1       1.490   2.685  21.561  0.00  0.00    +0.000 C 
ATOM     10  N   UNL     1       2.595   3.891  19.643  0.00  0.00    +0.000 N 
ATOM     11  C   UNL     1       3.098   2.728  18.954  0.00  0.00    +0.000 C 
ATOM     12  C   UNL     1       3.913   3.006  17.695  0.00  0.00    +0.000 C 
ENDBRANCH   1   2
BRANCH   1  13
ATOM     13  C   UNL     1       6.209   4.466  16.101  0.00  0.00    +0.000 C 
ATOM     14  O   UNL     1       6.803   3.524  15.602  0.00  0.00    +0.000 OA
BRANCH  13  18
ATOM     15  C   UNL     1       8.167   7.518  18.386  0.00  0.00    +0.000 A 
ATOM     16  C   UNL     1       8.083   6.210  18.858  0.00  0.00    +0.000 A 
ATOM     17  C   UNL     1       7.489   5.209  18.089  0.00  0.00    +0.000 A 
ATOM     18  C   UNL     1       6.941   5.533  16.849  0.00  0.00    +0.000 A 
ATOM     19  C   UNL     1       7.081   6.832  16.345  0.00  0.00    +0.000 A 
ATOM     20  C   UNL     1       7.693   7.824  17.115  0.00  0.00    +0.000 A 
BRANCH  15  22
ATOM     21  C   UNL     1       8.888   9.735  18.789  0.00  0.00    +0.000 C 
ATOM     22  O   UNL     1       8.737   8.398  19.252  0.00  0.00    +0.000 OA
ENDBRANCH  15  22
ENDBRANCH  13  18
ENDBRANCH   1  13
TORSDOF 4
ENDMDL
MODEL 5
REMARK VINA RESULT:      -6.5      2.521      4.535
REMARK  Name = 
REMARK  7 active torsions:
REMARK  status: ('A' for Active; 'I' for Inactive)
REMARK    1  A    between atoms: C_1  and  O_2
REMARK    2  A    between atoms: O_2  and  C_3
REMARK    3  A    between atoms: C_6  and  C_7
REMARK    4  A    between atoms: C_7  and  C_9
REMARK    5  A    between atoms: C_9  and  N_10
REMARK    6  A    between atoms: C_11  and  C_12
REMARK    7  A    between atoms: C_16  and  C_17
REMARK                            x       y       z     vdW  Elec       q    Type
REMARK                         _______ _______ _______ _____ _____    ______ ____
ROOT
ATOM      1  C   UNL     1       3.555   4.388  18.537  0.00  0.00    +0.000 C 
ENDROOT
BRANCH   1   2
ATOM      2  N   UNL     1       2.953   5.739  18.842  0.00  0.00    +0.000 N 
ATOM      3  C   UNL     1       2.311   6.036  19.945  0.00  0.00    +0.000 C 
ATOM      4  C   UNL     1       2.106   5.013  21.043  0.00  0.00    +0.000 C 
ATOM      5  C   UNL     1       1.749   7.342  20.160  0.00  0.00    +0.000 A 
ATOM      6  C   UNL     1       1.052   7.862  21.239  0.00  0.00    +0.000 A 
ATOM      7  C   UNL     1       0.742   9.209  20.938  0.00  0.00    +0.000 A 
ATOM      8  C   UNL     1       1.253   9.490  19.689  0.00  0.00    +0.000 A 
ATOM      9  C   UNL     1       1.227  10.766  18.921  0.00  0.00    +0.000 C 
ATOM     10  N   UNL     1       1.840   8.341  19.231  0.00  0.00    +0.000 N 
ATOM     11  C   UNL     1       2.509   8.153  17.967  0.00  0.00    +0.000 C 
ATOM     12  C   UNL     1       3.028   6.745  17.696  0.00  0.00    +0.000 C 
ENDBRANCH   1   2
BRANCH   1  13
ATOM     13  C   UNL     1       5.066   4.466  18.421  0.00  0.00    +0.000 C 
ATOM     14  O   UNL     1       5.782   4.339  19.401  0.00  0.00    +0.000 OA
BRANCH  13  18
ATOM     15  C   UNL     1       6.736   4.683  14.480  0.00  0.00    +0.000 A 
ATOM     16  C   UNL     1       5.449   4.190  14.689  0.00  0.00    +0.000 A 
ATOM     17  C   UNL     1       4.891   4.167  15.967  0.00  0.00    +0.000 A 
ATOM     18  C   UNL     1       5.647   4.611  17.051  0.00  0.00    +0.000 A 
ATOM     19  C   UNL     1       6.914   5.164  16.836  0.00  0.00    +0.000 A 
ATOM     20  C   UNL     1       7.459   5.199  15.550  0.00  0.00    +0.000 A 
BRANCH  15  22
ATOM     21  C   UNL     1       8.187   5.530  12.815  0.00  0.00    +0.000 C 
ATOM     22  O   UNL     1       7.169   4.612  13.192  0.00  0.00    +0.000 OA
ENDBRANCH  15  22
ENDBRANCH  13  18
ENDBRANCH   1  13
TORSDOF 4
ENDMDL
MODEL 6
REMARK VINA RESULT:      -6.5      2.558      4.490
REMARK  Name = 
REMARK  7 active torsions:
REMARK  status: ('A' for Active; 'I' for Inactive)
REMARK    1  A    between atoms: C_1  and  O_2
REMARK    2  A    between atoms: O_2  and  C_3
REMARK    3  A    between atoms: C_6  and  C_7
REMARK    4  A    between atoms: C_7  and  C_9
REMARK    5  A    between atoms: C_9  and  N_10
REMARK    6  A    between atoms: C_11  and  C_12
REMARK    7  A    between atoms: C_16  and  C_17
REMARK                            x       y       z     vdW  Elec       q    Type
REMARK                         _______ _______ _______ _____ _____    ______ ____
ROOT
ATOM      1  C   UNL     1       4.008   4.344  18.891  0.00  0.00    +0.000 C 
ENDROOT
BRANCH   1   2
ATOM      2  N   UNL     1       3.293   5.666  19.042  0.00  0.00    +0.000 N 
ATOM      3  C   UNL     1       2.504   5.975  20.043  0.00  0.00    +0.000 C 
ATOM      4  C   UNL     1       2.229   4.997  21.167  0.00  0.00    +0.000 C 
ATOM      5  C   UNL     1       1.842   7.248  20.113  0.00  0.00    +0.000 A 
ATOM      6  C   UNL     1       0.989   7.775  21.069  0.00  0.00    +0.000 A 
ATOM      7  C   UNL     1       0.636   9.081  20.655  0.00  0.00    +0.000 A 
ATOM      8  C   UNL     1       1.278   9.332  19.462  0.00  0.00    +0.000 A 
ATOM      9  C   UNL     1       1.268  10.562  18.623  0.00  0.00    +0.000 C 
ATOM     10  N   UNL     1       1.985   8.203  19.145  0.00  0.00    +0.000 N 
ATOM     11  C   UNL     1       2.813   7.997  17.981  0.00  0.00    +0.000 C 
ATOM     12  C   UNL     1       3.445   6.615  17.856  0.00  0.00    +0.000 C 
ENDBRANCH   1   2
BRANCH   1  13
ATOM     13  C   UNL     1       3.898   3.812  17.474  0.00  0.00    +0.000 C 
ATOM     14  O   UNL     1       2.913   3.194  17.107  0.00  0.00    +0.000 OA
BRANCH  13  18
ATOM     15  C   UNL     1       7.053   4.975  14.817  0.00  0.00    +0.000 A 
ATOM     16  C   UNL     1       7.271   4.874  16.189  0.00  0.00    +0.000 A 
ATOM     17  C   UNL     1       6.255   4.447  17.045  0.00  0.00    +0.000 A 
ATOM     18  C   UNL     1       4.997   4.154  16.520  0.00  0.00    +0.000 A 
ATOM     19  C   UNL     1       4.794   4.194  15.135  0.00  0.00    +0.000 A 
ATOM     20  C   UNL     1       5.823   4.606  14.284  0.00  0.00    +0.000 A 
BRANCH  15  22
ATOM     21  C   UNL     1       8.020   5.348  12.690  0.00  0.00    +0.000 C 
ATOM     22  O   UNL     1       8.116   5.439  14.106  0.00  0.00    +0.000 OA
ENDBRANCH  15  22
ENDBRANCH  13  18
ENDBRANCH   1  13
TORSDOF 4
ENDMDL
MODEL 7
REMARK VINA RESULT:      -6.4      2.089      4.171
REMARK  Name = 
REMARK  7 active torsions:
REMARK  status: ('A' for Active; 'I' for Inactive)
REMARK    1  A    between atoms: C_1  and  O_2
REMARK    2  A    between atoms: O_2  and  C_3
REMARK    3  A    between atoms: C_6  and  C_7
REMARK    4  A    between atoms: C_7  and  C_9
REMARK    5  A    between atoms: C_9  and  N_10
REMARK    6  A    between atoms: C_11  and  C_12
REMARK    7  A    between atoms: C_16  and  C_17
REMARK                            x       y       z     vdW  Elec       q    Type
REMARK                         _______ _______ _______ _____ _____    ______ ____
ROOT
ATOM      1  C   UNL     1       5.775   6.715  17.246  0.00  0.00    +0.000 C 
ENDROOT
BRANCH   1   2
ATOM      2  N   UNL     1       4.863   5.938  18.168  0.00  0.00    +0.000 N 
ATOM      3  C   UNL     1       3.634   6.285  18.464  0.00  0.00    +0.000 C 
ATOM      4  C   UNL     1       3.004   7.538  17.892  0.00  0.00    +0.000 C 
ATOM      5  C   UNL     1       2.830   5.505  19.364  0.00  0.00    +0.000 A 
ATOM      6  C   UNL     1       1.526   5.681  19.798  0.00  0.00    +0.000 A 
ATOM      7  C   UNL     1       1.216   4.610  20.670  0.00  0.00    +0.000 A 
ATOM      8  C   UNL     1       2.328   3.799  20.750  0.00  0.00    +0.000 A 
ATOM      9  C   UNL     1       2.520   2.530  21.506  0.00  0.00    +0.000 C 
ATOM     10  N   UNL     1       3.296   4.370  19.968  0.00  0.00    +0.000 N 
ATOM     11  C   UNL     1       4.633   3.877  19.744  0.00  0.00    +0.000 C 
ATOM     12  C   UNL     1       5.520   4.748  18.862  0.00  0.00    +0.000 C 
ENDBRANCH   1   2
BRANCH   1  13
ATOM     13  C   UNL     1       6.876   5.835  16.684  0.00  0.00    +0.000 C 
ATOM     14  O   UNL     1       7.949   5.727  17.253  0.00  0.00    +0.000 OA
BRANCH  13  18
ATOM     15  C   UNL     1       5.937   3.712  13.082  0.00  0.00    +0.000 A 
ATOM     16  C   UNL     1       7.039   4.562  13.147  0.00  0.00    +0.000 A 
ATOM     17  C   UNL     1       7.370   5.213  14.336  0.00  0.00    +0.000 A 
ATOM     18  C   UNL     1       6.564   5.035  15.460  0.00  0.00    +0.000 A 
ATOM     19  C   UNL     1       5.495   4.133  15.414  0.00  0.00    +0.000 A 
ATOM     20  C   UNL     1       5.181   3.472  14.224  0.00  0.00    +0.000 A 
BRANCH  15  22
ATOM     21  C   UNL     1       4.365   3.203  11.389  0.00  0.00    +0.000 C 
ATOM     22  O   UNL     1       5.709   3.173  11.854  0.00  0.00    +0.000 OA
ENDBRANCH  15  22
ENDBRANCH  13  18
ENDBRANCH   1  13
TORSDOF 4
ENDMDL
MODEL 8
REMARK VINA RESULT:      -6.3      2.314      3.750
REMARK  Name = 
REMARK  7 active torsions:
REMARK  status: ('A' for Active; 'I' for Inactive)
REMARK    1  A    between atoms: C_1  and  O_2
REMARK    2  A    between atoms: O_2  and  C_3
REMARK    3  A    between atoms: C_6  and  C_7
REMARK    4  A    between atoms: C_7  and  C_9
REMARK    5  A    between atoms: C_9  and  N_10
REMARK    6  A    between atoms: C_11  and  C_12
REMARK    7  A    between atoms: C_16  and  C_17
REMARK                            x       y       z     vdW  Elec       q    Type
REMARK                         _______ _______ _______ _____ _____    ______ ____
ROOT
ATOM      1  C   UNL     1       2.900   3.807  18.511  0.00  0.00    +0.000 C 
ENDROOT
BRANCH   1   2
ATOM      2  N   UNL     1       2.499   5.223  18.852  0.00  0.00    +0.000 N 
ATOM      3  C   UNL     1       2.050   5.609  20.022  0.00  0.00    +0.000 C 
ATOM      4  C   UNL     1       1.885   4.633  21.168  0.00  0.00    +0.000 C 
ATOM      5  C   UNL     1       1.671   6.973  20.269  0.00  0.00    +0.000 A 
ATOM      6  C   UNL     1       1.190   7.586  21.415  0.00  0.00    +0.000 A 
ATOM      7  C   UNL     1       0.992   8.955  21.117  0.00  0.00    +0.000 A 
ATOM      8  C   UNL     1       1.356   9.156  19.803  0.00  0.00    +0.000 A 
ATOM      9  C   UNL     1       1.366  10.414  19.006  0.00  0.00    +0.000 C 
ATOM     10  N   UNL     1       1.744   7.940  19.306  0.00  0.00    +0.000 N 
ATOM     11  C   UNL     1       2.209   7.657  17.970  0.00  0.00    +0.000 C 
ATOM     12  C   UNL     1       2.526   6.195  17.675  0.00  0.00    +0.000 C 
ENDBRANCH   1   2
BRANCH   1  13
ATOM     13  C   UNL     1       4.356   3.546  18.847  0.00  0.00    +0.000 C 
ATOM     14  O   UNL     1       4.688   2.578  19.510  0.00  0.00    +0.000 OA
BRANCH  13  18
ATOM     15  C   UNL     1       7.176   6.341  17.232  0.00  0.00    +0.000 A 
ATOM     16  C   UNL     1       7.026   6.187  18.608  0.00  0.00    +0.000 A 
ATOM     17  C   UNL     1       6.143   5.241  19.130  0.00  0.00    +0.000 A 
ATOM     18  C   UNL     1       5.376   4.468  18.259  0.00  0.00    +0.000 A 
ATOM     19  C   UNL     1       5.572   4.576  16.878  0.00  0.00    +0.000 A 
ATOM     20  C   UNL     1       6.471   5.514  16.364  0.00  0.00    +0.000 A 
BRANCH  15  22
ATOM     21  C   UNL     1       8.002   8.522  17.626  0.00  0.00    +0.000 C 
ATOM     22  O   UNL     1       8.041   7.323  16.862  0.00  0.00    +0.000 OA
ENDBRANCH  15  22
ENDBRANCH  13  18
ENDBRANCH   1  13
TORSDOF 4
ENDMDL
MODEL 9
REMARK VINA RESULT:      -6.3      2.953      5.970
REMARK  Name = 
REMARK  7 active torsions:
REMARK  status: ('A' for Active; 'I' for Inactive)
REMARK    1  A    between atoms: C_1  and  O_2
REMARK    2  A    between atoms: O_2  and  C_3
REMARK    3  A    between atoms: C_6  and  C_7
REMARK    4  A    between atoms: C_7  and  C_9
REMARK    5  A    between atoms: C_9  and  N_10
REMARK    6  A    between atoms: C_11  and  C_12
REMARK    7  A    between atoms: C_16  and  C_17
REMARK                            x       y       z     vdW  Elec       q    Type
REMARK                         _______ _______ _______ _____ _____    ______ ____
ROOT
ATOM      1  C   UNL     1       3.737   4.023  19.869  0.00  0.00    +0.000 C 
ENDROOT
BRANCH   1   2
ATOM      2  N   UNL     1       4.406   4.080  18.515  0.00  0.00    +0.000 N 
ATOM      3  C   UNL     1       5.532   4.702  18.267  0.00  0.00    +0.000 C 
ATOM      4  C   UNL     1       6.281   5.449  19.352  0.00  0.00    +0.000 C 
ATOM      5  C   UNL     1       6.102   4.728  16.948  0.00  0.00    +0.000 A 
ATOM      6  C   UNL     1       7.269   5.309  16.476  0.00  0.00    +0.000 A 
ATOM      7  C   UNL     1       7.364   5.016  15.095  0.00  0.00    +0.000 A 
ATOM      8  C   UNL     1       6.263   4.263  14.748  0.00  0.00    +0.000 A 
ATOM      9  C   UNL     1       5.897   3.675  13.430  0.00  0.00    +0.000 C 
ATOM     10  N   UNL     1       5.506   4.119  15.879  0.00  0.00    +0.000 N 
ATOM     11  C   UNL     1       4.257   3.406  16.003  0.00  0.00    +0.000 C 
ATOM     12  C   UNL     1       3.602   3.452  17.379  0.00  0.00    +0.000 C 
ENDBRANCH   1   2
BRANCH   1  13
ATOM     13  C   UNL     1       2.326   4.580  19.814  0.00  0.00    +0.000 C 
ATOM     14  O   UNL     1       1.358   3.867  20.022  0.00  0.00    +0.000 OA
BRANCH  13  18
ATOM     15  C   UNL     1       1.688   8.773  19.201  0.00  0.00    +0.000 A 
ATOM     16  C   UNL     1       1.506   8.195  20.456  0.00  0.00    +0.000 A 
ATOM     17  C   UNL     1       1.762   6.840  20.662  0.00  0.00    +0.000 A 
ATOM     18  C   UNL     1       2.171   6.049  19.589  0.00  0.00    +0.000 A 
ATOM     19  C   UNL     1       2.416   6.641  18.344  0.00  0.00    +0.000 A 
ATOM     20  C   UNL     1       2.172   8.003  18.150  0.00  0.00    +0.000 A 
BRANCH  15  22
ATOM     21  C   UNL     1      -0.014  10.415  19.268  0.00  0.00    +0.000 C 
ATOM     22  O   UNL     1       1.365  10.093  19.133  0.00  0.00    +0.000 OA
ENDBRANCH  15  22
ENDBRANCH  13  18
ENDBRANCH   1  13
TORSDOF 4
ENDMDL
