MODEL 1
REMARK VINA RESULT:      -7.5      0.000      0.000
REMARK  Name = 
REMARK  6 active torsions:
REMARK  status: ('A' for Active; 'I' for Inactive)
REMARK    1  A    between atoms: C_1  and  C_2
REMARK    2  A    between atoms: C_2  and  C_3
REMARK    3  A    between atoms: C_5  and  C_6
REMARK    4  A    between atoms: C_6  and  C_7
REMARK    5  A    between atoms: N_10  and  C_11
REMARK    6  A    between atoms: C_11  and  C_12
REMARK                            x       y       z     vdW  Elec       q    Type
REMARK                         _______ _______ _______ _____ _____    ______ ____
ROOT
ATOM      1  C   UNL     1       6.329   4.653  15.251  0.00  0.00    +0.000 A 
ATOM      2  C   UNL     1       7.170   5.426  16.022  0.00  0.00    +0.000 A 
ATOM      3  C   UNL     1       6.704   5.778  17.273  0.00  0.00    +0.000 A 
ATOM      4  N   UNL     1       5.469   5.440  17.705  0.00  0.00    +0.000 NA
ATOM      5  C   UNL     1       4.716   4.695  16.887  0.00  0.00    +0.000 A 
ATOM      6  N   UNL     1       3.433   4.321  17.233  0.00  0.00    +0.000 N 
ATOM      7  N   UNL     1       5.125   4.249  15.694  0.00  0.00    +0.000 NA
ATOM      8  H   UNL     1       3.492   3.376  17.590  0.00  0.00    +0.000 HD
ENDROOT
BRANCH   1  10
ATOM      9  C   UNL     1       5.486   3.637  13.147  0.00  0.00    +0.000 C 
ATOM     10  C   UNL     1       6.672   4.304  13.830  0.00  0.00    +0.000 C 
ENDBRANCH   1  10
BRANCH   3  11
ATOM     11  C   UNL     1       7.566   6.589  18.205  0.00  0.00    +0.000 C 
ATOM     12  C   UNL     1       7.824   7.990  17.672  0.00  0.00    +0.000 C 
ENDBRANCH   3  11
BRANCH   6  13
ATOM     13  C   UNL     1       2.709   5.219  18.117  0.00  0.00    +0.000 C 
BRANCH  13  14
ATOM     14  C   UNL     1       2.245   4.439  19.323  0.00  0.00    +0.000 A 
ATOM     15  C   UNL     1       2.671   4.589  20.593  0.00  0.00    +0.000 A 
ATOM     16  C   UNL     1       2.179   3.762  21.667  0.00  0.00    +0.000 A 
ATOM     17  C   UNL     1       1.285   2.803  21.406  0.00  0.00    +0.000 A 
ATOM     18  N   UNL     1       0.836   2.614  20.126  0.00  0.00    +0.000 N 
ATOM     19  C   UNL     1       1.243   3.363  19.044  0.00  0.00    +0.000 A 
ATOM     20  O   UNL     1       0.812   3.152  17.915  0.00  0.00    +0.000 OA
ATOM     21  H   UNL     1       0.166   1.883  19.924  0.00  0.00    +0.000 HD
ENDBRANCH  13  14
ENDBRANCH   6  13
TORSDOF 4
ENDMDL
MODEL 2
REMARK VINA RESULT:      -7.4      1.354      3.251
REMARK  Name = 
REMARK  6 active torsions:
REMARK  status: ('A' for Active; 'I' for Inactive)
REMARK    1  A    between atoms: C_1  and  C_2
REMARK    2  A    between atoms: C_2  and  C_3
REMARK    3  A    between atoms: C_5  and  C_6
REMARK    4  A    between atoms: C_6  and  C_7
REMARK    5  A    between atoms: N_10  and  C_11
REMARK    6  A    between atoms: C_11  and  C_12
REMARK                            x       y       z     vdW  Elec       q    Type
REMARK                         _______ _______ _______ _____ _____    ______ ____
ROOT
ATOM      1  C   UNL     1       6.748   6.205  17.278  0.00  0.00    +0.000 A 
ATOM      2  C   UNL     1       7.124   5.459  16.183  0.00  0.00    +0.000 A 
ATOM      3  C   UNL     1       6.134   4.701  15.589  0.00  0.00    +0.000 A 
ATOM      4  N   UNL     1       4.878   4.639  16.083  0.00  0.00    +0.000 NA
ATOM      5  C   UNL     1       4.604   5.391  17.156  0.00  0.00    +0.000 A 
ATOM      6  N   UNL     1       3.355   5.376  17.743  0.00  0.00    +0.000 N 
ATOM      7  N   UNL     1       5.486   6.210  17.739  0.00  0.00    +0.000 NA
ATOM      8  H   UNL     1       2.858   6.184  17.392  0.00  0.00    +0.000 HD
ENDROOT
BRANCH   1  10
ATOM      9  C   UNL     1       7.799   8.430  17.621  0.00  0.00    +0.000 C 
ATOM     10  C   UNL     1       7.758   6.979  18.079  0.00  0.00    +0.000 C 
ENDBRANCH   1  10
BRANCH   3  11
ATOM     11  C   UNL     1       6.438   3.880  14.362  0.00  0.00    +0.000 C 
ATOM     12  C   UNL     1       5.367   4.029  13.294  0.00  0.00    +0.000 C 
ENDBRANCH   3  11
BRANCH   6  13
ATOM     13  C   UNL     1       2.593   4.143  17.623  0.00  0.00    +0.000 C 
BRANCH  13  14
ATOM     14  C   UNL     1       2.309   3.615  19.008  0.00  0.00    +0.000 A 
ATOM     15  C   UNL     1       1.138   3.683  19.672  0.00  0.00    +0.000 A 
ATOM     16  C   UNL     1       0.989   3.169  21.011  0.00  0.00    +0.000 A 
ATOM     17  C   UNL     1       2.039   2.621  21.630  0.00  0.00    +0.000 A 
ATOM     18  N   UNL     1       3.248   2.543  20.990  0.00  0.00    +0.000 N 
ATOM     19  C   UNL     1       3.477   2.997  19.710  0.00  0.00    +0.000 A 
ATOM     20  O   UNL     1       4.581   2.905  19.181  0.00  0.00    +0.000 OA
ATOM     21  H   UNL     1       4.047   2.136  21.460  0.00  0.00    +0.000 HD
ENDBRANCH  13  14
ENDBRANCH   6  13
TORSDOF 4
ENDMDL
MODEL 3
REMARK VINA RESULT:      -7.2      2.388      6.544
REMARK  Name = 
REMARK  6 active torsions:
REMARK  status: ('A' for Active; 'I' for Inactive)
REMARK    1  A    between atoms: C_1  and  C_2
REMARK    2  A    between atoms: C_2  and  C_3
REMARK    3  A    between atoms: C_5  and  C_6
REMARK    4  A    between atoms: C_6  and  C_7
REMARK    5  A    between atoms: N_10  and  C_11
REMARK    6  A    between atoms: C_11  and  C_12
REMARK                            x       y       z     vdW  Elec       q    Type
REMARK                         _______ _______ _______ _____ _____    ______ ____
ROOT
ATOM      1  C   UNL     1       1.874   3.923  20.014  0.00  0.00    +0.000 A 
ATOM      2  C   UNL     1       1.646   5.281  20.052  0.00  0.00    +0.000 A 
ATOM      3  C   UNL     1       2.478   6.063  19.276  0.00  0.00    +0.000 A 
ATOM      4  N   UNL     1       3.500   5.543  18.562  0.00  0.00    +0.000 NA
ATOM      5  C   UNL     1       3.653   4.213  18.590  0.00  0.00    +0.000 A 
ATOM      6  N   UNL     1       4.683   3.595  17.911  0.00  0.00    +0.000 N 
ATOM      7  N   UNL     1       2.842   3.382  19.254  0.00  0.00    +0.000 NA
ATOM      8  H   UNL     1       4.295   3.255  17.041  0.00  0.00    +0.000 HD
ENDROOT
BRANCH   1  10
ATOM      9  C   UNL     1       2.042   2.366  21.943  0.00  0.00    +0.000 C 
ATOM     10  C   UNL     1       1.114   2.978  20.903  0.00  0.00    +0.000 C 
ENDBRANCH   1  10
BRANCH   3  11
ATOM     11  C   UNL     1       2.283   7.557  19.221  0.00  0.00    +0.000 C 
ATOM     12  C   UNL     1       2.702   8.140  17.881  0.00  0.00    +0.000 C 
ENDBRANCH   3  11
BRANCH   6  13
ATOM     13  C   UNL     1       5.900   4.368  17.728  0.00  0.00    +0.000 C 
BRANCH  13  14
ATOM     14  C   UNL     1       6.222   4.419  16.254  0.00  0.00    +0.000 A 
ATOM     15  C   UNL     1       5.755   3.591  15.298  0.00  0.00    +0.000 A 
ATOM     16  C   UNL     1       6.157   3.714  13.919  0.00  0.00    +0.000 A 
ATOM     17  C   UNL     1       7.030   4.663  13.566  0.00  0.00    +0.000 A 
ATOM     18  N   UNL     1       7.533   5.517  14.512  0.00  0.00    +0.000 N 
ATOM     19  C   UNL     1       7.197   5.478  15.847  0.00  0.00    +0.000 A 
ATOM     20  O   UNL     1       7.678   6.266  16.656  0.00  0.00    +0.000 OA
ATOM     21  H   UNL     1       8.201   6.231  14.249  0.00  0.00    +0.000 HD
ENDBRANCH  13  14
ENDBRANCH   6  13
TORSDOF 4
ENDMDL
MODEL 4
REMARK VINA RESULT:      -7.1      1.388      1.650
REMARK  Name = 
REMARK  6 active torsions:
REMARK  status: ('A' for Active; 'I' for Inactive)
REMARK    1  A    between atoms: C_1  and  C_2
REMARK    2  A    between atoms: C_2  and  C_3
REMARK    3  A    between atoms: C_5  and  C_6
REMARK    4  A    between atoms: C_6  and  C_7
REMARK    5  A    between atoms: N_10  and  C_11
REMARK    6  A    between atoms: C_11  and  C_12
REMARK                            x       y       z     vdW  Elec       q    Type
REMARK                         _______ _______ _______ _____ _____    ______ ____
ROOT
ATOM      1  C   UNL     1       6.257   4.386  14.733  0.00  0.00    +0.000 A 
ATOM      2  C   UNL     1       7.045   5.365  15.295  0.00  0.00    +0.000 A 
ATOM      3  C   UNL     1       6.680   5.797  16.555  0.00  0.00    +0.000 A 
ATOM      4  N   UNL     1       5.578   5.335  17.185  0.00  0.00    +0.000 NA
ATOM      5  C   UNL     1       4.865   4.389  16.560  0.00  0.00    +0.000 A 
ATOM      6  N   UNL     1       3.712   3.874  17.116  0.00  0.00    +0.000 N 
ATOM      7  N   UNL     1       5.198   3.864  15.376  0.00  0.00    +0.000 NA
ATOM      8  H   UNL     1       3.967   3.001  17.559  0.00  0.00    +0.000 HD
ENDROOT
BRANCH   1  10
ATOM      9  C   UNL     1       7.448   4.847  12.602  0.00  0.00    +0.000 C 
ATOM     10  C   UNL     1       6.481   3.917  13.322  0.00  0.00    +0.000 C 
ENDBRANCH   1  10
BRANCH   3  11
ATOM     11  C   UNL     1       7.502   6.838  17.269  0.00  0.00    +0.000 C 
ATOM     12  C   UNL     1       7.858   6.415  18.685  0.00  0.00    +0.000 C 
ENDBRANCH   3  11
BRANCH   6  13
ATOM     13  C   UNL     1       2.961   4.758  17.993  0.00  0.00    +0.000 C 
BRANCH  13  14
ATOM     14  C   UNL     1       2.486   3.964  19.186  0.00  0.00    +0.000 A 
ATOM     15  C   UNL     1       1.214   3.837  19.615  0.00  0.00    +0.000 A 
ATOM     16  C   UNL     1       0.879   3.075  20.792  0.00  0.00    +0.000 A 
ATOM     17  C   UNL     1       1.849   2.484  21.497  0.00  0.00    +0.000 A 
ATOM     18  N   UNL     1       3.154   2.599  21.096  0.00  0.00    +0.000 N 
ATOM     19  C   UNL     1       3.563   3.297  19.982  0.00  0.00    +0.000 A 
ATOM     20  O   UNL     1       4.747   3.371  19.666  0.00  0.00    +0.000 OA
ATOM     21  H   UNL     1       3.892   2.160  21.633  0.00  0.00    +0.000 HD
ENDBRANCH  13  14
ENDBRANCH   6  13
TORSDOF 4
ENDMDL
MODEL 5
REMARK VINA RESULT:      -7.0      1.560      1.768
REMARK  Name = 
REMARK  6 active torsions:
REMARK  status: ('A' for Active; 'I' for Inactive)
REMARK    1  A    between atoms: C_1  and  C_2
REMARK    2  A    between atoms: C_2  and  C_3
REMARK    3  A    between atoms: C_5  and  C_6
REMARK    4  A    between atoms: C_6  and  C_7
REMARK    5  A    between atoms: N_10  and  C_11
REMARK    6  A    between atoms: C_11  and  C_12
REMARK                            x       y       z     vdW  Elec       q    Type
REMARK                         _______ _______ _______ _____ _____    ______ ____
ROOT
ATOM      1  C   UNL     1       6.768   5.149  15.773  0.00  0.00    +0.000 A 
ATOM      2  C   UNL     1       7.398   6.202  16.399  0.00  0.00    +0.000 A 
ATOM      3  C   UNL     1       7.348   6.214  17.779  0.00  0.00    +0.000 A 
ATOM      4  N   UNL     1       6.669   5.282  18.484  0.00  0.00    +0.000 NA
ATOM      5  C   UNL     1       6.079   4.300  17.793  0.00  0.00    +0.000 A 
ATOM      6  N   UNL     1       5.345   3.318  18.427  0.00  0.00    +0.000 N 
ATOM      7  N   UNL     1       6.149   4.176  16.463  0.00  0.00    +0.000 NA
ATOM      8  H   UNL     1       5.952   2.514  18.519  0.00  0.00    +0.000 HD
ENDROOT
BRANCH   1  10
ATOM      9  C   UNL     1       5.943   3.807  13.852  0.00  0.00    +0.000 C 
ATOM     10  C   UNL     1       6.654   5.086  14.276  0.00  0.00    +0.000 C 
ENDBRANCH   1  10
BRANCH   3  11
ATOM     11  C   UNL     1       8.040   7.304  18.556  0.00  0.00    +0.000 C 
ATOM     12  C   UNL     1       8.045   8.626  17.806  0.00  0.00    +0.000 C 
ENDBRANCH   3  11
BRANCH   6  13
ATOM     13  C   UNL     1       4.699   3.689  19.675  0.00  0.00    +0.000 C 
BRANCH  13  14
ATOM     14  C   UNL     1       3.224   3.388  19.563  0.00  0.00    +0.000 A 
ATOM     15  C   UNL     1       2.208   4.173  19.974  0.00  0.00    +0.000 A 
ATOM     16  C   UNL     1       0.830   3.767  19.845  0.00  0.00    +0.000 A 
ATOM     17  C   UNL     1       0.538   2.574  19.318  0.00  0.00    +0.000 A 
ATOM     18  N   UNL     1       1.545   1.745  18.899  0.00  0.00    +0.000 N 
ATOM     19  C   UNL     1       2.885   2.055  18.974  0.00  0.00    +0.000 A 
ATOM     20  O   UNL     1       3.750   1.276  18.586  0.00  0.00    +0.000 OA
ATOM     21  H   UNL     1       1.327   0.837  18.508  0.00  0.00    +0.000 HD
ENDBRANCH  13  14
ENDBRANCH   6  13
TORSDOF 4
ENDMDL
MODEL 6
REMARK VINA RESULT:      -7.0      2.589      6.625
REMARK  Name = 
REMARK  6 active torsions:
REMARK  status: ('A' for Active; 'I' for Inactive)
REMARK    1  A    between atoms: C_1  and  C_2
REMARK    2  A    between atoms: C_2  and  C_3
REMARK    3  A    between atoms: C_5  and  C_6
REMARK    4  A    between atoms: C_6  and  C_7
REMARK    5  A    between atoms: N_10  and  C_11
REMARK    6  A    between atoms: C_11  and  C_12
REMARK                            x       y       z     vdW  Elec       q    Type
REMARK                         _______ _______ _______ _____ _____    ______ ____
ROOT
ATOM      1  C   UNL     1       2.271   6.795  19.820  0.00  0.00    +0.000 A 
ATOM      2  C   UNL     1       1.401   5.783  20.162  0.00  0.00    +0.000 A 
ATOM      3  C   UNL     1       1.913   4.501  20.137  0.00  0.00    +0.000 A 
ATOM      4  N   UNL     1       3.178   4.236  19.743  0.00  0.00    +0.000 NA
ATOM      5  C   UNL     1       3.951   5.280  19.421  0.00  0.00    +0.000 A 
ATOM      6  N   UNL     1       5.248   5.105  18.985  0.00  0.00    +0.000 N 
ATOM      7  N   UNL     1       3.552   6.554  19.494  0.00  0.00    +0.000 NA
ATOM      8  H   UNL     1       5.847   5.260  19.785  0.00  0.00    +0.000 HD
ENDROOT
BRANCH   1  10
ATOM      9  C   UNL     1       1.805   8.651  18.237  0.00  0.00    +0.000 C 
ATOM     10  C   UNL     1       1.803   8.218  19.696  0.00  0.00    +0.000 C 
ENDBRANCH   1  10
BRANCH   3  11
ATOM     11  C   UNL     1       1.049   3.330  20.532  0.00  0.00    +0.000 C 
ATOM     12  C   UNL     1       1.575   2.623  21.771  0.00  0.00    +0.000 C 
ENDBRANCH   3  11
BRANCH   6  13
ATOM     13  C   UNL     1       5.540   3.862  18.290  0.00  0.00    +0.000 C 
BRANCH  13  14
ATOM     14  C   UNL     1       5.866   4.180  16.851  0.00  0.00    +0.000 A 
ATOM     15  C   UNL     1       5.017   4.145  15.804  0.00  0.00    +0.000 A 
ATOM     16  C   UNL     1       5.449   4.439  14.460  0.00  0.00    +0.000 A 
ATOM     17  C   UNL     1       6.730   4.743  14.229  0.00  0.00    +0.000 A 
ATOM     18  N   UNL     1       7.624   4.779  15.266  0.00  0.00    +0.000 N 
ATOM     19  C   UNL     1       7.298   4.523  16.579  0.00  0.00    +0.000 A 
ATOM     20  O   UNL     1       8.138   4.567  17.473  0.00  0.00    +0.000 OA
ATOM     21  H   UNL     1       8.596   5.000  15.091  0.00  0.00    +0.000 HD
ENDBRANCH  13  14
ENDBRANCH   6  13
TORSDOF 4
ENDMDL
MODEL 7
REMARK VINA RESULT:      -7.0      1.779      3.550
REMARK  Name = 
REMARK  6 active torsions:
REMARK  status: ('A' for Active; 'I' for Inactive)
REMARK    1  A    between atoms: C_1  and  C_2
REMARK    2  A    between atoms: C_2  and  C_3
REMARK    3  A    between atoms: C_5  and  C_6
REMARK    4  A    between atoms: C_6  and  C_7
REMARK    5  A    between atoms: N_10  and  C_11
REMARK    6  A    between atoms: C_11  and  C_12
REMARK                            x       y       z     vdW  Elec       q    Type
REMARK                         _______ _______ _______ _____ _____    ______ ____
ROOT
ATOM      1  C   UNL     1       7.066   6.144  18.070  0.00  0.00    +0.000 A 
ATOM      2  C   UNL     1       6.833   5.788  16.760  0.00  0.00    +0.000 A 
ATOM      3  C   UNL     1       5.869   4.821  16.551  0.00  0.00    +0.000 A 
ATOM      4  N   UNL     1       5.228   4.209  17.570  0.00  0.00    +0.000 NA
ATOM      5  C   UNL     1       5.523   4.613  18.812  0.00  0.00    +0.000 A 
ATOM      6  N   UNL     1       4.935   4.029  19.915  0.00  0.00    +0.000 N 
ATOM      7  N   UNL     1       6.386   5.596  19.092  0.00  0.00    +0.000 NA
ATOM      8  H   UNL     1       4.175   4.636  20.195  0.00  0.00    +0.000 HD
ENDROOT
BRANCH   1  10
ATOM      9  C   UNL     1       7.950   8.446  17.761  0.00  0.00    +0.000 C 
ATOM     10  C   UNL     1       8.170   7.098  18.435  0.00  0.00    +0.000 C 
ENDBRANCH   1  10
BRANCH   3  11
ATOM     11  C   UNL     1       5.515   4.392  15.151  0.00  0.00    +0.000 C 
ATOM     12  C   UNL     1       6.671   4.586  14.183  0.00  0.00    +0.000 C 
ENDBRANCH   3  11
BRANCH   6  13
ATOM     13  C   UNL     1       4.533   2.639  19.781  0.00  0.00    +0.000 C 
BRANCH  13  14
ATOM     14  C   UNL     1       3.031   2.583  19.640  0.00  0.00    +0.000 A 
ATOM     15  C   UNL     1       2.333   2.457  18.493  0.00  0.00    +0.000 A 
ATOM     16  C   UNL     1       0.891   2.446  18.474  0.00  0.00    +0.000 A 
ATOM     17  C   UNL     1       0.214   2.581  19.618  0.00  0.00    +0.000 A 
ATOM     18  N   UNL     1       0.889   2.722  20.802  0.00  0.00    +0.000 N 
ATOM     19  C   UNL     1       2.261   2.732  20.914  0.00  0.00    +0.000 A 
ATOM     20  O   UNL     1       2.819   2.863  22.000  0.00  0.00    +0.000 OA
ATOM     21  H   UNL     1       0.378   2.833  21.669  0.00  0.00    +0.000 HD
ENDBRANCH  13  14
ENDBRANCH   6  13
TORSDOF 4
ENDMDL
MODEL 8
REMARK VINA RESULT:      -7.0      1.604      2.218
REMARK  Name = 
REMARK  6 active torsions:
REMARK  status: ('A' for Active; 'I' for Inactive)
REMARK    1  A    between atoms: C_1  and  C_2
REMARK    2  A    between atoms: C_2  and  C_3
REMARK    3  A    between atoms: C_5  and  C_6
REMARK    4  A    between atoms: C_6  and  C_7
REMARK    5  A    between atoms: N_10  and  C_11
REMARK    6  A    between atoms: C_11  and  C_12
REMARK                            x       y       z     vdW  Elec       q    Type
REMARK                         _______ _______ _______ _____ _____    ______ ____
ROOT
ATOM      1  C   UNL     1       5.989   4.992  15.894  0.00  0.00    +0.000 A 
ATOM      2  C   UNL     1       5.326   6.144  16.255  0.00  0.00    +0.000 A 
ATOM      3  C   UNL     1       4.240   5.988  17.093  0.00  0.00    +0.000 A 
ATOM      4  N   UNL     1       3.805   4.773  17.494  0.00  0.00    +0.000 NA
ATOM      5  C   UNL     1       4.505   3.707  17.088  0.00  0.00    +0.000 A 
ATOM      6  N   UNL     1       4.124   2.426  17.429  0.00  0.00    +0.000 N 
ATOM      7  N   UNL     1       5.613   3.781  16.341  0.00  0.00    +0.000 NA
ATOM      8  H   UNL     1       4.692   2.153  18.220  0.00  0.00    +0.000 HD
ENDROOT
BRANCH   1  10
ATOM      9  C   UNL     1       6.706   4.290  13.621  0.00  0.00    +0.000 C 
ATOM     10  C   UNL     1       7.113   5.017  14.895  0.00  0.00    +0.000 C 
ENDBRANCH   1  10
BRANCH   3  11
ATOM     11  C   UNL     1       3.473   7.193  17.574  0.00  0.00    +0.000 C 
ATOM     12  C   UNL     1       2.636   6.885  18.805  0.00  0.00    +0.000 C 
ENDBRANCH   3  11
BRANCH   6  13
ATOM     13  C   UNL     1       2.704   2.205  17.647  0.00  0.00    +0.000 C 
BRANCH  13  14
ATOM     14  C   UNL     1       2.393   2.464  19.101  0.00  0.00    +0.000 A 
ATOM     15  C   UNL     1       3.272   2.483  20.122  0.00  0.00    +0.000 A 
ATOM     16  C   UNL     1       2.856   2.711  21.484  0.00  0.00    +0.000 A 
ATOM     17  C   UNL     1       1.561   2.894  21.758  0.00  0.00    +0.000 A 
ATOM     18  N   UNL     1       0.636   2.870  20.747  0.00  0.00    +0.000 N 
ATOM     19  C   UNL     1       0.945   2.671  19.420  0.00  0.00    +0.000 A 
ATOM     20  O   UNL     1       0.079   2.658  18.551  0.00  0.00    +0.000 OA
ATOM     21  H   UNL     1      -0.346   3.000  20.953  0.00  0.00    +0.000 HD
ENDBRANCH  13  14
ENDBRANCH   6  13
TORSDOF 4
ENDMDL
MODEL 9
REMARK VINA RESULT:      -6.9      0.968      2.981
REMARK  Name = 
REMARK  6 active torsions:
REMARK  status: ('A' for Active; 'I' for Inactive)
REMARK    1  A    between atoms: C_1  and  C_2
REMARK    2  A    between atoms: C_2  and  C_3
REMARK    3  A    between atoms: C_5  and  C_6
REMARK    4  A    between atoms: C_6  and  C_7
REMARK    5  A    between atoms: N_10  and  C_11
REMARK    6  A    between atoms: C_11  and  C_12
REMARK                            x       y       z     vdW  Elec       q    Type
REMARK                         _______ _______ _______ _____ _____    ______ ____
ROOT
ATOM      1  C   UNL     1       6.686   6.020  17.623  0.00  0.00    +0.000 A 
ATOM      2  C   UNL     1       6.914   5.164  16.568  0.00  0.00    +0.000 A 
ATOM      3  C   UNL     1       5.794   4.654  15.941  0.00  0.00    +0.000 A 
ATOM      4  N   UNL     1       4.541   4.925  16.367  0.00  0.00    +0.000 NA
ATOM      5  C   UNL     1       4.414   5.761  17.405  0.00  0.00    +0.000 A 
ATOM      6  N   UNL     1       3.175   6.079  17.923  0.00  0.00    +0.000 N 
ATOM      7  N   UNL     1       5.445   6.357  18.014  0.00  0.00    +0.000 NA
ATOM      8  H   UNL     1       2.913   6.971  17.526  0.00  0.00    +0.000 HD
ENDROOT
BRANCH   1  10
ATOM      9  C   UNL     1       8.022   5.674  19.688  0.00  0.00    +0.000 C 
ATOM     10  C   UNL     1       7.819   6.548  18.458  0.00  0.00    +0.000 C 
ENDBRANCH   1  10
BRANCH   3  11
ATOM     11  C   UNL     1       5.940   3.738  14.753  0.00  0.00    +0.000 C 
ATOM     12  C   UNL     1       6.704   4.393  13.614  0.00  0.00    +0.000 C 
ENDBRANCH   3  11
BRANCH   6  13
ATOM     13  C   UNL     1       2.136   5.071  17.792  0.00  0.00    +0.000 C 
BRANCH  13  14
ATOM     14  C   UNL     1       2.039   4.306  19.090  0.00  0.00    +0.000 A 
ATOM     15  C   UNL     1       2.194   4.805  20.333  0.00  0.00    +0.000 A 
ATOM     16  C   UNL     1       2.110   3.971  21.506  0.00  0.00    +0.000 A 
ATOM     17  C   UNL     1       1.889   2.660  21.371  0.00  0.00    +0.000 A 
ATOM     18  N   UNL     1       1.736   2.115  20.123  0.00  0.00    +0.000 N 
ATOM     19  C   UNL     1       1.790   2.837  18.952  0.00  0.00    +0.000 A 
ATOM     20  O   UNL     1       1.648   2.301  17.856  0.00  0.00    +0.000 OA
ATOM     21  H   UNL     1       1.577   1.121  20.018  0.00  0.00    +0.000 HD
ENDBRANCH  13  14
ENDBRANCH   6  13
TORSDOF 4
ENDMDL
