MODEL 1
REMARK VINA RESULT:      -9.5      0.000      0.000
REMARK  Name = 
REMARK  6 active torsions:
REMARK  status: ('A' for Active; 'I' for Inactive)
REMARK    1  A    between atoms: C_2  and  C_28
REMARK    2  A    between atoms: N_3  and  C_4
REMARK    3  A    between atoms: C_8  and  O_9
REMARK    4  A    between atoms: O_9  and  C_10
REMARK    5  A    between atoms: C_14  and  C_15
REMARK    6  A    between atoms: C_16  and  C_17
REMARK                            x       y       z     vdW  Elec       q    Type
REMARK                         _______ _______ _______ _____ _____    ______ ____
ROOT
ATOM      1  C   UNL     1       1.278   5.140  20.127  0.00  0.00    +0.000 A 
ATOM      2  C   UNL     1       0.736   3.884  20.417  0.00  0.00    +0.000 A 
ATOM      3  C   UNL     1       1.222   2.736  19.792  0.00  0.00    +0.000 A 
ATOM      4  C   UNL     1       2.278   2.835  18.893  0.00  0.00    +0.000 A 
ATOM      5  C   UNL     1       2.836   4.080  18.604  0.00  0.00    +0.000 A 
ATOM      6  C   UNL     1       2.291   5.240  19.165  0.00  0.00    +0.000 A 
ENDROOT
BRANCH   1   9
ATOM      7  O   UNL     1       2.111   7.888  19.595  0.00  0.00    +0.000 OA
ATOM      8  C   UNL     1       1.316   7.595  20.484  0.00  0.00    +0.000 C 
ATOM      9  N   UNL     1       0.860   6.321  20.784  0.00  0.00    +0.000 N 
ATOM     10  H   UNL     1       0.028   6.250  21.357  0.00  0.00    +0.000 HD
BRANCH   8  11
ATOM     11  C   UNL     1       0.682   8.705  21.236  0.00  0.00    +0.000 A 
ATOM     12  C   UNL     1       0.180   8.565  22.537  0.00  0.00    +0.000 A 
ATOM     13  C   UNL     1      -0.409   9.648  23.192  0.00  0.00    +0.000 A 
ATOM     14  C   UNL     1      -0.517  10.896  22.563  0.00  0.00    +0.000 A 
ATOM     15  C   UNL     1      -0.007  11.064  21.262  0.00  0.00    +0.000 A 
ATOM     16  C   UNL     1       0.063  12.156  20.351  0.00  0.00    +0.000 A 
ATOM     17  C   UNL     1       0.698  11.713  19.209  0.00  0.00    +0.000 A 
ATOM     18  N   UNL     1       1.028  10.403  19.399  0.00  0.00    +0.000 N 
ATOM     19  C   UNL     1       0.589   9.973  20.635  0.00  0.00    +0.000 A 
ATOM     20  H   UNL     1       1.540   9.811  18.752  0.00  0.00    +0.000 HD
ENDBRANCH   8  11
ENDBRANCH   1   9
BRANCH   5  21
ATOM     21  O   UNL     1       3.875   4.058  17.705  0.00  0.00    +0.000 OA
BRANCH  21  22
ATOM     22  C   UNL     1       4.915   4.956  17.801  0.00  0.00    +0.000 A 
ATOM     23  C   UNL     1       4.809   6.054  16.943  0.00  0.00    +0.000 A 
ATOM     24  C   UNL     1       5.772   7.070  16.940  0.00  0.00    +0.000 A 
ATOM     25  C   UNL     1       6.860   6.977  17.827  0.00  0.00    +0.000 A 
ATOM     26  C   UNL     1       7.966   7.803  18.194  0.00  0.00    +0.000 A 
ATOM     27  N   UNL     1       8.733   7.200  19.116  0.00  0.00    +0.000 NA
ATOM     28  N   UNL     1       8.118   6.033  19.352  0.00  0.00    +0.000 N 
ATOM     29  C   UNL     1       6.972   5.845  18.627  0.00  0.00    +0.000 A 
ATOM     30  C   UNL     1       6.039   4.799  18.622  0.00  0.00    +0.000 A 
ATOM     31  H   UNL     1       8.515   5.417  20.051  0.00  0.00    +0.000 HD
BRANCH  26  32
ATOM     32  C   UNL     1       8.183   9.148  17.730  0.00  0.00    +0.000 C 
ATOM     33  C   UNL     1       9.002  10.017  18.347  0.00  0.00    +0.000 C 
BRANCH  33  34
ATOM     34  C   UNL     1       9.120  11.459  18.091  0.00  0.00    +0.000 A 
ATOM     35  C   UNL     1      10.367  12.049  18.346  0.00  0.00    +0.000 A 
ATOM     36  C   UNL     1      10.569  13.419  18.181  0.00  0.00    +0.000 A 
ATOM     37  C   UNL     1       9.521  14.222  17.742  0.00  0.00    +0.000 A 
ATOM     38  C   UNL     1       8.280  13.651  17.461  0.00  0.00    +0.000 A 
ATOM     39  C   UNL     1       8.080  12.274  17.629  0.00  0.00    +0.000 A 
ENDBRANCH  33  34
ENDBRANCH  26  32
ENDBRANCH  21  22
ENDBRANCH   5  21
TORSDOF 6
ENDMDL
MODEL 2
REMARK VINA RESULT:      -9.4      4.451      7.735
REMARK  Name = 
REMARK  6 active torsions:
REMARK  status: ('A' for Active; 'I' for Inactive)
REMARK    1  A    between atoms: C_2  and  C_28
REMARK    2  A    between atoms: N_3  and  C_4
REMARK    3  A    between atoms: C_8  and  O_9
REMARK    4  A    between atoms: O_9  and  C_10
REMARK    5  A    between atoms: C_14  and  C_15
REMARK    6  A    between atoms: C_16  and  C_17
REMARK                            x       y       z     vdW  Elec       q    Type
REMARK                         _______ _______ _______ _____ _____    ______ ____
ROOT
ATOM      1  C   UNL     1      -3.052  12.091  19.173  0.00  0.00    +0.000 A 
ATOM      2  C   UNL     1      -3.539  11.266  18.154  0.00  0.00    +0.000 A 
ATOM      3  C   UNL     1      -2.687  10.398  17.472  0.00  0.00    +0.000 A 
ATOM      4  C   UNL     1      -1.345  10.326  17.828  0.00  0.00    +0.000 A 
ATOM      5  C   UNL     1      -0.849  11.136  18.850  0.00  0.00    +0.000 A 
ATOM      6  C   UNL     1      -1.685  12.068  19.475  0.00  0.00    +0.000 A 
ENDROOT
BRANCH   1   9
ATOM      7  O   UNL     1      -3.154  12.390  22.076  0.00  0.00    +0.000 OA
ATOM      8  C   UNL     1      -3.892  13.013  21.317  0.00  0.00    +0.000 C 
ATOM      9  N   UNL     1      -3.891  12.938  19.933  0.00  0.00    +0.000 N 
ATOM     10  H   UNL     1      -4.362  13.680  19.430  0.00  0.00    +0.000 HD
BRANCH   8  11
ATOM     11  C   UNL     1      -4.791  14.033  21.912  0.00  0.00    +0.000 A 
ATOM     12  C   UNL     1      -4.621  15.411  21.725  0.00  0.00    +0.000 A 
ATOM     13  C   UNL     1      -5.499  16.322  22.314  0.00  0.00    +0.000 A 
ATOM     14  C   UNL     1      -6.566  15.880  23.109  0.00  0.00    +0.000 A 
ATOM     15  C   UNL     1      -6.765  14.500  23.299  0.00  0.00    +0.000 A 
ATOM     16  C   UNL     1      -7.718  13.718  24.011  0.00  0.00    +0.000 A 
ATOM     17  C   UNL     1      -7.405  12.388  23.815  0.00  0.00    +0.000 A 
ATOM     18  N   UNL     1      -6.311  12.336  23.001  0.00  0.00    +0.000 N 
ATOM     19  C   UNL     1      -5.884  13.611  22.689  0.00  0.00    +0.000 A 
ATOM     20  H   UNL     1      -5.866  11.496  22.644  0.00  0.00    +0.000 HD
ENDBRANCH   8  11
ENDBRANCH   1   9
BRANCH   5  21
ATOM     21  O   UNL     1       0.490  10.979  19.119  0.00  0.00    +0.000 OA
BRANCH  21  22
ATOM     22  C   UNL     1       1.080   9.736  19.079  0.00  0.00    +0.000 A 
ATOM     23  C   UNL     1       1.573   9.372  17.824  0.00  0.00    +0.000 A 
ATOM     24  C   UNL     1       2.225   8.149  17.625  0.00  0.00    +0.000 A 
ATOM     25  C   UNL     1       2.387   7.280  18.719  0.00  0.00    +0.000 A 
ATOM     26  C   UNL     1       3.042   6.034  18.960  0.00  0.00    +0.000 A 
ATOM     27  N   UNL     1       2.861   5.631  20.228  0.00  0.00    +0.000 NA
ATOM     28  N   UNL     1       2.134   6.607  20.788  0.00  0.00    +0.000 N 
ATOM     29  C   UNL     1       1.834   7.640  19.944  0.00  0.00    +0.000 A 
ATOM     30  C   UNL     1       1.146   8.843  20.158  0.00  0.00    +0.000 A 
ATOM     31  H   UNL     1       1.901   6.524  21.771  0.00  0.00    +0.000 HD
BRANCH  26  32
ATOM     32  C   UNL     1       3.880   5.345  18.015  0.00  0.00    +0.000 C 
ATOM     33  C   UNL     1       4.839   5.954  17.298  0.00  0.00    +0.000 C 
BRANCH  33  34
ATOM     34  C   UNL     1       5.587   5.398  16.161  0.00  0.00    +0.000 A 
ATOM     35  C   UNL     1       4.856   4.653  15.224  0.00  0.00    +0.000 A 
ATOM     36  C   UNL     1       5.481   4.044  14.136  0.00  0.00    +0.000 A 
ATOM     37  C   UNL     1       6.854   4.184  13.962  0.00  0.00    +0.000 A 
ATOM     38  C   UNL     1       7.594   4.941  14.871  0.00  0.00    +0.000 A 
ATOM     39  C   UNL     1       6.964   5.551  15.964  0.00  0.00    +0.000 A 
ENDBRANCH  33  34
ENDBRANCH  26  32
ENDBRANCH  21  22
ENDBRANCH   5  21
TORSDOF 6
ENDMDL
MODEL 3
REMARK VINA RESULT:      -9.1      4.416      7.194
REMARK  Name = 
REMARK  6 active torsions:
REMARK  status: ('A' for Active; 'I' for Inactive)
REMARK    1  A    between atoms: C_2  and  C_28
REMARK    2  A    between atoms: N_3  and  C_4
REMARK    3  A    between atoms: C_8  and  O_9
REMARK    4  A    between atoms: O_9  and  C_10
REMARK    5  A    between atoms: C_14  and  C_15
REMARK    6  A    between atoms: C_16  and  C_17
REMARK                            x       y       z     vdW  Elec       q    Type
REMARK                         _______ _______ _______ _____ _____    ______ ____
ROOT
ATOM      1  C   UNL     1      -0.901  10.777  18.972  0.00  0.00    +0.000 A 
ATOM      2  C   UNL     1       0.090  11.617  18.455  0.00  0.00    +0.000 A 
ATOM      3  C   UNL     1       1.441  11.345  18.672  0.00  0.00    +0.000 A 
ATOM      4  C   UNL     1       1.810  10.208  19.381  0.00  0.00    +0.000 A 
ATOM      5  C   UNL     1       0.832   9.354  19.892  0.00  0.00    +0.000 A 
ATOM      6  C   UNL     1      -0.523   9.675  19.749  0.00  0.00    +0.000 A 
ENDROOT
BRANCH   1   9
ATOM      7  O   UNL     1      -2.691  12.716  20.222  0.00  0.00    +0.000 OA
ATOM      8  C   UNL     1      -3.069  11.914  19.372  0.00  0.00    +0.000 C 
ATOM      9  N   UNL     1      -2.278  10.979  18.723  0.00  0.00    +0.000 N 
ATOM     10  H   UNL     1      -2.651  10.565  17.877  0.00  0.00    +0.000 HD
BRANCH   8  11
ATOM     11  C   UNL     1      -4.470  12.021  18.896  0.00  0.00    +0.000 A 
ATOM     12  C   UNL     1      -4.833  11.937  17.545  0.00  0.00    +0.000 A 
ATOM     13  C   UNL     1      -6.170  12.049  17.160  0.00  0.00    +0.000 A 
ATOM     14  C   UNL     1      -7.178  12.253  18.113  0.00  0.00    +0.000 A 
ATOM     15  C   UNL     1      -6.839  12.326  19.477  0.00  0.00    +0.000 A 
ATOM     16  C   UNL     1      -7.577  12.511  20.681  0.00  0.00    +0.000 A 
ATOM     17  C   UNL     1      -6.685  12.483  21.732  0.00  0.00    +0.000 A 
ATOM     18  N   UNL     1      -5.440  12.273  21.215  0.00  0.00    +0.000 N 
ATOM     19  C   UNL     1      -5.499  12.198  19.838  0.00  0.00    +0.000 A 
ATOM     20  H   UNL     1      -4.579  12.164  21.742  0.00  0.00    +0.000 HD
ENDBRANCH   8  11
ENDBRANCH   1   9
BRANCH   5  21
ATOM     21  O   UNL     1       1.311   8.260  20.573  0.00  0.00    +0.000 OA
BRANCH  21  22
ATOM     22  C   UNL     1       2.029   7.281  19.924  0.00  0.00    +0.000 A 
ATOM     23  C   UNL     1       2.584   7.684  18.707  0.00  0.00    +0.000 A 
ATOM     24  C   UNL     1       3.364   6.812  17.939  0.00  0.00    +0.000 A 
ATOM     25  C   UNL     1       3.593   5.508  18.414  0.00  0.00    +0.000 A 
ATOM     26  C   UNL     1       4.371   4.382  18.006  0.00  0.00    +0.000 A 
ATOM     27  N   UNL     1       4.206   3.350  18.850  0.00  0.00    +0.000 NA
ATOM     28  N   UNL     1       3.369   3.816  19.787  0.00  0.00    +0.000 N 
ATOM     29  C   UNL     1       2.980   5.114  19.599  0.00  0.00    +0.000 A 
ATOM     30  C   UNL     1       2.165   5.958  20.367  0.00  0.00    +0.000 A 
ATOM     31  H   UNL     1       3.126   3.203  20.556  0.00  0.00    +0.000 HD
BRANCH  26  32
ATOM     32  C   UNL     1       5.296   4.372  16.904  0.00  0.00    +0.000 C 
ATOM     33  C   UNL     1       4.963   4.749  15.658  0.00  0.00    +0.000 C 
BRANCH  33  34
ATOM     34  C   UNL     1       5.755   4.567  14.433  0.00  0.00    +0.000 A 
ATOM     35  C   UNL     1       5.240   3.687  13.470  0.00  0.00    +0.000 A 
ATOM     36  C   UNL     1       5.939   3.409  12.295  0.00  0.00    +0.000 A 
ATOM     37  C   UNL     1       7.165   4.022  12.060  0.00  0.00    +0.000 A 
ATOM     38  C   UNL     1       7.682   4.918  12.996  0.00  0.00    +0.000 A 
ATOM     39  C   UNL     1       6.979   5.195  14.176  0.00  0.00    +0.000 A 
ENDBRANCH  33  34
ENDBRANCH  26  32
ENDBRANCH  21  22
ENDBRANCH   5  21
TORSDOF 6
ENDMDL
MODEL 4
REMARK VINA RESULT:      -9.0      3.104      7.652
REMARK  Name = 
REMARK  6 active torsions:
REMARK  status: ('A' for Active; 'I' for Inactive)
REMARK    1  A    between atoms: C_2  and  C_28
REMARK    2  A    between atoms: N_3  and  C_4
REMARK    3  A    between atoms: C_8  and  O_9
REMARK    4  A    between atoms: O_9  and  C_10
REMARK    5  A    between atoms: C_14  and  C_15
REMARK    6  A    between atoms: C_16  and  C_17
REMARK                            x       y       z     vdW  Elec       q    Type
REMARK                         _______ _______ _______ _____ _____    ______ ____
ROOT
ATOM      1  C   UNL     1       0.717   9.724  18.260  0.00  0.00    +0.000 A 
ATOM      2  C   UNL     1      -0.609   9.716  17.818  0.00  0.00    +0.000 A 
ATOM      3  C   UNL     1      -1.508  10.696  18.241  0.00  0.00    +0.000 A 
ATOM      4  C   UNL     1      -1.074  11.711  19.085  0.00  0.00    +0.000 A 
ATOM      5  C   UNL     1       0.249  11.738  19.524  0.00  0.00    +0.000 A 
ATOM      6  C   UNL     1       1.127  10.707  19.169  0.00  0.00    +0.000 A 
ENDROOT
BRANCH   1   9
ATOM      7  O   UNL     1       1.998   7.581  19.775  0.00  0.00    +0.000 OA
ATOM      8  C   UNL     1       2.254   7.807  18.595  0.00  0.00    +0.000 C 
ATOM      9  N   UNL     1       1.677   8.790  17.807  0.00  0.00    +0.000 N 
ATOM     10  H   UNL     1       1.787   8.703  16.804  0.00  0.00    +0.000 HD
BRANCH   8  11
ATOM     11  C   UNL     1       3.175   6.874  17.898  0.00  0.00    +0.000 A 
ATOM     12  C   UNL     1       4.330   7.293  17.225  0.00  0.00    +0.000 A 
ATOM     13  C   UNL     1       5.155   6.367  16.586  0.00  0.00    +0.000 A 
ATOM     14  C   UNL     1       4.845   5.000  16.597  0.00  0.00    +0.000 A 
ATOM     15  C   UNL     1       3.698   4.554  17.279  0.00  0.00    +0.000 A 
ATOM     16  C   UNL     1       3.100   3.281  17.500  0.00  0.00    +0.000 A 
ATOM     17  C   UNL     1       1.970   3.472  18.268  0.00  0.00    +0.000 A 
ATOM     18  N   UNL     1       1.870   4.807  18.533  0.00  0.00    +0.000 N 
ATOM     19  C   UNL     1       2.898   5.496  17.922  0.00  0.00    +0.000 A 
ATOM     20  H   UNL     1       1.164   5.256  19.109  0.00  0.00    +0.000 HD
ENDBRANCH   8  11
ENDBRANCH   1   9
BRANCH   5  21
ATOM     21  O   UNL     1       0.567  12.788  20.352  0.00  0.00    +0.000 OA
BRANCH  21  22
ATOM     22  C   UNL     1       1.482  13.743  19.966  0.00  0.00    +0.000 A 
ATOM     23  C   UNL     1       2.738  13.611  20.564  0.00  0.00    +0.000 A 
ATOM     24  C   UNL     1       3.786  14.487  20.256  0.00  0.00    +0.000 A 
ATOM     25  C   UNL     1       3.561  15.513  19.320  0.00  0.00    +0.000 A 
ATOM     26  C   UNL     1       4.347  16.519  18.682  0.00  0.00    +0.000 A 
ATOM     27  N   UNL     1       3.597  17.265  17.853  0.00  0.00    +0.000 NA
ATOM     28  N   UNL     1       2.372  16.729  17.939  0.00  0.00    +0.000 N 
ATOM     29  C   UNL     1       2.284  15.658  18.785  0.00  0.00    +0.000 A 
ATOM     30  C   UNL     1       1.211  14.814  19.106  0.00  0.00    +0.000 A 
ATOM     31  H   UNL     1       1.638  17.123  17.362  0.00  0.00    +0.000 HD
BRANCH  26  32
ATOM     32  C   UNL     1       5.773  16.661  18.813  0.00  0.00    +0.000 C 
ATOM     33  C   UNL     1       6.648  15.740  18.376  0.00  0.00    +0.000 C 
BRANCH  33  34
ATOM     34  C   UNL     1       8.090  15.681  18.656  0.00  0.00    +0.000 A 
ATOM     35  C   UNL     1       8.778  14.544  18.209  0.00  0.00    +0.000 A 
ATOM     36  C   UNL     1      10.138  14.371  18.467  0.00  0.00    +0.000 A 
ATOM     37  C   UNL     1      10.836  15.347  19.170  0.00  0.00    +0.000 A 
ATOM     38  C   UNL     1      10.174  16.496  19.603  0.00  0.00    +0.000 A 
ATOM     39  C   UNL     1       8.808  16.667  19.343  0.00  0.00    +0.000 A 
ENDBRANCH  33  34
ENDBRANCH  26  32
ENDBRANCH  21  22
ENDBRANCH   5  21
TORSDOF 6
ENDMDL
MODEL 5
REMARK VINA RESULT:      -9.0      1.285      1.717
REMARK  Name = 
REMARK  6 active torsions:
REMARK  status: ('A' for Active; 'I' for Inactive)
REMARK    1  A    between atoms: C_2  and  C_28
REMARK    2  A    between atoms: N_3  and  C_4
REMARK    3  A    between atoms: C_8  and  O_9
REMARK    4  A    between atoms: O_9  and  C_10
REMARK    5  A    between atoms: C_14  and  C_15
REMARK    6  A    between atoms: C_16  and  C_17
REMARK                            x       y       z     vdW  Elec       q    Type
REMARK                         _______ _______ _______ _____ _____    ______ ____
ROOT
ATOM      1  C   UNL     1       1.220   4.451  19.973  0.00  0.00    +0.000 A 
ATOM      2  C   UNL     1       0.535   3.263  20.244  0.00  0.00    +0.000 A 
ATOM      3  C   UNL     1       1.054   2.032  19.843  0.00  0.00    +0.000 A 
ATOM      4  C   UNL     1       2.282   1.980  19.194  0.00  0.00    +0.000 A 
ATOM      5  C   UNL     1       2.982   3.157  18.928  0.00  0.00    +0.000 A 
ATOM      6  C   UNL     1       2.420   4.396  19.253  0.00  0.00    +0.000 A 
ENDROOT
BRANCH   1   9
ATOM      7  O   UNL     1       2.774   6.892  20.364  0.00  0.00    +0.000 OA
ATOM      8  C   UNL     1       1.569   6.826  20.594  0.00  0.00    +0.000 C 
ATOM      9  N   UNL     1       0.764   5.713  20.417  0.00  0.00    +0.000 N 
ATOM     10  H   UNL     1      -0.237   5.865  20.398  0.00  0.00    +0.000 HD
BRANCH   8  11
ATOM     11  C   UNL     1       0.872   8.077  20.984  0.00  0.00    +0.000 A 
ATOM     12  C   UNL     1       0.148   8.216  22.175  0.00  0.00    +0.000 A 
ATOM     13  C   UNL     1      -0.490   9.418  22.484  0.00  0.00    +0.000 A 
ATOM     14  C   UNL     1      -0.426  10.511  21.608  0.00  0.00    +0.000 A 
ATOM     15  C   UNL     1       0.308  10.400  20.412  0.00  0.00    +0.000 A 
ATOM     16  C   UNL     1       0.588  11.280  19.328  0.00  0.00    +0.000 A 
ATOM     17  C   UNL     1       1.387  10.602  18.430  0.00  0.00    +0.000 A 
ATOM     18  N   UNL     1       1.613   9.355  18.935  0.00  0.00    +0.000 N 
ATOM     19  C   UNL     1       0.947   9.194  20.133  0.00  0.00    +0.000 A 
ATOM     20  H   UNL     1       2.198   8.635  18.522  0.00  0.00    +0.000 HD
ENDBRANCH   8  11
ENDBRANCH   1   9
BRANCH   5  21
ATOM     21  O   UNL     1       4.186   2.986  18.285  0.00  0.00    +0.000 OA
BRANCH  21  22
ATOM     22  C   UNL     1       5.016   4.057  18.039  0.00  0.00    +0.000 A 
ATOM     23  C   UNL     1       5.167   4.928  19.121  0.00  0.00    +0.000 A 
ATOM     24  C   UNL     1       5.999   6.051  19.039  0.00  0.00    +0.000 A 
ATOM     25  C   UNL     1       6.697   6.293  17.842  0.00  0.00    +0.000 A 
ATOM     26  C   UNL     1       7.675   7.230  17.389  0.00  0.00    +0.000 A 
ATOM     27  N   UNL     1       8.000   7.006  16.105  0.00  0.00    +0.000 NA
ATOM     28  N   UNL     1       7.270   5.937  15.758  0.00  0.00    +0.000 N 
ATOM     29  C   UNL     1       6.482   5.444  16.762  0.00  0.00    +0.000 A 
ATOM     30  C   UNL     1       5.626   4.334  16.809  0.00  0.00    +0.000 A 
ATOM     31  H   UNL     1       7.382   5.567  14.821  0.00  0.00    +0.000 HD
BRANCH  26  32
ATOM     32  C   UNL     1       8.318   8.219  18.214  0.00  0.00    +0.000 C 
ATOM     33  C   UNL     1       8.313   9.532  17.931  0.00  0.00    +0.000 C 
BRANCH  33  34
ATOM     34  C   UNL     1       9.115  10.582  18.574  0.00  0.00    +0.000 A 
ATOM     35  C   UNL     1       9.166  11.827  17.928  0.00  0.00    +0.000 A 
ATOM     36  C   UNL     1       9.939  12.873  18.432  0.00  0.00    +0.000 A 
ATOM     37  C   UNL     1      10.665  12.692  19.604  0.00  0.00    +0.000 A 
ATOM     38  C   UNL     1      10.609  11.470  20.273  0.00  0.00    +0.000 A 
ATOM     39  C   UNL     1       9.833  10.419  19.764  0.00  0.00    +0.000 A 
ENDBRANCH  33  34
ENDBRANCH  26  32
ENDBRANCH  21  22
ENDBRANCH   5  21
TORSDOF 6
ENDMDL
MODEL 6
REMARK VINA RESULT:      -9.0      4.500      7.361
REMARK  Name = 
REMARK  6 active torsions:
REMARK  status: ('A' for Active; 'I' for Inactive)
REMARK    1  A    between atoms: C_2  and  C_28
REMARK    2  A    between atoms: N_3  and  C_4
REMARK    3  A    between atoms: C_8  and  O_9
REMARK    4  A    between atoms: O_9  and  C_10
REMARK    5  A    between atoms: C_14  and  C_15
REMARK    6  A    between atoms: C_16  and  C_17
REMARK                            x       y       z     vdW  Elec       q    Type
REMARK                         _______ _______ _______ _____ _____    ______ ____
ROOT
ATOM      1  C   UNL     1      -1.110  11.375  19.242  0.00  0.00    +0.000 A 
ATOM      2  C   UNL     1      -0.193  12.322  18.777  0.00  0.00    +0.000 A 
ATOM      3  C   UNL     1       1.177  12.143  18.966  0.00  0.00    +0.000 A 
ATOM      4  C   UNL     1       1.641  10.995  19.597  0.00  0.00    +0.000 A 
ATOM      5  C   UNL     1       0.739  10.036  20.056  0.00  0.00    +0.000 A 
ATOM      6  C   UNL     1      -0.639  10.257  19.943  0.00  0.00    +0.000 A 
ENDROOT
BRANCH   1   9
ATOM      7  O   UNL     1      -3.088  12.808  20.843  0.00  0.00    +0.000 OA
ATOM      8  C   UNL     1      -3.383  12.172  19.834  0.00  0.00    +0.000 C 
ATOM      9  N   UNL     1      -2.501  11.484  19.016  0.00  0.00    +0.000 N 
ATOM     10  H   UNL     1      -2.832  11.225  18.095  0.00  0.00    +0.000 HD
BRANCH   8  11
ATOM     11  C   UNL     1      -4.789  12.235  19.366  0.00  0.00    +0.000 A 
ATOM     12  C   UNL     1      -5.153  12.189  18.013  0.00  0.00    +0.000 A 
ATOM     13  C   UNL     1      -6.495  12.256  17.635  0.00  0.00    +0.000 A 
ATOM     14  C   UNL     1      -7.507  12.376  18.597  0.00  0.00    +0.000 A 
ATOM     15  C   UNL     1      -7.167  12.410  19.962  0.00  0.00    +0.000 A 
ATOM     16  C   UNL     1      -7.909  12.513  21.173  0.00  0.00    +0.000 A 
ATOM     17  C   UNL     1      -7.013  12.483  22.222  0.00  0.00    +0.000 A 
ATOM     18  N   UNL     1      -5.761  12.351  21.694  0.00  0.00    +0.000 N 
ATOM     19  C   UNL     1      -5.822  12.328  20.315  0.00  0.00    +0.000 A 
ATOM     20  H   UNL     1      -4.895  12.260  22.215  0.00  0.00    +0.000 HD
ENDBRANCH   8  11
ENDBRANCH   1   9
BRANCH   5  21
ATOM     21  O   UNL     1       1.309   8.941  20.660  0.00  0.00    +0.000 OA
BRANCH  21  22
ATOM     22  C   UNL     1       1.892   7.942  19.912  0.00  0.00    +0.000 A 
ATOM     23  C   UNL     1       1.887   8.177  18.534  0.00  0.00    +0.000 A 
ATOM     24  C   UNL     1       2.465   7.269  17.640  0.00  0.00    +0.000 A 
ATOM     25  C   UNL     1       3.067   6.104  18.148  0.00  0.00    +0.000 A 
ATOM     26  C   UNL     1       3.816   5.012  17.615  0.00  0.00    +0.000 A 
ATOM     27  N   UNL     1       4.148   4.137  18.579  0.00  0.00    +0.000 NA
ATOM     28  N   UNL     1       3.647   4.672  19.701  0.00  0.00    +0.000 N 
ATOM     29  C   UNL     1       3.005   5.866  19.518  0.00  0.00    +0.000 A 
ATOM     30  C   UNL     1       2.400   6.743  20.429  0.00  0.00    +0.000 A 
ATOM     31  H   UNL     1       3.809   4.185  20.575  0.00  0.00    +0.000 HD
BRANCH  26  32
ATOM     32  C   UNL     1       4.261   4.902  16.250  0.00  0.00    +0.000 C 
ATOM     33  C   UNL     1       5.360   4.221  15.886  0.00  0.00    +0.000 C 
BRANCH  33  34
ATOM     34  C   UNL     1       6.017   4.234  14.571  0.00  0.00    +0.000 A 
ATOM     35  C   UNL     1       7.167   5.027  14.444  0.00  0.00    +0.000 A 
ATOM     36  C   UNL     1       7.835   5.145  13.225  0.00  0.00    +0.000 A 
ATOM     37  C   UNL     1       7.368   4.454  12.113  0.00  0.00    +0.000 A 
ATOM     38  C   UNL     1       6.239   3.641  12.225  0.00  0.00    +0.000 A 
ATOM     39  C   UNL     1       5.569   3.526  13.450  0.00  0.00    +0.000 A 
ENDBRANCH  33  34
ENDBRANCH  26  32
ENDBRANCH  21  22
ENDBRANCH   5  21
TORSDOF 6
ENDMDL
MODEL 7
REMARK VINA RESULT:      -8.9      4.116      7.492
REMARK  Name = 
REMARK  6 active torsions:
REMARK  status: ('A' for Active; 'I' for Inactive)
REMARK    1  A    between atoms: C_2  and  C_28
REMARK    2  A    between atoms: N_3  and  C_4
REMARK    3  A    between atoms: C_8  and  O_9
REMARK    4  A    between atoms: O_9  and  C_10
REMARK    5  A    between atoms: C_14  and  C_15
REMARK    6  A    between atoms: C_16  and  C_17
REMARK                            x       y       z     vdW  Elec       q    Type
REMARK                         _______ _______ _______ _____ _____    ______ ____
ROOT
ATOM      1  C   UNL     1      -0.702  12.381  18.551  0.00  0.00    +0.000 A 
ATOM      2  C   UNL     1      -1.948  11.810  18.274  0.00  0.00    +0.000 A 
ATOM      3  C   UNL     1      -2.227  10.494  18.640  0.00  0.00    +0.000 A 
ATOM      4  C   UNL     1      -1.269   9.748  19.318  0.00  0.00    +0.000 A 
ATOM      5  C   UNL     1      -0.026  10.310  19.612  0.00  0.00    +0.000 A 
ATOM      6  C   UNL     1       0.284  11.600  19.167  0.00  0.00    +0.000 A 
ENDROOT
BRANCH   1   9
ATOM      7  O   UNL     1      -1.044  14.720  20.266  0.00  0.00    +0.000 OA
ATOM      8  C   UNL     1      -0.606  14.793  19.121  0.00  0.00    +0.000 C 
ATOM      9  N   UNL     1      -0.399  13.730  18.256  0.00  0.00    +0.000 N 
ATOM     10  H   UNL     1       0.196  13.896  17.454  0.00  0.00    +0.000 HD
BRANCH   8  11
ATOM     11  C   UNL     1      -0.136  16.118  18.645  0.00  0.00    +0.000 A 
ATOM     12  C   UNL     1      -0.977  17.230  18.508  0.00  0.00    +0.000 A 
ATOM     13  C   UNL     1      -0.475  18.450  18.052  0.00  0.00    +0.000 A 
ATOM     14  C   UNL     1       0.878  18.589  17.715  0.00  0.00    +0.000 A 
ATOM     15  C   UNL     1       1.746  17.490  17.858  0.00  0.00    +0.000 A 
ATOM     16  C   UNL     1       3.135  17.278  17.627  0.00  0.00    +0.000 A 
ATOM     17  C   UNL     1       3.425  15.973  17.966  0.00  0.00    +0.000 A 
ATOM     18  N   UNL     1       2.272  15.392  18.406  0.00  0.00    +0.000 N 
ATOM     19  C   UNL     1       1.224  16.287  18.328  0.00  0.00    +0.000 A 
ATOM     20  H   UNL     1       2.172  14.447  18.763  0.00  0.00    +0.000 HD
ENDBRANCH   8  11
ENDBRANCH   1   9
BRANCH   5  21
ATOM     21  O   UNL     1       0.841   9.484  20.287  0.00  0.00    +0.000 OA
BRANCH  21  22
ATOM     22  C   UNL     1       1.606   8.558  19.613  0.00  0.00    +0.000 A 
ATOM     23  C   UNL     1       1.776   8.830  18.253  0.00  0.00    +0.000 A 
ATOM     24  C   UNL     1       2.549   7.998  17.436  0.00  0.00    +0.000 A 
ATOM     25  C   UNL     1       3.169   6.871  18.006  0.00  0.00    +0.000 A 
ATOM     26  C   UNL     1       4.076   5.859  17.567  0.00  0.00    +0.000 A 
ATOM     27  N   UNL     1       4.340   4.987  18.555  0.00  0.00    +0.000 NA
ATOM     28  N   UNL     1       3.643   5.448  19.602  0.00  0.00    +0.000 N 
ATOM     29  C   UNL     1       2.935   6.590  19.348  0.00  0.00    +0.000 A 
ATOM     30  C   UNL     1       2.135   7.390  20.178  0.00  0.00    +0.000 A 
ATOM     31  H   UNL     1       3.720   4.951  20.482  0.00  0.00    +0.000 HD
BRANCH  26  32
ATOM     32  C   UNL     1       4.717   5.825  16.279  0.00  0.00    +0.000 C 
ATOM     33  C   UNL     1       5.026   4.685  15.640  0.00  0.00    +0.000 C 
BRANCH  33  34
ATOM     34  C   UNL     1       5.870   4.537  14.445  0.00  0.00    +0.000 A 
ATOM     35  C   UNL     1       5.400   3.681  13.438  0.00  0.00    +0.000 A 
ATOM     36  C   UNL     1       6.149   3.437  12.287  0.00  0.00    +0.000 A 
ATOM     37  C   UNL     1       7.380   4.061  12.120  0.00  0.00    +0.000 A 
ATOM     38  C   UNL     1       7.854   4.934  13.099  0.00  0.00    +0.000 A 
ATOM     39  C   UNL     1       7.100   5.177  14.256  0.00  0.00    +0.000 A 
ENDBRANCH  33  34
ENDBRANCH  26  32
ENDBRANCH  21  22
ENDBRANCH   5  21
TORSDOF 6
ENDMDL
MODEL 8
REMARK VINA RESULT:      -8.8      3.883     10.773
REMARK  Name = 
REMARK  6 active torsions:
REMARK  status: ('A' for Active; 'I' for Inactive)
REMARK    1  A    between atoms: C_2  and  C_28
REMARK    2  A    between atoms: N_3  and  C_4
REMARK    3  A    between atoms: C_8  and  O_9
REMARK    4  A    between atoms: O_9  and  C_10
REMARK    5  A    between atoms: C_14  and  C_15
REMARK    6  A    between atoms: C_16  and  C_17
REMARK                            x       y       z     vdW  Elec       q    Type
REMARK                         _______ _______ _______ _____ _____    ______ ____
ROOT
ATOM      1  C   UNL     1       5.394  16.895  19.248  0.00  0.00    +0.000 A 
ATOM      2  C   UNL     1       5.099  17.359  20.534  0.00  0.00    +0.000 A 
ATOM      3  C   UNL     1       3.799  17.293  21.035  0.00  0.00    +0.000 A 
ATOM      4  C   UNL     1       2.789  16.732  20.263  0.00  0.00    +0.000 A 
ATOM      5  C   UNL     1       3.072  16.254  18.983  0.00  0.00    +0.000 A 
ATOM      6  C   UNL     1       4.357  16.399  18.448  0.00  0.00    +0.000 A 
ENDROOT
BRANCH   1   9
ATOM      7  O   UNL     1       7.545  15.006  19.826  0.00  0.00    +0.000 OA
ATOM      8  C   UNL     1       7.682  15.957  19.061  0.00  0.00    +0.000 C 
ATOM      9  N   UNL     1       6.707  16.882  18.724  0.00  0.00    +0.000 N 
ATOM     10  H   UNL     1       6.872  17.450  17.902  0.00  0.00    +0.000 HD
BRANCH   8  11
ATOM     11  C   UNL     1       8.967  16.073  18.327  0.00  0.00    +0.000 A 
ATOM     12  C   UNL     1       9.572  17.300  18.023  0.00  0.00    +0.000 A 
ATOM     13  C   UNL     1      10.781  17.343  17.327  0.00  0.00    +0.000 A 
ATOM     14  C   UNL     1      11.414  16.163  16.912  0.00  0.00    +0.000 A 
ATOM     15  C   UNL     1      10.833  14.919  17.220  0.00  0.00    +0.000 A 
ATOM     16  C   UNL     1      11.190  13.562  16.974  0.00  0.00    +0.000 A 
ATOM     17  C   UNL     1      10.218  12.761  17.536  0.00  0.00    +0.000 A 
ATOM     18  N   UNL     1       9.297  13.577  18.125  0.00  0.00    +0.000 N 
ATOM     19  C   UNL     1       9.634  14.901  17.928  0.00  0.00    +0.000 A 
ATOM     20  H   UNL     1       8.483  13.283  18.655  0.00  0.00    +0.000 HD
ENDBRANCH   8  11
ENDBRANCH   1   9
BRANCH   5  21
ATOM     21  O   UNL     1       1.999  15.718  18.312  0.00  0.00    +0.000 OA
BRANCH  21  22
ATOM     22  C   UNL     1       1.652  14.395  18.473  0.00  0.00    +0.000 A 
ATOM     23  C   UNL     1       2.652  13.489  18.108  0.00  0.00    +0.000 A 
ATOM     24  C   UNL     1       2.464  12.108  18.239  0.00  0.00    +0.000 A 
ATOM     25  C   UNL     1       1.244  11.634  18.753  0.00  0.00    +0.000 A 
ATOM     26  C   UNL     1       0.701  10.364  19.118  0.00  0.00    +0.000 A 
ATOM     27  N   UNL     1      -0.561  10.488  19.560  0.00  0.00    +0.000 NA
ATOM     28  N   UNL     1      -0.806  11.804  19.505  0.00  0.00    +0.000 N 
ATOM     29  C   UNL     1       0.244  12.554  19.052  0.00  0.00    +0.000 A 
ATOM     30  C   UNL     1       0.397  13.939  18.896  0.00  0.00    +0.000 A 
ATOM     31  H   UNL     1      -1.708  12.135  19.828  0.00  0.00    +0.000 HD
BRANCH  26  32
ATOM     32  C   UNL     1       1.430   9.123  19.122  0.00  0.00    +0.000 C 
ATOM     33  C   UNL     1       2.167   8.698  18.082  0.00  0.00    +0.000 C 
BRANCH  33  34
ATOM     34  C   UNL     1       2.758   7.365  17.899  0.00  0.00    +0.000 A 
ATOM     35  C   UNL     1       4.009   7.306  17.267  0.00  0.00    +0.000 A 
ATOM     36  C   UNL     1       4.631   6.086  17.004  0.00  0.00    +0.000 A 
ATOM     37  C   UNL     1       4.014   4.900  17.385  0.00  0.00    +0.000 A 
ATOM     38  C   UNL     1       2.781   4.939  18.036  0.00  0.00    +0.000 A 
ATOM     39  C   UNL     1       2.156   6.166  18.298  0.00  0.00    +0.000 A 
ENDBRANCH  33  34
ENDBRANCH  26  32
ENDBRANCH  21  22
ENDBRANCH   5  21
TORSDOF 6
ENDMDL
MODEL 9
REMARK VINA RESULT:      -8.7      3.862      7.049
REMARK  Name = 
REMARK  6 active torsions:
REMARK  status: ('A' for Active; 'I' for Inactive)
REMARK    1  A    between atoms: C_2  and  C_28
REMARK    2  A    between atoms: N_3  and  C_4
REMARK    3  A    between atoms: C_8  and  O_9
REMARK    4  A    between atoms: O_9  and  C_10
REMARK    5  A    between atoms: C_14  and  C_15
REMARK    6  A    between atoms: C_16  and  C_17
REMARK                            x       y       z     vdW  Elec       q    Type
REMARK                         _______ _______ _______ _____ _____    ______ ____
ROOT
ATOM      1  C   UNL     1       0.654  11.044  19.846  0.00  0.00    +0.000 A 
ATOM      2  C   UNL     1      -0.676  10.937  20.262  0.00  0.00    +0.000 A 
ATOM      3  C   UNL     1      -1.125   9.797  20.929  0.00  0.00    +0.000 A 
ATOM      4  C   UNL     1      -0.235   8.768  21.213  0.00  0.00    +0.000 A 
ATOM      5  C   UNL     1       1.098   8.867  20.814  0.00  0.00    +0.000 A 
ATOM      6  C   UNL     1       1.527   9.972  20.070  0.00  0.00    +0.000 A 
ENDROOT
BRANCH   1   9
ATOM      7  O   UNL     1       1.970  13.327  21.106  0.00  0.00    +0.000 OA
ATOM      8  C   UNL     1       1.768  13.260  19.897  0.00  0.00    +0.000 C 
ATOM      9  N   UNL     1       1.168  12.206  19.226  0.00  0.00    +0.000 N 
ATOM     10  H   UNL     1       1.294  12.165  18.222  0.00  0.00    +0.000 HD
BRANCH   8  11
ATOM     11  C   UNL     1       2.317  14.344  19.044  0.00  0.00    +0.000 A 
ATOM     12  C   UNL     1       3.580  14.283  18.441  0.00  0.00    +0.000 A 
ATOM     13  C   UNL     1       4.042  15.337  17.652  0.00  0.00    +0.000 A 
ATOM     14  C   UNL     1       3.258  16.482  17.450  0.00  0.00    +0.000 A 
ATOM     15  C   UNL     1       1.980  16.559  18.034  0.00  0.00    +0.000 A 
ATOM     16  C   UNL     1       0.940  17.532  18.035  0.00  0.00    +0.000 A 
ATOM     17  C   UNL     1      -0.103  17.035  18.789  0.00  0.00    +0.000 A 
ATOM     18  N   UNL     1       0.259  15.795  19.231  0.00  0.00    +0.000 N 
ATOM     19  C   UNL     1       1.535  15.488  18.806  0.00  0.00    +0.000 A 
ATOM     20  H   UNL     1      -0.315  15.160  19.778  0.00  0.00    +0.000 HD
ENDBRANCH   8  11
ENDBRANCH   1   9
BRANCH   5  21
ATOM     21  O   UNL     1       1.888   7.793  21.150  0.00  0.00    +0.000 OA
BRANCH  21  22
ATOM     22  C   UNL     1       2.123   6.778  20.250  0.00  0.00    +0.000 A 
ATOM     23  C   UNL     1       2.707   7.195  19.052  0.00  0.00    +0.000 A 
ATOM     24  C   UNL     1       3.033   6.278  18.045  0.00  0.00    +0.000 A 
ATOM     25  C   UNL     1       2.770   4.913  18.257  0.00  0.00    +0.000 A 
ATOM     26  C   UNL     1       3.019   3.693  17.559  0.00  0.00    +0.000 A 
ATOM     27  N   UNL     1       2.525   2.641  18.233  0.00  0.00    +0.000 NA
ATOM     28  N   UNL     1       2.000   3.174  19.344  0.00  0.00    +0.000 N 
ATOM     29  C   UNL     1       2.133   4.533  19.434  0.00  0.00    +0.000 A 
ATOM     30  C   UNL     1       1.765   5.437  20.441  0.00  0.00    +0.000 A 
ATOM     31  H   UNL     1       1.591   2.547  20.027  0.00  0.00    +0.000 HD
BRANCH  26  32
ATOM     32  C   UNL     1       3.791   3.575  16.350  0.00  0.00    +0.000 C 
ATOM     33  C   UNL     1       4.999   4.140  16.189  0.00  0.00    +0.000 C 
BRANCH  33  34
ATOM     34  C   UNL     1       5.760   4.268  14.937  0.00  0.00    +0.000 A 
ATOM     35  C   UNL     1       5.257   3.591  13.817  0.00  0.00    +0.000 A 
ATOM     36  C   UNL     1       5.930   3.610  12.595  0.00  0.00    +0.000 A 
ATOM     37  C   UNL     1       7.117   4.325  12.474  0.00  0.00    +0.000 A 
ATOM     38  C   UNL     1       7.621   5.024  13.570  0.00  0.00    +0.000 A 
ATOM     39  C   UNL     1       6.943   5.002  14.797  0.00  0.00    +0.000 A 
ENDBRANCH  33  34
ENDBRANCH  26  32
ENDBRANCH  21  22
ENDBRANCH   5  21
TORSDOF 6
ENDMDL
