MODEL 1
REMARK VINA RESULT:      -7.3      0.000      0.000
REMARK  Name = 
REMARK  5 active torsions:
REMARK  status: ('A' for Active; 'I' for Inactive)
REMARK    1  A    between atoms: C_1  and  C_2
REMARK    2  A    between atoms: C_2  and  C_3
REMARK    3  A    between atoms: N_10  and  C_11
REMARK    4  A    between atoms: C_11  and  C_12
REMARK    5  A    between atoms: C_14  and  C_15
REMARK                            x       y       z     vdW  Elec       q    Type
REMARK                         _______ _______ _______ _____ _____    ______ ____
ROOT
ATOM      1  C   UNL     1       6.576   4.251  14.234  0.00  0.00    +0.000 A 
ATOM      2  N   UNL     1       7.548   5.050  14.709  0.00  0.00    +0.000 NA
ATOM      3  C   UNL     1       7.518   5.304  16.031  0.00  0.00    +0.000 A 
ATOM      4  C   UNL     1       6.550   4.813  16.880  0.00  0.00    +0.000 A 
ATOM      5  C   UNL     1       5.597   3.995  16.301  0.00  0.00    +0.000 A 
ATOM      6  N   UNL     1       5.594   3.712  14.980  0.00  0.00    +0.000 NA
ATOM      7  C   UNL     1       4.434   3.459  17.111  0.00  0.00    +0.000 C 
ATOM      8  N   UNL     1       4.474   3.704  18.578  0.00  0.00    +0.000 NA
ATOM      9  C   UNL     1       5.092   5.006  18.889  0.00  0.00    +0.000 C 
ATOM     10  C   UNL     1       6.521   5.109  18.342  0.00  0.00    +0.000 C 
ENDROOT
BRANCH   1  12
ATOM     11  C   UNL     1       5.189   3.419  12.341  0.00  0.00    +0.000 C 
ATOM     12  C   UNL     1       6.532   4.000  12.753  0.00  0.00    +0.000 C 
ENDBRANCH   1  12
BRANCH   8  13
ATOM     13  C   UNL     1       3.101   3.679  19.139  0.00  0.00    +0.000 C 
BRANCH  13  14
ATOM     14  C   UNL     1       2.528   5.013  19.484  0.00  0.00    +0.000 A 
ATOM     15  N   UNL     1       2.414   6.090  18.737  0.00  0.00    +0.000 NA
ATOM     16  C   UNL     1       1.923   7.007  19.633  0.00  0.00    +0.000 A 
ATOM     17  N   UNL     1       1.729   6.536  20.873  0.00  0.00    +0.000 NA
ATOM     18  O   UNL     1       2.127   5.201  20.775  0.00  0.00    +0.000 OA
BRANCH  16  19
ATOM     19  C   UNL     1       1.694   8.397  19.233  0.00  0.00    +0.000 A 
ATOM     20  C   UNL     1       2.216   8.955  18.027  0.00  0.00    +0.000 A 
ATOM     21  C   UNL     1       1.884  10.285  17.880  0.00  0.00    +0.000 A 
ATOM     22  S   UNL     1       0.938  10.858  19.185  0.00  0.00    +0.000 S 
ATOM     23  C   UNL     1       0.970   9.325  19.951  0.00  0.00    +0.000 A 
ENDBRANCH  16  19
ENDBRANCH  13  14
ENDBRANCH   8  13
TORSDOF 4
ENDMDL
MODEL 2
REMARK VINA RESULT:      -7.2      4.435      6.605
REMARK  Name = 
REMARK  5 active torsions:
REMARK  status: ('A' for Active; 'I' for Inactive)
REMARK    1  A    between atoms: C_1  and  C_2
REMARK    2  A    between atoms: C_2  and  C_3
REMARK    3  A    between atoms: N_10  and  C_11
REMARK    4  A    between atoms: C_11  and  C_12
REMARK    5  A    between atoms: C_14  and  C_15
REMARK                            x       y       z     vdW  Elec       q    Type
REMARK                         _______ _______ _______ _____ _____    ______ ____
ROOT
ATOM      1  C   UNL     1       2.539   3.792  19.791  0.00  0.00    +0.000 A 
ATOM      2  N   UNL     1       2.320   2.747  18.973  0.00  0.00    +0.000 NA
ATOM      3  C   UNL     1       3.088   2.683  17.870  0.00  0.00    +0.000 A 
ATOM      4  C   UNL     1       4.039   3.626  17.546  0.00  0.00    +0.000 A 
ATOM      5  C   UNL     1       4.197   4.660  18.451  0.00  0.00    +0.000 A 
ATOM      6  N   UNL     1       3.450   4.758  19.573  0.00  0.00    +0.000 NA
ATOM      7  C   UNL     1       5.151   5.803  18.171  0.00  0.00    +0.000 C 
ATOM      8  N   UNL     1       6.029   5.661  16.978  0.00  0.00    +0.000 NA
ATOM      9  C   UNL     1       5.342   4.948  15.886  0.00  0.00    +0.000 C 
ATOM     10  C   UNL     1       4.878   3.551  16.314  0.00  0.00    +0.000 C 
ENDROOT
BRANCH   1  12
ATOM     11  C   UNL     1       1.498   2.611  21.721  0.00  0.00    +0.000 C 
ATOM     12  C   UNL     1       1.655   3.939  20.998  0.00  0.00    +0.000 C 
ENDBRANCH   1  12
BRANCH   8  13
ATOM     13  C   UNL     1       6.448   6.998  16.489  0.00  0.00    +0.000 C 
BRANCH  13  14
ATOM     14  C   UNL     1       7.308   7.779  17.427  0.00  0.00    +0.000 A 
ATOM     15  N   UNL     1       7.577   9.067  17.434  0.00  0.00    +0.000 NA
ATOM     16  C   UNL     1       8.498   9.159  18.449  0.00  0.00    +0.000 A 
ATOM     17  N   UNL     1       8.788   7.998  19.054  0.00  0.00    +0.000 NA
ATOM     18  O   UNL     1       7.990   7.074  18.376  0.00  0.00    +0.000 OA
BRANCH  16  19
ATOM     19  C   UNL     1       9.129  10.439  18.774  0.00  0.00    +0.000 A 
ATOM     20  C   UNL     1       9.042  11.586  17.928  0.00  0.00    +0.000 A 
ATOM     21  C   UNL     1       9.733  12.665  18.438  0.00  0.00    +0.000 A 
ATOM     22  S   UNL     1      10.477  12.301  19.935  0.00  0.00    +0.000 S 
ATOM     23  C   UNL     1       9.874  10.697  19.905  0.00  0.00    +0.000 A 
ENDBRANCH  16  19
ENDBRANCH  13  14
ENDBRANCH   8  13
TORSDOF 4
ENDMDL
MODEL 3
REMARK VINA RESULT:      -7.2      3.139      7.998
REMARK  Name = 
REMARK  5 active torsions:
REMARK  status: ('A' for Active; 'I' for Inactive)
REMARK    1  A    between atoms: C_1  and  C_2
REMARK    2  A    between atoms: C_2  and  C_3
REMARK    3  A    between atoms: N_10  and  C_11
REMARK    4  A    between atoms: C_11  and  C_12
REMARK    5  A    between atoms: C_14  and  C_15
REMARK                            x       y       z     vdW  Elec       q    Type
REMARK                         _______ _______ _______ _____ _____    ______ ____
ROOT
ATOM      1  C   UNL     1       0.653   9.070  21.407  0.00  0.00    +0.000 A 
ATOM      2  N   UNL     1       0.580  10.015  20.453  0.00  0.00    +0.000 NA
ATOM      3  C   UNL     1       1.163   9.719  19.276  0.00  0.00    +0.000 A 
ATOM      4  C   UNL     1       1.827   8.537  19.029  0.00  0.00    +0.000 A 
ATOM      5  C   UNL     1       1.842   7.625  20.068  0.00  0.00    +0.000 A 
ATOM      6  N   UNL     1       1.266   7.881  21.263  0.00  0.00    +0.000 NA
ATOM      7  C   UNL     1       2.609   6.324  19.952  0.00  0.00    +0.000 C 
ATOM      8  N   UNL     1       3.180   6.004  18.616  0.00  0.00    +0.000 NA
ATOM      9  C   UNL     1       3.623   7.222  17.914  0.00  0.00    +0.000 C 
ATOM     10  C   UNL     1       2.478   8.224  17.724  0.00  0.00    +0.000 C 
ENDROOT
BRANCH   1  12
ATOM     11  C   UNL     1      -0.794  10.633  22.698  0.00  0.00    +0.000 C 
ATOM     12  C   UNL     1       0.077   9.389  22.759  0.00  0.00    +0.000 C 
ENDBRANCH   1  12
BRANCH   8  13
ATOM     13  C   UNL     1       4.337   5.086  18.760  0.00  0.00    +0.000 C 
BRANCH  13  14
ATOM     14  C   UNL     1       5.263   5.037  17.590  0.00  0.00    +0.000 A 
ATOM     15  N   UNL     1       4.995   4.791  16.326  0.00  0.00    +0.000 NA
ATOM     16  C   UNL     1       6.250   4.775  15.767  0.00  0.00    +0.000 A 
ATOM     17  N   UNL     1       7.253   5.006  16.628  0.00  0.00    +0.000 NA
ATOM     18  O   UNL     1       6.595   5.187  17.846  0.00  0.00    +0.000 OA
BRANCH  16  19
ATOM     19  C   UNL     1       6.434   4.470  14.347  0.00  0.00    +0.000 A 
ATOM     20  C   UNL     1       5.594   3.567  13.630  0.00  0.00    +0.000 A 
ATOM     21  C   UNL     1       5.978   3.429  12.313  0.00  0.00    +0.000 A 
ATOM     22  S   UNL     1       7.341   4.392  11.938  0.00  0.00    +0.000 S 
ATOM     23  C   UNL     1       7.420   4.998  13.540  0.00  0.00    +0.000 A 
ENDBRANCH  16  19
ENDBRANCH  13  14
ENDBRANCH   8  13
TORSDOF 4
ENDMDL
MODEL 4
REMARK VINA RESULT:      -7.2      1.300      1.926
REMARK  Name = 
REMARK  5 active torsions:
REMARK  status: ('A' for Active; 'I' for Inactive)
REMARK    1  A    between atoms: C_1  and  C_2
REMARK    2  A    between atoms: C_2  and  C_3
REMARK    3  A    between atoms: N_10  and  C_11
REMARK    4  A    between atoms: C_11  and  C_12
REMARK    5  A    between atoms: C_14  and  C_15
REMARK                            x       y       z     vdW  Elec       q    Type
REMARK                         _______ _______ _______ _____ _____    ______ ____
ROOT
ATOM      1  C   UNL     1       6.213   4.114  14.633  0.00  0.00    +0.000 A 
ATOM      2  N   UNL     1       7.336   4.717  15.062  0.00  0.00    +0.000 NA
ATOM      3  C   UNL     1       7.374   5.047  16.366  0.00  0.00    +0.000 A 
ATOM      4  C   UNL     1       6.334   4.821  17.241  0.00  0.00    +0.000 A 
ATOM      5  C   UNL     1       5.224   4.190  16.709  0.00  0.00    +0.000 A 
ATOM      6  N   UNL     1       5.148   3.838  15.407  0.00  0.00    +0.000 NA
ATOM      7  C   UNL     1       3.983   3.959  17.546  0.00  0.00    +0.000 C 
ATOM      8  N   UNL     1       4.088   4.275  18.997  0.00  0.00    +0.000 NA
ATOM      9  C   UNL     1       4.970   5.433  19.232  0.00  0.00    +0.000 C 
ATOM     10  C   UNL     1       6.382   5.201  18.683  0.00  0.00    +0.000 C 
ENDROOT
BRANCH   1  12
ATOM     11  C   UNL     1       7.265   4.389  12.392  0.00  0.00    +0.000 C 
ATOM     12  C   UNL     1       6.102   3.793  13.169  0.00  0.00    +0.000 C 
ENDBRANCH   1  12
BRANCH   8  13
ATOM     13  C   UNL     1       2.746   4.573  19.555  0.00  0.00    +0.000 C 
BRANCH  13  14
ATOM     14  C   UNL     1       2.375   6.018  19.588  0.00  0.00    +0.000 A 
ATOM     15  N   UNL     1       1.865   6.725  20.573  0.00  0.00    +0.000 NA
ATOM     16  C   UNL     1       1.644   7.938  19.969  0.00  0.00    +0.000 A 
ATOM     17  N   UNL     1       2.001   7.998  18.678  0.00  0.00    +0.000 NA
ATOM     18  O   UNL     1       2.496   6.717  18.422  0.00  0.00    +0.000 OA
BRANCH  16  19
ATOM     19  C   UNL     1       1.013   9.037  20.702  0.00  0.00    +0.000 A 
ATOM     20  C   UNL     1       0.455   8.882  22.007  0.00  0.00    +0.000 A 
ATOM     21  C   UNL     1      -0.098  10.053  22.481  0.00  0.00    +0.000 A 
ATOM     22  S   UNL     1       0.063  11.337  21.363  0.00  0.00    +0.000 S 
ATOM     23  C   UNL     1       0.875  10.329  20.240  0.00  0.00    +0.000 A 
ENDBRANCH  16  19
ENDBRANCH  13  14
ENDBRANCH   8  13
TORSDOF 4
ENDMDL
MODEL 5
REMARK VINA RESULT:      -7.1      4.249      6.559
REMARK  Name = 
REMARK  5 active torsions:
REMARK  status: ('A' for Active; 'I' for Inactive)
REMARK    1  A    between atoms: C_1  and  C_2
REMARK    2  A    between atoms: C_2  and  C_3
REMARK    3  A    between atoms: N_10  and  C_11
REMARK    4  A    between atoms: C_11  and  C_12
REMARK    5  A    between atoms: C_14  and  C_15
REMARK                            x       y       z     vdW  Elec       q    Type
REMARK                         _______ _______ _______ _____ _____    ______ ____
ROOT
ATOM      1  C   UNL     1       2.844   3.601  20.304  0.00  0.00    +0.000 A 
ATOM      2  N   UNL     1       1.891   4.550  20.307  0.00  0.00    +0.000 NA
ATOM      3  C   UNL     1       2.056   5.563  19.436  0.00  0.00    +0.000 A 
ATOM      4  C   UNL     1       3.137   5.671  18.588  0.00  0.00    +0.000 A 
ATOM      5  C   UNL     1       4.060   4.643  18.652  0.00  0.00    +0.000 A 
ATOM      6  N   UNL     1       3.929   3.608  19.510  0.00  0.00    +0.000 NA
ATOM      7  C   UNL     1       5.333   4.687  17.832  0.00  0.00    +0.000 C 
ATOM      8  N   UNL     1       5.445   5.784  16.833  0.00  0.00    +0.000 NA
ATOM      9  C   UNL     1       4.800   7.018  17.315  0.00  0.00    +0.000 C 
ATOM     10  C   UNL     1       3.315   6.804  17.633  0.00  0.00    +0.000 C 
ENDROOT
BRANCH   1  12
ATOM     11  C   UNL     1       1.377   2.508  21.994  0.00  0.00    +0.000 C 
ATOM     12  C   UNL     1       2.734   2.490  21.311  0.00  0.00    +0.000 C 
ENDBRANCH   1  12
BRANCH   8  13
ATOM     13  C   UNL     1       6.873   6.070  16.545  0.00  0.00    +0.000 C 
BRANCH  13  14
ATOM     14  C   UNL     1       7.497   7.122  17.401  0.00  0.00    +0.000 A 
ATOM     15  N   UNL     1       7.649   8.407  17.163  0.00  0.00    +0.000 NA
ATOM     16  C   UNL     1       8.380   8.813  18.253  0.00  0.00    +0.000 A 
ATOM     17  N   UNL     1       8.668   7.842  19.132  0.00  0.00    +0.000 NA
ATOM     18  O   UNL     1       8.073   6.712  18.568  0.00  0.00    +0.000 OA
BRANCH  16  19
ATOM     19  C   UNL     1       8.837  10.199  18.375  0.00  0.00    +0.000 A 
ATOM     20  C   UNL     1       8.263  11.275  17.633  0.00  0.00    +0.000 A 
ATOM     21  C   UNL     1       8.873  12.481  17.904  0.00  0.00    +0.000 A 
ATOM     22  S   UNL     1      10.127  12.320  19.057  0.00  0.00    +0.000 S 
ATOM     23  C   UNL     1       9.855  10.634  19.196  0.00  0.00    +0.000 A 
ENDBRANCH  16  19
ENDBRANCH  13  14
ENDBRANCH   8  13
TORSDOF 4
ENDMDL
MODEL 6
REMARK VINA RESULT:      -7.0      1.333      1.670
REMARK  Name = 
REMARK  5 active torsions:
REMARK  status: ('A' for Active; 'I' for Inactive)
REMARK    1  A    between atoms: C_1  and  C_2
REMARK    2  A    between atoms: C_2  and  C_3
REMARK    3  A    between atoms: N_10  and  C_11
REMARK    4  A    between atoms: C_11  and  C_12
REMARK    5  A    between atoms: C_14  and  C_15
REMARK                            x       y       z     vdW  Elec       q    Type
REMARK                         _______ _______ _______ _____ _____    ______ ____
ROOT
ATOM      1  C   UNL     1       6.433   4.267  14.278  0.00  0.00    +0.000 A 
ATOM      2  N   UNL     1       7.522   4.930  14.705  0.00  0.00    +0.000 NA
ATOM      3  C   UNL     1       7.549   5.256  16.011  0.00  0.00    +0.000 A 
ATOM      4  C   UNL     1       6.527   4.967  16.890  0.00  0.00    +0.000 A 
ATOM      5  C   UNL     1       5.452   4.276  16.360  0.00  0.00    +0.000 A 
ATOM      6  N   UNL     1       5.390   3.927  15.057  0.00  0.00    +0.000 NA
ATOM      7  C   UNL     1       4.231   3.971  17.202  0.00  0.00    +0.000 C 
ATOM      8  N   UNL     1       4.326   4.286  18.654  0.00  0.00    +0.000 NA
ATOM      9  C   UNL     1       5.141   5.491  18.891  0.00  0.00    +0.000 C 
ATOM     10  C   UNL     1       6.562   5.342  18.334  0.00  0.00    +0.000 C 
ENDROOT
BRANCH   1  12
ATOM     11  C   UNL     1       4.925   3.503  12.450  0.00  0.00    +0.000 C 
ATOM     12  C   UNL     1       6.333   3.946  12.813  0.00  0.00    +0.000 C 
ENDBRANCH   1  12
BRANCH   8  13
ATOM     13  C   UNL     1       2.971   4.503  19.220  0.00  0.00    +0.000 C 
BRANCH  13  14
ATOM     14  C   UNL     1       2.551   5.930  19.337  0.00  0.00    +0.000 A 
ATOM     15  N   UNL     1       1.965   6.547  20.341  0.00  0.00    +0.000 NA
ATOM     16  C   UNL     1       1.737   7.795  19.815  0.00  0.00    +0.000 A 
ATOM     17  N   UNL     1       2.162   7.961  18.554  0.00  0.00    +0.000 NA
ATOM     18  O   UNL     1       2.712   6.718  18.234  0.00  0.00    +0.000 OA
BRANCH  16  19
ATOM     19  C   UNL     1       1.031   8.817  20.590  0.00  0.00    +0.000 A 
ATOM     20  C   UNL     1       0.517  10.016  20.009  0.00  0.00    +0.000 A 
ATOM     21  C   UNL     1      -0.089  10.830  20.941  0.00  0.00    +0.000 A 
ATOM     22  S   UNL     1      -0.047  10.150  22.511  0.00  0.00    +0.000 S 
ATOM     23  C   UNL     1       0.782   8.761  21.945  0.00  0.00    +0.000 A 
ENDBRANCH  16  19
ENDBRANCH  13  14
ENDBRANCH   8  13
TORSDOF 4
ENDMDL
MODEL 7
REMARK VINA RESULT:      -7.0      3.696      6.287
REMARK  Name = 
REMARK  5 active torsions:
REMARK  status: ('A' for Active; 'I' for Inactive)
REMARK    1  A    between atoms: C_1  and  C_2
REMARK    2  A    between atoms: C_2  and  C_3
REMARK    3  A    between atoms: N_10  and  C_11
REMARK    4  A    between atoms: C_11  and  C_12
REMARK    5  A    between atoms: C_14  and  C_15
REMARK                            x       y       z     vdW  Elec       q    Type
REMARK                         _______ _______ _______ _____ _____    ______ ____
ROOT
ATOM      1  C   UNL     1       2.893   4.112  19.801  0.00  0.00    +0.000 A 
ATOM      2  N   UNL     1       3.508   4.104  18.605  0.00  0.00    +0.000 NA
ATOM      3  C   UNL     1       3.565   5.281  17.955  0.00  0.00    +0.000 A 
ATOM      4  C   UNL     1       3.014   6.447  18.440  0.00  0.00    +0.000 A 
ATOM      5  C   UNL     1       2.409   6.359  19.681  0.00  0.00    +0.000 A 
ATOM      6  N   UNL     1       2.335   5.198  20.368  0.00  0.00    +0.000 NA
ATOM      7  C   UNL     1       1.695   7.550  20.286  0.00  0.00    +0.000 C 
ATOM      8  N   UNL     1       1.838   8.847  19.571  0.00  0.00    +0.000 NA
ATOM      9  C   UNL     1       1.905   8.653  18.111  0.00  0.00    +0.000 C 
ATOM     10  C   UNL     1       3.073   7.745  17.706  0.00  0.00    +0.000 C 
ENDROOT
BRANCH   1  12
ATOM     11  C   UNL     1       1.784   2.938  21.696  0.00  0.00    +0.000 C 
ATOM     12  C   UNL     1       2.747   2.805  20.528  0.00  0.00    +0.000 C 
ENDBRANCH   1  12
BRANCH   8  13
ATOM     13  C   UNL     1       0.689   9.734  19.884  0.00  0.00    +0.000 C 
BRANCH  13  14
ATOM     14  C   UNL     1       1.020  11.184  20.012  0.00  0.00    +0.000 A 
ATOM     15  N   UNL     1       1.258  12.070  19.070  0.00  0.00    +0.000 NA
ATOM     16  C   UNL     1       1.604  13.179  19.804  0.00  0.00    +0.000 A 
ATOM     17  N   UNL     1       1.578  13.005  21.133  0.00  0.00    +0.000 NA
ATOM     18  O   UNL     1       1.182  11.674  21.276  0.00  0.00    +0.000 OA
BRANCH  16  19
ATOM     19  C   UNL     1       2.017  14.417  19.141  0.00  0.00    +0.000 A 
ATOM     20  C   UNL     1       1.255  15.623  19.202  0.00  0.00    +0.000 A 
ATOM     21  C   UNL     1       1.836  16.646  18.484  0.00  0.00    +0.000 A 
ATOM     22  S   UNL     1       3.301  16.159  17.746  0.00  0.00    +0.000 S 
ATOM     23  C   UNL     1       3.161  14.576  18.388  0.00  0.00    +0.000 A 
ENDBRANCH  16  19
ENDBRANCH  13  14
ENDBRANCH   8  13
TORSDOF 4
ENDMDL
MODEL 8
REMARK VINA RESULT:      -6.9      3.509      4.719
REMARK  Name = 
REMARK  5 active torsions:
REMARK  status: ('A' for Active; 'I' for Inactive)
REMARK    1  A    between atoms: C_1  and  C_2
REMARK    2  A    between atoms: C_2  and  C_3
REMARK    3  A    between atoms: N_10  and  C_11
REMARK    4  A    between atoms: C_11  and  C_12
REMARK    5  A    between atoms: C_14  and  C_15
REMARK                            x       y       z     vdW  Elec       q    Type
REMARK                         _______ _______ _______ _____ _____    ______ ____
ROOT
ATOM      1  C   UNL     1       5.768   4.987  16.970  0.00  0.00    +0.000 A 
ATOM      2  N   UNL     1       5.533   4.159  18.003  0.00  0.00    +0.000 NA
ATOM      3  C   UNL     1       4.506   4.486  18.809  0.00  0.00    +0.000 A 
ATOM      4  C   UNL     1       3.728   5.610  18.634  0.00  0.00    +0.000 A 
ATOM      5  C   UNL     1       4.041   6.397  17.540  0.00  0.00    +0.000 A 
ATOM      6  N   UNL     1       5.061   6.101  16.706  0.00  0.00    +0.000 NA
ATOM      7  C   UNL     1       3.315   7.702  17.286  0.00  0.00    +0.000 C 
ATOM      8  N   UNL     1       2.143   7.994  18.156  0.00  0.00    +0.000 NA
ATOM      9  C   UNL     1       2.347   7.483  19.523  0.00  0.00    +0.000 C 
ATOM     10  C   UNL     1       2.597   5.970  19.539  0.00  0.00    +0.000 C 
ENDROOT
BRANCH   1  12
ATOM     11  C   UNL     1       6.500   4.231  14.713  0.00  0.00    +0.000 C 
ATOM     12  C   UNL     1       6.950   4.696  16.088  0.00  0.00    +0.000 C 
ENDBRANCH   1  12
BRANCH   8  13
ATOM     13  C   UNL     1       1.906   9.458  18.221  0.00  0.00    +0.000 C 
BRANCH  13  14
ATOM     14  C   UNL     1       0.500   9.864  18.514  0.00  0.00    +0.000 A 
ATOM     15  N   UNL     1      -0.505  10.044  17.685  0.00  0.00    +0.000 NA
ATOM     16  C   UNL     1      -1.486  10.513  18.525  0.00  0.00    +0.000 A 
ATOM     17  N   UNL     1      -1.124  10.615  19.812  0.00  0.00    +0.000 NA
ATOM     18  O   UNL     1       0.202  10.176  19.809  0.00  0.00    +0.000 OA
BRANCH  16  19
ATOM     19  C   UNL     1      -2.794  10.911  18.001  0.00  0.00    +0.000 A 
ATOM     20  C   UNL     1      -3.294  10.467  16.740  0.00  0.00    +0.000 A 
ATOM     21  C   UNL     1      -4.537  10.991  16.457  0.00  0.00    +0.000 A 
ATOM     22  S   UNL     1      -5.106  12.007  17.711  0.00  0.00    +0.000 S 
ATOM     23  C   UNL     1      -3.687  11.746  18.637  0.00  0.00    +0.000 A 
ENDBRANCH  16  19
ENDBRANCH  13  14
ENDBRANCH   8  13
TORSDOF 4
ENDMDL
MODEL 9
REMARK VINA RESULT:      -6.9      3.395      5.479
REMARK  Name = 
REMARK  5 active torsions:
REMARK  status: ('A' for Active; 'I' for Inactive)
REMARK    1  A    between atoms: C_1  and  C_2
REMARK    2  A    between atoms: C_2  and  C_3
REMARK    3  A    between atoms: N_10  and  C_11
REMARK    4  A    between atoms: C_11  and  C_12
REMARK    5  A    between atoms: C_14  and  C_15
REMARK                            x       y       z     vdW  Elec       q    Type
REMARK                         _______ _______ _______ _____ _____    ______ ____
ROOT
ATOM      1  C   UNL     1       3.357   3.493  20.486  0.00  0.00    +0.000 A 
ATOM      2  N   UNL     1       4.457   3.110  19.814  0.00  0.00    +0.000 NA
ATOM      3  C   UNL     1       4.957   3.996  18.933  0.00  0.00    +0.000 A 
ATOM      4  C   UNL     1       4.390   5.227  18.685  0.00  0.00    +0.000 A 
ATOM      5  C   UNL     1       3.265   5.535  19.428  0.00  0.00    +0.000 A 
ATOM      6  N   UNL     1       2.735   4.675  20.325  0.00  0.00    +0.000 NA
ATOM      7  C   UNL     1       2.502   6.822  19.190  0.00  0.00    +0.000 C 
ATOM      8  N   UNL     1       3.123   7.803  18.260  0.00  0.00    +0.000 NA
ATOM      9  C   UNL     1       3.847   7.126  17.169  0.00  0.00    +0.000 C 
ATOM     10  C   UNL     1       4.947   6.198  17.698  0.00  0.00    +0.000 C 
ENDROOT
BRANCH   1  12
ATOM     11  C   UNL     1       1.219   2.694  21.482  0.00  0.00    +0.000 C 
ATOM     12  C   UNL     1       2.726   2.505  21.427  0.00  0.00    +0.000 C 
ENDBRANCH   1  12
BRANCH   8  13
ATOM     13  C   UNL     1       2.081   8.681  17.672  0.00  0.00    +0.000 C 
BRANCH  13  14
ATOM     14  C   UNL     1       1.545   9.734  18.585  0.00  0.00    +0.000 A 
ATOM     15  N   UNL     1       0.753   9.609  19.627  0.00  0.00    +0.000 NA
ATOM     16  C   UNL     1       0.530  10.919  19.975  0.00  0.00    +0.000 A 
ATOM     17  N   UNL     1       1.153  11.820  19.202  0.00  0.00    +0.000 NA
ATOM     18  O   UNL     1       1.837  11.031  18.275  0.00  0.00    +0.000 OA
BRANCH  16  19
ATOM     19  C   UNL     1      -0.370  11.259  21.079  0.00  0.00    +0.000 A 
ATOM     20  C   UNL     1      -0.411  10.525  22.302  0.00  0.00    +0.000 A 
ATOM     21  C   UNL     1      -1.351  11.024  23.179  0.00  0.00    +0.000 A 
ATOM     22  S   UNL     1      -2.174  12.378  22.535  0.00  0.00    +0.000 S 
ATOM     23  C   UNL     1      -1.273  12.301  21.079  0.00  0.00    +0.000 A 
ENDBRANCH  16  19
ENDBRANCH  13  14
ENDBRANCH   8  13
TORSDOF 4
ENDMDL
