MODEL 1
REMARK VINA RESULT:      -5.9      0.000      0.000
REMARK  Name = 
REMARK  5 active torsions:
REMARK  status: ('A' for Active; 'I' for Inactive)
REMARK    1  A    between atoms: P_2  and  O_3
REMARK    2  A    between atoms: P_2  and  O_4
REMARK    3  A    between atoms: P_2  and  C_5
REMARK    4  A    between atoms: C_5  and  O_6
REMARK    5  A    between atoms: C_5  and  C_7
REMARK                            x       y       z     vdW  Elec       q    Type
REMARK                         _______ _______ _______ _____ _____    ______ ____
ROOT
ATOM      1  C   UNL     1       5.302   4.538  17.121  0.00  0.00    +0.000 C 
ENDROOT
BRANCH   1   2
ATOM      2  C   UNL     1       3.910   4.063  17.500  0.00  0.00    +0.000 A 
ATOM      3  C   UNL     1       2.883   4.968  17.764  0.00  0.00    +0.000 A 
ATOM      4  C   UNL     1       1.619   4.479  18.092  0.00  0.00    +0.000 A 
ATOM      5  C   UNL     1       1.416   3.109  18.157  0.00  0.00    +0.000 A 
ATOM      6  C   UNL     1       2.490   2.276  17.898  0.00  0.00    +0.000 A 
ATOM      7  N   UNL     1       3.731   2.718  17.579  0.00  0.00    +0.000 NA
ENDBRANCH   1   2
BRANCH   1   9
ATOM      8  O   UNL     1       7.076   5.375  19.871  0.00  0.00    +0.000 OA
ATOM      9  P   UNL     1       6.263   4.991  18.611  0.00  0.00    +0.000 P 
BRANCH   9  10
ATOM     10  O   UNL     1       7.583   4.249  17.957  0.00  0.00    +0.000 OA
ATOM     11  H   UNL     1       7.277   3.405  17.571  0.00  0.00    +0.000 HD
ENDBRANCH   9  10
BRANCH   9  12
ATOM     12  O   UNL     1       5.686   3.631  19.369  0.00  0.00    +0.000 OA
ATOM     13  H   UNL     1       5.476   2.995  18.651  0.00  0.00    +0.000 HD
ENDBRANCH   9  12
ENDBRANCH   1   9
BRANCH   1  14
ATOM     14  O   UNL     1       5.990   3.509  16.369  0.00  0.00    +0.000 OA
ATOM     15  H   UNL     1       6.922   3.609  16.670  0.00  0.00    +0.000 HD
ENDBRANCH   1  14
TORSDOF 5
ENDMDL
MODEL 2
REMARK VINA RESULT:      -5.8      1.221      2.213
REMARK  Name = 
REMARK  5 active torsions:
REMARK  status: ('A' for Active; 'I' for Inactive)
REMARK    1  A    between atoms: P_2  and  O_3
REMARK    2  A    between atoms: P_2  and  O_4
REMARK    3  A    between atoms: P_2  and  C_5
REMARK    4  A    between atoms: C_5  and  O_6
REMARK    5  A    between atoms: C_5  and  C_7
REMARK                            x       y       z     vdW  Elec       q    Type
REMARK                         _______ _______ _______ _____ _____    ______ ____
ROOT
ATOM      1  C   UNL     1       5.936   4.363  18.415  0.00  0.00    +0.000 C 
ENDROOT
BRANCH   1   2
ATOM      2  C   UNL     1       4.434   4.368  18.189  0.00  0.00    +0.000 A 
ATOM      3  C   UNL     1       3.675   5.518  18.396  0.00  0.00    +0.000 A 
ATOM      4  C   UNL     1       2.301   5.473  18.158  0.00  0.00    +0.000 A 
ATOM      5  C   UNL     1       1.724   4.287  17.733  0.00  0.00    +0.000 A 
ATOM      6  C   UNL     1       2.542   3.184  17.566  0.00  0.00    +0.000 A 
ATOM      7  N   UNL     1       3.880   3.193  17.790  0.00  0.00    +0.000 NA
ENDBRANCH   1   2
BRANCH   1   9
ATOM      8  O   UNL     1       7.567   5.471  15.671  0.00  0.00    +0.000 OA
ATOM      9  P   UNL     1       6.819   4.963  16.928  0.00  0.00    +0.000 P 
BRANCH   9  10
ATOM     10  O   UNL     1       6.169   3.717  16.067  0.00  0.00    +0.000 OA
ATOM     11  H   UNL     1       6.869   3.378  15.475  0.00  0.00    +0.000 HD
ENDBRANCH   9  10
BRANCH   9  12
ATOM     12  O   UNL     1       8.166   4.122  17.417  0.00  0.00    +0.000 OA
ATOM     13  H   UNL     1       8.366   3.495  16.689  0.00  0.00    +0.000 HD
ENDBRANCH   9  12
ENDBRANCH   1   9
BRANCH   1  14
ATOM     14  O   UNL     1       6.268   5.181  19.564  0.00  0.00    +0.000 OA
ATOM     15  H   UNL     1       5.397   5.289  20.010  0.00  0.00    +0.000 HD
ENDBRANCH   1  14
TORSDOF 5
ENDMDL
MODEL 3
REMARK VINA RESULT:      -5.7      0.974      1.105
REMARK  Name = 
REMARK  5 active torsions:
REMARK  status: ('A' for Active; 'I' for Inactive)
REMARK    1  A    between atoms: P_2  and  O_3
REMARK    2  A    between atoms: P_2  and  O_4
REMARK    3  A    between atoms: P_2  and  C_5
REMARK    4  A    between atoms: C_5  and  O_6
REMARK    5  A    between atoms: C_5  and  C_7
REMARK                            x       y       z     vdW  Elec       q    Type
REMARK                         _______ _______ _______ _____ _____    ______ ____
ROOT
ATOM      1  C   UNL     1       5.899   4.890  16.642  0.00  0.00    +0.000 C 
ENDROOT
BRANCH   1   2
ATOM      2  C   UNL     1       4.454   4.795  17.099  0.00  0.00    +0.000 A 
ATOM      3  C   UNL     1       3.791   5.898  17.635  0.00  0.00    +0.000 A 
ATOM      4  C   UNL     1       2.458   5.763  18.024  0.00  0.00    +0.000 A 
ATOM      5  C   UNL     1       1.830   4.536  17.878  0.00  0.00    +0.000 A 
ATOM      6  C   UNL     1       2.560   3.485  17.353  0.00  0.00    +0.000 A 
ATOM      7  N   UNL     1       3.856   3.582  16.968  0.00  0.00    +0.000 NA
ENDBRANCH   1   2
BRANCH   1   9
ATOM      8  O   UNL     1       7.971   5.264  19.284  0.00  0.00    +0.000 OA
ATOM      9  P   UNL     1       7.022   5.092  18.073  0.00  0.00    +0.000 P 
BRANCH   9  10
ATOM     10  O   UNL     1       8.118   4.116  17.322  0.00  0.00    +0.000 OA
ATOM     11  H   UNL     1       7.924   4.147  16.364  0.00  0.00    +0.000 HD
ENDBRANCH   9  10
BRANCH   9  12
ATOM     12  O   UNL     1       6.224   3.856  18.845  0.00  0.00    +0.000 OA
ATOM     13  H   UNL     1       5.738   4.276  19.587  0.00  0.00    +0.000 HD
ENDBRANCH   9  12
ENDBRANCH   1   9
BRANCH   1  14
ATOM     14  O   UNL     1       6.258   3.710  15.882  0.00  0.00    +0.000 OA
ATOM     15  H   UNL     1       7.212   3.597  16.096  0.00  0.00    +0.000 HD
ENDBRANCH   1  14
TORSDOF 5
ENDMDL
MODEL 4
REMARK VINA RESULT:      -5.5      1.573      1.919
REMARK  Name = 
REMARK  5 active torsions:
REMARK  status: ('A' for Active; 'I' for Inactive)
REMARK    1  A    between atoms: P_2  and  O_3
REMARK    2  A    between atoms: P_2  and  O_4
REMARK    3  A    between atoms: P_2  and  C_5
REMARK    4  A    between atoms: C_5  and  O_6
REMARK    5  A    between atoms: C_5  and  C_7
REMARK                            x       y       z     vdW  Elec       q    Type
REMARK                         _______ _______ _______ _____ _____    ______ ____
ROOT
ATOM      1  C   UNL     1       4.127   4.560  17.824  0.00  0.00    +0.000 C 
ENDROOT
BRANCH   1   2
ATOM      2  C   UNL     1       2.944   4.114  18.665  0.00  0.00    +0.000 A 
ATOM      3  C   UNL     1       2.022   3.185  18.184  0.00  0.00    +0.000 A 
ATOM      4  C   UNL     1       0.963   2.797  19.004  0.00  0.00    +0.000 A 
ATOM      5  C   UNL     1       0.845   3.350  20.269  0.00  0.00    +0.000 A 
ATOM      6  C   UNL     1       1.790   4.278  20.668  0.00  0.00    +0.000 A 
ATOM      7  N   UNL     1       2.831   4.679  19.896  0.00  0.00    +0.000 NA
ENDBRANCH   1   2
BRANCH   1   9
ATOM      8  O   UNL     1       6.855   5.054  19.754  0.00  0.00    +0.000 OA
ATOM      9  P   UNL     1       5.605   4.827  18.870  0.00  0.00    +0.000 P 
BRANCH   9  10
ATOM     10  O   UNL     1       6.554   4.329  17.616  0.00  0.00    +0.000 OA
ATOM     11  H   UNL     1       7.468   4.257  17.956  0.00  0.00    +0.000 HD
ENDBRANCH   9  10
BRANCH   9  12
ATOM     12  O   UNL     1       5.396   3.310  19.513  0.00  0.00    +0.000 OA
ATOM     13  H   UNL     1       5.209   3.449  20.466  0.00  0.00    +0.000 HD
ENDBRANCH   9  12
ENDBRANCH   1   9
BRANCH   1  14
ATOM     14  O   UNL     1       4.406   3.575  16.799  0.00  0.00    +0.000 OA
ATOM     15  H   UNL     1       3.589   3.025  16.800  0.00  0.00    +0.000 HD
ENDBRANCH   1  14
TORSDOF 5
ENDMDL
MODEL 5
REMARK VINA RESULT:      -5.5      3.050      3.963
REMARK  Name = 
REMARK  5 active torsions:
REMARK  status: ('A' for Active; 'I' for Inactive)
REMARK    1  A    between atoms: P_2  and  O_3
REMARK    2  A    between atoms: P_2  and  O_4
REMARK    3  A    between atoms: P_2  and  C_5
REMARK    4  A    between atoms: C_5  and  O_6
REMARK    5  A    between atoms: C_5  and  C_7
REMARK                            x       y       z     vdW  Elec       q    Type
REMARK                         _______ _______ _______ _____ _____    ______ ____
ROOT
ATOM      1  C   UNL     1       6.648   6.725  17.475  0.00  0.00    +0.000 C 
ENDROOT
BRANCH   1   2
ATOM      2  C   UNL     1       6.407   5.718  16.364  0.00  0.00    +0.000 A 
ATOM      3  C   UNL     1       5.241   4.955  16.320  0.00  0.00    +0.000 A 
ATOM      4  C   UNL     1       5.061   4.056  15.269  0.00  0.00    +0.000 A 
ATOM      5  C   UNL     1       6.046   3.936  14.302  0.00  0.00    +0.000 A 
ATOM      6  C   UNL     1       7.181   4.716  14.423  0.00  0.00    +0.000 A 
ATOM      7  N   UNL     1       7.389   5.597  15.433  0.00  0.00    +0.000 NA
ENDBRANCH   1   2
BRANCH   1   9
ATOM      8  O   UNL     1       7.653   5.176  20.303  0.00  0.00    +0.000 OA
ATOM      9  P   UNL     1       7.193   5.886  19.007  0.00  0.00    +0.000 P 
BRANCH   9  10
ATOM     10  O   UNL     1       8.474   6.920  19.091  0.00  0.00    +0.000 OA
ATOM     11  H   UNL     1       8.701   7.023  20.036  0.00  0.00    +0.000 HD
ENDBRANCH   9  10
BRANCH   9  12
ATOM     12  O   UNL     1       7.976   4.751  18.080  0.00  0.00    +0.000 OA
ATOM     13  H   UNL     1       7.637   4.874  17.167  0.00  0.00    +0.000 HD
ENDBRANCH   9  12
ENDBRANCH   1   9
BRANCH   1  14
ATOM     14  O   UNL     1       7.634   7.700  17.055  0.00  0.00    +0.000 OA
ATOM     15  H   UNL     1       8.470   7.180  17.065  0.00  0.00    +0.000 HD
ENDBRANCH   1  14
TORSDOF 5
ENDMDL
MODEL 6
REMARK VINA RESULT:      -5.5      2.084      2.776
REMARK  Name = 
REMARK  5 active torsions:
REMARK  status: ('A' for Active; 'I' for Inactive)
REMARK    1  A    between atoms: P_2  and  O_3
REMARK    2  A    between atoms: P_2  and  O_4
REMARK    3  A    between atoms: P_2  and  C_5
REMARK    4  A    between atoms: C_5  and  O_6
REMARK    5  A    between atoms: C_5  and  C_7
REMARK                            x       y       z     vdW  Elec       q    Type
REMARK                         _______ _______ _______ _____ _____    ______ ____
ROOT
ATOM      1  C   UNL     1       5.905   5.260  17.901  0.00  0.00    +0.000 C 
ENDROOT
BRANCH   1   2
ATOM      2  C   UNL     1       4.976   4.099  18.209  0.00  0.00    +0.000 A 
ATOM      3  C   UNL     1       4.011   3.682  17.294  0.00  0.00    +0.000 A 
ATOM      4  C   UNL     1       3.194   2.600  17.619  0.00  0.00    +0.000 A 
ATOM      5  C   UNL     1       3.353   1.973  18.845  0.00  0.00    +0.000 A 
ATOM      6  C   UNL     1       4.322   2.456  19.706  0.00  0.00    +0.000 A 
ATOM      7  N   UNL     1       5.131   3.507  19.422  0.00  0.00    +0.000 NA
ENDBRANCH   1   2
BRANCH   1   9
ATOM      8  O   UNL     1       7.582   4.724  15.018  0.00  0.00    +0.000 OA
ATOM      9  P   UNL     1       6.814   4.970  16.339  0.00  0.00    +0.000 P 
BRANCH   9  10
ATOM     10  O   UNL     1       7.977   4.170  17.191  0.00  0.00    +0.000 OA
ATOM     11  H   UNL     1       8.830   4.339  16.744  0.00  0.00    +0.000 HD
ENDBRANCH   9  10
BRANCH   9  12
ATOM     12  O   UNL     1       7.516   6.467  16.496  0.00  0.00    +0.000 OA
ATOM     13  H   UNL     1       6.999   6.932  17.189  0.00  0.00    +0.000 HD
ENDBRANCH   9  12
ENDBRANCH   1   9
BRANCH   1  14
ATOM     14  O   UNL     1       5.150   6.494  17.823  0.00  0.00    +0.000 OA
ATOM     15  H   UNL     1       5.642   7.006  17.142  0.00  0.00    +0.000 HD
ENDBRANCH   1  14
TORSDOF 5
ENDMDL
MODEL 7
REMARK VINA RESULT:      -5.5      2.430      3.246
REMARK  Name = 
REMARK  5 active torsions:
REMARK  status: ('A' for Active; 'I' for Inactive)
REMARK    1  A    between atoms: P_2  and  O_3
REMARK    2  A    between atoms: P_2  and  O_4
REMARK    3  A    between atoms: P_2  and  C_5
REMARK    4  A    between atoms: C_5  and  O_6
REMARK    5  A    between atoms: C_5  and  C_7
REMARK                            x       y       z     vdW  Elec       q    Type
REMARK                         _______ _______ _______ _____ _____    ______ ____
ROOT
ATOM      1  C   UNL     1       6.041   4.841  18.545  0.00  0.00    +0.000 C 
ENDROOT
BRANCH   1   2
ATOM      2  C   UNL     1       4.804   5.722  18.529  0.00  0.00    +0.000 A 
ATOM      3  C   UNL     1       4.598   6.662  17.520  0.00  0.00    +0.000 A 
ATOM      4  C   UNL     1       3.437   7.434  17.542  0.00  0.00    +0.000 A 
ATOM      5  C   UNL     1       2.523   7.256  18.569  0.00  0.00    +0.000 A 
ATOM      6  C   UNL     1       2.806   6.314  19.542  0.00  0.00    +0.000 A 
ATOM      7  N   UNL     1       3.926   5.549  19.551  0.00  0.00    +0.000 NA
ENDBRANCH   1   2
BRANCH   1   9
ATOM      8  O   UNL     1       7.613   4.923  15.556  0.00  0.00    +0.000 OA
ATOM      9  P   UNL     1       6.893   4.885  16.926  0.00  0.00    +0.000 P 
BRANCH   9  10
ATOM     10  O   UNL     1       6.031   3.558  16.462  0.00  0.00    +0.000 OA
ATOM     11  H   UNL     1       6.677   2.867  16.213  0.00  0.00    +0.000 HD
ENDBRANCH   9  10
BRANCH   9  12
ATOM     12  O   UNL     1       8.149   4.025  17.589  0.00  0.00    +0.000 OA
ATOM     13  H   UNL     1       8.691   4.681  18.079  0.00  0.00    +0.000 HD
ENDBRANCH   9  12
ENDBRANCH   1   9
BRANCH   1  14
ATOM     14  O   UNL     1       6.939   5.266  19.600  0.00  0.00    +0.000 OA
ATOM     15  H   UNL     1       6.377   5.190  20.405  0.00  0.00    +0.000 HD
ENDBRANCH   1  14
TORSDOF 5
ENDMDL
MODEL 8
REMARK VINA RESULT:      -5.4      1.203      1.654
REMARK  Name = 
REMARK  5 active torsions:
REMARK  status: ('A' for Active; 'I' for Inactive)
REMARK    1  A    between atoms: P_2  and  O_3
REMARK    2  A    between atoms: P_2  and  O_4
REMARK    3  A    between atoms: P_2  and  C_5
REMARK    4  A    between atoms: C_5  and  O_6
REMARK    5  A    between atoms: C_5  and  C_7
REMARK                            x       y       z     vdW  Elec       q    Type
REMARK                         _______ _______ _______ _____ _____    ______ ____
ROOT
ATOM      1  C   UNL     1       5.855   4.841  16.898  0.00  0.00    +0.000 C 
ENDROOT
BRANCH   1   2
ATOM      2  C   UNL     1       4.389   4.762  17.287  0.00  0.00    +0.000 A 
ATOM      3  C   UNL     1       3.632   3.620  17.030  0.00  0.00    +0.000 A 
ATOM      4  C   UNL     1       2.294   3.593  17.422  0.00  0.00    +0.000 A 
ATOM      5  C   UNL     1       1.747   4.702  18.046  0.00  0.00    +0.000 A 
ATOM      6  C   UNL     1       2.558   5.804  18.251  0.00  0.00    +0.000 A 
ATOM      7  N   UNL     1       3.861   5.865  17.880  0.00  0.00    +0.000 NA
ENDBRANCH   1   2
BRANCH   1   9
ATOM      8  O   UNL     1       7.778   5.508  19.594  0.00  0.00    +0.000 OA
ATOM      9  P   UNL     1       6.897   5.202  18.359  0.00  0.00    +0.000 P 
BRANCH   9  10
ATOM     10  O   UNL     1       7.973   4.064  17.843  0.00  0.00    +0.000 OA
ATOM     11  H   UNL     1       8.650   3.969  18.543  0.00  0.00    +0.000 HD
ENDBRANCH   9  10
BRANCH   9  12
ATOM     12  O   UNL     1       5.975   4.145  19.249  0.00  0.00    +0.000 OA
ATOM     13  H   UNL     1       5.079   4.543  19.289  0.00  0.00    +0.000 HD
ENDBRANCH   9  12
ENDBRANCH   1   9
BRANCH   1  14
ATOM     14  O   UNL     1       6.271   3.601  16.276  0.00  0.00    +0.000 OA
ATOM     15  H   UNL     1       6.924   3.244  16.920  0.00  0.00    +0.000 HD
ENDBRANCH   1  14
TORSDOF 5
ENDMDL
MODEL 9
REMARK VINA RESULT:      -5.4      1.492      2.607
REMARK  Name = 
REMARK  5 active torsions:
REMARK  status: ('A' for Active; 'I' for Inactive)
REMARK    1  A    between atoms: P_2  and  O_3
REMARK    2  A    between atoms: P_2  and  O_4
REMARK    3  A    between atoms: P_2  and  C_5
REMARK    4  A    between atoms: C_5  and  O_6
REMARK    5  A    between atoms: C_5  and  C_7
REMARK                            x       y       z     vdW  Elec       q    Type
REMARK                         _______ _______ _______ _____ _____    ______ ____
ROOT
ATOM      1  C   UNL     1       6.075   4.381  18.583  0.00  0.00    +0.000 C 
ENDROOT
BRANCH   1   2
ATOM      2  C   UNL     1       4.563   4.292  18.480  0.00  0.00    +0.000 A 
ATOM      3  C   UNL     1       3.875   3.153  18.893  0.00  0.00    +0.000 A 
ATOM      4  C   UNL     1       2.484   3.129  18.793  0.00  0.00    +0.000 A 
ATOM      5  C   UNL     1       1.822   4.231  18.276  0.00  0.00    +0.000 A 
ATOM      6  C   UNL     1       2.576   5.318  17.871  0.00  0.00    +0.000 A 
ATOM      7  N   UNL     1       3.928   5.373  17.953  0.00  0.00    +0.000 NA
ENDBRANCH   1   2
BRANCH   1   9
ATOM      8  O   UNL     1       7.413   5.514  15.695  0.00  0.00    +0.000 OA
ATOM      9  P   UNL     1       6.800   4.995  17.019  0.00  0.00    +0.000 P 
BRANCH   9  10
ATOM     10  O   UNL     1       6.033   3.778  16.213  0.00  0.00    +0.000 OA
ATOM     11  H   UNL     1       6.642   3.464  15.515  0.00  0.00    +0.000 HD
ENDBRANCH   9  10
BRANCH   9  12
ATOM     12  O   UNL     1       8.175   4.120  17.339  0.00  0.00    +0.000 OA
ATOM     13  H   UNL     1       8.589   3.946  16.466  0.00  0.00    +0.000 HD
ENDBRANCH   9  12
ENDBRANCH   1   9
BRANCH   1  14
ATOM     14  O   UNL     1       6.448   5.244  19.685  0.00  0.00    +0.000 OA
ATOM     15  H   UNL     1       6.836   4.613  20.333  0.00  0.00    +0.000 HD
ENDBRANCH   1  14
TORSDOF 5
ENDMDL
