MODEL 1
REMARK VINA RESULT:      -8.4      0.000      0.000
REMARK  Name = 
REMARK  8 active torsions:
REMARK  status: ('A' for Active; 'I' for Inactive)
REMARK    1  A    between atoms: C_1  and  O_2
REMARK    2  A    between atoms: O_2  and  C_3
REMARK    3  A    between atoms: C_3  and  C_5
REMARK    4  A    between atoms: C_5  and  C_6
REMARK    5  A    between atoms: C_6  and  N_7
REMARK    6  A    between atoms: C_8  and  C_10
REMARK    7  A    between atoms: C_17  and  N_18
REMARK    8  A    between atoms: N_18  and  C_19
REMARK                            x       y       z     vdW  Elec       q    Type
REMARK                         _______ _______ _______ _____ _____    ______ ____
ROOT
ATOM      1  C   UNL     1       2.507   6.875  18.738  0.00  0.00    +0.000 A 
ATOM      2  C   UNL     1       2.242   6.595  20.076  0.00  0.00    +0.000 A 
ATOM      3  C   UNL     1       1.594   7.548  20.867  0.00  0.00    +0.000 A 
ATOM      4  C   UNL     1       1.190   8.802  20.338  0.00  0.00    +0.000 A 
ATOM      5  C   UNL     1       1.462   9.057  18.984  0.00  0.00    +0.000 A 
ATOM      6  C   UNL     1       2.101   8.099  18.207  0.00  0.00    +0.000 A 
ATOM      7  N   UNL     1       1.128  10.197  18.382  0.00  0.00    +0.000 NA
ATOM      8  C   UNL     1       0.497  11.183  19.062  0.00  0.00    +0.000 A 
ATOM      9  C   UNL     1       0.180  11.052  20.433  0.00  0.00    +0.000 A 
ATOM     10  C   UNL     1      -0.471  12.051  21.193  0.00  0.00    +0.000 A 
ATOM     11  C   UNL     1      -0.771  11.819  22.522  0.00  0.00    +0.000 A 
ATOM     12  N   UNL     1      -0.466  10.679  23.156  0.00  0.00    +0.000 NA
ATOM     13  C   UNL     1       0.169   9.732  22.425  0.00  0.00    +0.000 A 
ATOM     14  C   UNL     1       0.525   9.838  21.071  0.00  0.00    +0.000 A 
ENDROOT
BRANCH   1  16
ATOM     15  N   UNL     1       2.704   4.558  17.998  0.00  0.00    +0.000 N 
ATOM     16  C   UNL     1       3.193   5.845  17.910  0.00  0.00    +0.000 C 
ATOM     17  O   UNL     1       4.122   6.167  17.179  0.00  0.00    +0.000 OA
ATOM     18  H   UNL     1       1.852   4.378  18.513  0.00  0.00    +0.000 HD
BRANCH  15  19
ATOM     19  C   UNL     1       3.243   3.478  17.188  0.00  0.00    +0.000 C 
BRANCH  19  20
ATOM     20  C   UNL     1       3.363   2.177  17.969  0.00  0.00    +0.000 C 
BRANCH  20  21
ATOM     21  C   UNL     1       3.088   2.422  19.430  0.00  0.00    +0.000 C 
ATOM     22  O   UNL     1       3.931   2.693  20.274  0.00  0.00    +0.000 OA
BRANCH  21  24
ATOM     23  C   UNL     1       1.342   2.793  20.948  0.00  0.00    +0.000 C 
ATOM     24  O   UNL     1       1.755   2.273  19.681  0.00  0.00    +0.000 OA
ENDBRANCH  21  24
ENDBRANCH  20  21
ENDBRANCH  19  20
ENDBRANCH  15  19
ENDBRANCH   1  16
BRANCH   8  25
ATOM     25  N   UNL     1       0.259  12.403  18.370  0.00  0.00    +0.000 N 
ATOM     26  H   UNL     1       0.117  12.229  17.382  0.00  0.00    +0.000 HD
BRANCH  25  27
ATOM     27  C   UNL     1       1.082  13.556  18.478  0.00  0.00    +0.000 A 
ATOM     28  C   UNL     1       0.592  14.776  18.968  0.00  0.00    +0.000 A 
ATOM     29  C   UNL     1       1.429  15.885  19.102  0.00  0.00    +0.000 A 
ATOM     30  C   UNL     1       2.777  15.776  18.774  0.00  0.00    +0.000 A 
ATOM     31  C   UNL     1       3.285  14.551  18.346  0.00  0.00    +0.000 A 
ATOM     32 CL   UNL     1       4.956  14.414  17.956  0.00  0.00    +0.000 Cl
ATOM     33  C   UNL     1       2.451  13.438  18.220  0.00  0.00    +0.000 A 
ENDBRANCH  25  27
ENDBRANCH   8  25
TORSDOF 7
ENDMDL
MODEL 2
REMARK VINA RESULT:      -8.4      1.055      1.502
REMARK  Name = 
REMARK  8 active torsions:
REMARK  status: ('A' for Active; 'I' for Inactive)
REMARK    1  A    between atoms: C_1  and  O_2
REMARK    2  A    between atoms: O_2  and  C_3
REMARK    3  A    between atoms: C_3  and  C_5
REMARK    4  A    between atoms: C_5  and  C_6
REMARK    5  A    between atoms: C_6  and  N_7
REMARK    6  A    between atoms: C_8  and  C_10
REMARK    7  A    between atoms: C_17  and  N_18
REMARK    8  A    between atoms: N_18  and  C_19
REMARK                            x       y       z     vdW  Elec       q    Type
REMARK                         _______ _______ _______ _____ _____    ______ ____
ROOT
ATOM      1  C   UNL     1       2.373   6.784  19.030  0.00  0.00    +0.000 A 
ATOM      2  C   UNL     1       1.999   6.552  20.350  0.00  0.00    +0.000 A 
ATOM      3  C   UNL     1       1.370   7.565  21.080  0.00  0.00    +0.000 A 
ATOM      4  C   UNL     1       1.095   8.833  20.504  0.00  0.00    +0.000 A 
ATOM      5  C   UNL     1       1.475   9.040  19.168  0.00  0.00    +0.000 A 
ATOM      6  C   UNL     1       2.093   8.023  18.452  0.00  0.00    +0.000 A 
ATOM      7  N   UNL     1       1.267  10.189  18.527  0.00  0.00    +0.000 NA
ATOM      8  C   UNL     1       0.664  11.231  19.147  0.00  0.00    +0.000 A 
ATOM      9  C   UNL     1       0.248  11.152  20.494  0.00  0.00    +0.000 A 
ATOM     10  C   UNL     1      -0.379  12.211  21.192  0.00  0.00    +0.000 A 
ATOM     11  C   UNL     1      -0.783  12.028  22.502  0.00  0.00    +0.000 A 
ATOM     12  N   UNL     1      -0.605  10.882  23.173  0.00  0.00    +0.000 NA
ATOM     13  C   UNL     1       0.007   9.877  22.502  0.00  0.00    +0.000 A 
ATOM     14  C   UNL     1       0.460   9.929  21.174  0.00  0.00    +0.000 A 
ENDROOT
BRANCH   1  16
ATOM     15  N   UNL     1       2.237   4.631  17.890  0.00  0.00    +0.000 N 
ATOM     16  C   UNL     1       3.035   5.691  18.266  0.00  0.00    +0.000 C 
ATOM     17  O   UNL     1       4.225   5.777  17.982  0.00  0.00    +0.000 OA
ATOM     18  H   UNL     1       1.237   4.678  18.034  0.00  0.00    +0.000 HD
BRANCH  15  19
ATOM     19  C   UNL     1       2.750   3.536  17.083  0.00  0.00    +0.000 C 
BRANCH  19  20
ATOM     20  C   UNL     1       2.566   2.186  17.761  0.00  0.00    +0.000 C 
BRANCH  20  21
ATOM     21  C   UNL     1       1.554   2.297  18.872  0.00  0.00    +0.000 C 
ATOM     22  O   UNL     1       0.340   2.285  18.727  0.00  0.00    +0.000 OA
BRANCH  21  24
ATOM     23  C   UNL     1       1.349   2.898  21.126  0.00  0.00    +0.000 C 
ATOM     24  O   UNL     1       2.194   2.439  20.068  0.00  0.00    +0.000 OA
ENDBRANCH  21  24
ENDBRANCH  20  21
ENDBRANCH  19  20
ENDBRANCH  15  19
ENDBRANCH   1  16
BRANCH   8  25
ATOM     25  N   UNL     1       0.563  12.450  18.421  0.00  0.00    +0.000 N 
ATOM     26  H   UNL     1       0.416  12.265  17.435  0.00  0.00    +0.000 HD
BRANCH  25  27
ATOM     27  C   UNL     1       1.500  13.515  18.511  0.00  0.00    +0.000 A 
ATOM     28  C   UNL     1       2.859  13.336  18.214  0.00  0.00    +0.000 A 
ATOM     29  C   UNL     1       3.754  14.407  18.272  0.00  0.00    +0.000 A 
ATOM     30  C   UNL     1       3.290  15.677  18.601  0.00  0.00    +0.000 A 
ATOM     31  C   UNL     1       1.931  15.875  18.837  0.00  0.00    +0.000 A 
ATOM     32 CL   UNL     1       1.357  17.450  19.227  0.00  0.00    +0.000 Cl
ATOM     33  C   UNL     1       1.033  14.808  18.770  0.00  0.00    +0.000 A 
ENDBRANCH  25  27
ENDBRANCH   8  25
TORSDOF 7
ENDMDL
MODEL 3
REMARK VINA RESULT:      -8.3      2.098      3.087
REMARK  Name = 
REMARK  8 active torsions:
REMARK  status: ('A' for Active; 'I' for Inactive)
REMARK    1  A    between atoms: C_1  and  O_2
REMARK    2  A    between atoms: O_2  and  C_3
REMARK    3  A    between atoms: C_3  and  C_5
REMARK    4  A    between atoms: C_5  and  C_6
REMARK    5  A    between atoms: C_6  and  N_7
REMARK    6  A    between atoms: C_8  and  C_10
REMARK    7  A    between atoms: C_17  and  N_18
REMARK    8  A    between atoms: N_18  and  C_19
REMARK                            x       y       z     vdW  Elec       q    Type
REMARK                         _______ _______ _______ _____ _____    ______ ____
ROOT
ATOM      1  C   UNL     1       2.910   6.852  18.399  0.00  0.00    +0.000 A 
ATOM      2  C   UNL     1       2.632   6.428  19.695  0.00  0.00    +0.000 A 
ATOM      3  C   UNL     1       1.871   7.239  20.541  0.00  0.00    +0.000 A 
ATOM      4  C   UNL     1       1.364   8.493  20.109  0.00  0.00    +0.000 A 
ATOM      5  C   UNL     1       1.652   8.895  18.795  0.00  0.00    +0.000 A 
ATOM      6  C   UNL     1       2.404   8.078  17.962  0.00  0.00    +0.000 A 
ATOM      7  N   UNL     1       1.229  10.051  18.284  0.00  0.00    +0.000 NA
ATOM      8  C   UNL     1       0.485  10.906  19.024  0.00  0.00    +0.000 A 
ATOM      9  C   UNL     1       0.139  10.621  20.363  0.00  0.00    +0.000 A 
ATOM     10  C   UNL     1      -0.628  11.481  21.183  0.00  0.00    +0.000 A 
ATOM     11  C   UNL     1      -0.945  11.100  22.474  0.00  0.00    +0.000 A 
ATOM     12  N   UNL     1      -0.552   9.940  23.015  0.00  0.00    +0.000 NA
ATOM     13  C   UNL     1       0.194   9.128  22.229  0.00  0.00    +0.000 A 
ATOM     14  C   UNL     1       0.580   9.391  20.905  0.00  0.00    +0.000 A 
ENDROOT
BRANCH   1  16
ATOM     15  N   UNL     1       4.681   6.591  16.740  0.00  0.00    +0.000 N 
ATOM     16  C   UNL     1       3.717   5.972  17.510  0.00  0.00    +0.000 C 
ATOM     17  O   UNL     1       3.525   4.762  17.509  0.00  0.00    +0.000 OA
ATOM     18  H   UNL     1       4.885   7.571  16.882  0.00  0.00    +0.000 HD
BRANCH  15  19
ATOM     19  C   UNL     1       5.578   5.833  15.885  0.00  0.00    +0.000 C 
BRANCH  19  20
ATOM     20  C   UNL     1       6.903   5.526  16.569  0.00  0.00    +0.000 C 
BRANCH  20  21
ATOM     21  C   UNL     1       7.365   6.720  17.364  0.00  0.00    +0.000 C 
ATOM     22  O   UNL     1       7.314   7.883  16.989  0.00  0.00    +0.000 OA
BRANCH  21  24
ATOM     23  C   UNL     1       6.956   5.556  19.355  0.00  0.00    +0.000 C 
ATOM     24  O   UNL     1       7.876   6.309  18.560  0.00  0.00    +0.000 OA
ENDBRANCH  21  24
ENDBRANCH  20  21
ENDBRANCH  19  20
ENDBRANCH  15  19
ENDBRANCH   1  16
BRANCH   8  25
ATOM     25  N   UNL     1       0.152  12.157  18.433  0.00  0.00    +0.000 N 
ATOM     26  H   UNL     1      -0.108  12.034  17.462  0.00  0.00    +0.000 HD
BRANCH  25  27
ATOM     27  C   UNL     1       0.970  13.317  18.504  0.00  0.00    +0.000 A 
ATOM     28  C   UNL     1       2.327  13.293  18.148  0.00  0.00    +0.000 A 
ATOM     29  C   UNL     1       3.101  14.454  18.187  0.00  0.00    +0.000 A 
ATOM     30  C   UNL     1       2.516  15.662  18.556  0.00  0.00    +0.000 A 
ATOM     31  C   UNL     1       1.155  15.706  18.851  0.00  0.00    +0.000 A 
ATOM     32 CL   UNL     1       0.429  17.204  19.291  0.00  0.00    +0.000 Cl
ATOM     33  C   UNL     1       0.377  14.548  18.803  0.00  0.00    +0.000 A 
ENDBRANCH  25  27
ENDBRANCH   8  25
TORSDOF 7
ENDMDL
MODEL 4
REMARK VINA RESULT:      -8.3      1.044      1.356
REMARK  Name = 
REMARK  8 active torsions:
REMARK  status: ('A' for Active; 'I' for Inactive)
REMARK    1  A    between atoms: C_1  and  O_2
REMARK    2  A    between atoms: O_2  and  C_3
REMARK    3  A    between atoms: C_3  and  C_5
REMARK    4  A    between atoms: C_5  and  C_6
REMARK    5  A    between atoms: C_6  and  N_7
REMARK    6  A    between atoms: C_8  and  C_10
REMARK    7  A    between atoms: C_17  and  N_18
REMARK    8  A    between atoms: N_18  and  C_19
REMARK                            x       y       z     vdW  Elec       q    Type
REMARK                         _______ _______ _______ _____ _____    ______ ____
ROOT
ATOM      1  C   UNL     1       2.540   6.936  18.793  0.00  0.00    +0.000 A 
ATOM      2  C   UNL     1       2.266   6.636  20.124  0.00  0.00    +0.000 A 
ATOM      3  C   UNL     1       1.593   7.567  20.920  0.00  0.00    +0.000 A 
ATOM      4  C   UNL     1       1.173   8.820  20.402  0.00  0.00    +0.000 A 
ATOM      5  C   UNL     1       1.454   9.097  19.054  0.00  0.00    +0.000 A 
ATOM      6  C   UNL     1       2.118   8.161  18.272  0.00  0.00    +0.000 A 
ATOM      7  N   UNL     1       1.108  10.239  18.463  0.00  0.00    +0.000 NA
ATOM      8  C   UNL     1       0.452  11.205  19.149  0.00  0.00    +0.000 A 
ATOM      9  C   UNL     1       0.123  11.052  20.514  0.00  0.00    +0.000 A 
ATOM     10  C   UNL     1      -0.554  12.030  21.279  0.00  0.00    +0.000 A 
ATOM     11  C   UNL     1      -0.864  11.775  22.602  0.00  0.00    +0.000 A 
ATOM     12  N   UNL     1      -0.546  10.633  23.225  0.00  0.00    +0.000 NA
ATOM     13  C   UNL     1       0.113   9.706  22.490  0.00  0.00    +0.000 A 
ATOM     14  C   UNL     1       0.482   9.836  21.141  0.00  0.00    +0.000 A 
ENDROOT
BRANCH   1  16
ATOM     15  N   UNL     1       2.741   4.648  17.971  0.00  0.00    +0.000 N 
ATOM     16  C   UNL     1       3.253   5.930  17.960  0.00  0.00    +0.000 C 
ATOM     17  O   UNL     1       4.223   6.265  17.290  0.00  0.00    +0.000 OA
ATOM     18  H   UNL     1       1.862   4.461  18.434  0.00  0.00    +0.000 HD
BRANCH  15  19
ATOM     19  C   UNL     1       3.306   3.592  17.146  0.00  0.00    +0.000 C 
BRANCH  19  20
ATOM     20  C   UNL     1       3.406   2.270  17.893  0.00  0.00    +0.000 C 
BRANCH  20  21
ATOM     21  C   UNL     1       3.748   2.516  19.340  0.00  0.00    +0.000 C 
ATOM     22  O   UNL     1       4.819   2.937  19.752  0.00  0.00    +0.000 OA
BRANCH  21  24
ATOM     23  C   UNL     1       2.451   3.086  21.205  0.00  0.00    +0.000 C 
ATOM     24  O   UNL     1       2.689   2.174  20.129  0.00  0.00    +0.000 OA
ENDBRANCH  21  24
ENDBRANCH  20  21
ENDBRANCH  19  20
ENDBRANCH  15  19
ENDBRANCH   1  16
BRANCH   8  25
ATOM     25  N   UNL     1       0.200  12.429  18.469  0.00  0.00    +0.000 N 
ATOM     26  H   UNL     1      -0.019  12.256  17.495  0.00  0.00    +0.000 HD
BRANCH  25  27
ATOM     27  C   UNL     1       1.063  13.558  18.510  0.00  0.00    +0.000 A 
ATOM     28  C   UNL     1       2.398  13.489  18.083  0.00  0.00    +0.000 A 
ATOM     29  C   UNL     1       3.215  14.621  18.095  0.00  0.00    +0.000 A 
ATOM     30  C   UNL     1       2.694  15.844  18.508  0.00  0.00    +0.000 A 
ATOM     31  C   UNL     1       1.352  15.934  18.874  0.00  0.00    +0.000 A 
ATOM     32 CL   UNL     1       0.706  17.451  19.368  0.00  0.00    +0.000 Cl
ATOM     33  C   UNL     1       0.531  14.805  18.853  0.00  0.00    +0.000 A 
ENDBRANCH  25  27
ENDBRANCH   8  25
TORSDOF 7
ENDMDL
MODEL 5
REMARK VINA RESULT:      -8.2      3.360      4.655
REMARK  Name = 
REMARK  8 active torsions:
REMARK  status: ('A' for Active; 'I' for Inactive)
REMARK    1  A    between atoms: C_1  and  O_2
REMARK    2  A    between atoms: O_2  and  C_3
REMARK    3  A    between atoms: C_3  and  C_5
REMARK    4  A    between atoms: C_5  and  C_6
REMARK    5  A    between atoms: C_6  and  N_7
REMARK    6  A    between atoms: C_8  and  C_10
REMARK    7  A    between atoms: C_17  and  N_18
REMARK    8  A    between atoms: N_18  and  C_19
REMARK                            x       y       z     vdW  Elec       q    Type
REMARK                         _______ _______ _______ _____ _____    ______ ____
ROOT
ATOM      1  C   UNL     1       2.847   6.533  18.447  0.00  0.00    +0.000 A 
ATOM      2  C   UNL     1       2.912   6.344  19.824  0.00  0.00    +0.000 A 
ATOM      3  C   UNL     1       2.243   7.227  20.677  0.00  0.00    +0.000 A 
ATOM      4  C   UNL     1       1.487   8.317  20.173  0.00  0.00    +0.000 A 
ATOM      5  C   UNL     1       1.430   8.482  18.779  0.00  0.00    +0.000 A 
ATOM      6  C   UNL     1       2.094   7.595  17.942  0.00  0.00    +0.000 A 
ATOM      7  N   UNL     1       0.751   9.469  18.196  0.00  0.00    +0.000 NA
ATOM      8  C   UNL     1       0.070  10.375  18.935  0.00  0.00    +0.000 A 
ATOM      9  C   UNL     1       0.060  10.324  20.346  0.00  0.00    +0.000 A 
ATOM     10  C   UNL     1      -0.628  11.248  21.167  0.00  0.00    +0.000 A 
ATOM     11  C   UNL     1      -0.607  11.097  22.541  0.00  0.00    +0.000 A 
ATOM     12  N   UNL     1       0.050  10.108  23.162  0.00  0.00    +0.000 NA
ATOM     13  C   UNL     1       0.717   9.235  22.371  0.00  0.00    +0.000 A 
ATOM     14  C   UNL     1       0.773   9.272  20.968  0.00  0.00    +0.000 A 
ENDROOT
BRANCH   1  16
ATOM     15  N   UNL     1       4.771   6.002  17.044  0.00  0.00    +0.000 N 
ATOM     16  C   UNL     1       3.561   5.580  17.554  0.00  0.00    +0.000 C 
ATOM     17  O   UNL     1       3.080   4.475  17.329  0.00  0.00    +0.000 OA
ATOM     18  H   UNL     1       5.181   6.867  17.372  0.00  0.00    +0.000 HD
BRANCH  15  19
ATOM     19  C   UNL     1       5.596   5.137  16.217  0.00  0.00    +0.000 C 
BRANCH  19  20
ATOM     20  C   UNL     1       7.081   5.423  16.388  0.00  0.00    +0.000 C 
BRANCH  20  21
ATOM     21  C   UNL     1       7.289   6.467  17.454  0.00  0.00    +0.000 C 
ATOM     22  O   UNL     1       7.248   6.266  18.660  0.00  0.00    +0.000 OA
BRANCH  21  24
ATOM     23  C   UNL     1       7.866   8.711  17.802  0.00  0.00    +0.000 C 
ATOM     24  O   UNL     1       7.506   7.683  16.874  0.00  0.00    +0.000 OA
ENDBRANCH  21  24
ENDBRANCH  20  21
ENDBRANCH  19  20
ENDBRANCH  15  19
ENDBRANCH   1  16
BRANCH   8  25
ATOM     25  N   UNL     1      -0.552  11.449  18.238  0.00  0.00    +0.000 N 
ATOM     26  H   UNL     1      -0.466  12.310  18.764  0.00  0.00    +0.000 HD
BRANCH  25  27
ATOM     27  C   UNL     1      -1.874  11.405  17.718  0.00  0.00    +0.000 A 
ATOM     28  C   UNL     1      -2.160  10.859  16.459  0.00  0.00    +0.000 A 
ATOM     29  C   UNL     1      -3.472  10.791  15.986  0.00  0.00    +0.000 A 
ATOM     30  C   UNL     1      -4.518  11.244  16.785  0.00  0.00    +0.000 A 
ATOM     31  C   UNL     1      -4.248  11.731  18.062  0.00  0.00    +0.000 A 
ATOM     32 CL   UNL     1      -5.545  12.275  19.056  0.00  0.00    +0.000 Cl
ATOM     33  C   UNL     1      -2.938  11.790  18.541  0.00  0.00    +0.000 A 
ENDBRANCH  25  27
ENDBRANCH   8  25
TORSDOF 7
ENDMDL
MODEL 6
REMARK VINA RESULT:      -8.2      2.123      2.999
REMARK  Name = 
REMARK  8 active torsions:
REMARK  status: ('A' for Active; 'I' for Inactive)
REMARK    1  A    between atoms: C_1  and  O_2
REMARK    2  A    between atoms: O_2  and  C_3
REMARK    3  A    between atoms: C_3  and  C_5
REMARK    4  A    between atoms: C_5  and  C_6
REMARK    5  A    between atoms: C_6  and  N_7
REMARK    6  A    between atoms: C_8  and  C_10
REMARK    7  A    between atoms: C_17  and  N_18
REMARK    8  A    between atoms: N_18  and  C_19
REMARK                            x       y       z     vdW  Elec       q    Type
REMARK                         _______ _______ _______ _____ _____    ______ ____
ROOT
ATOM      1  C   UNL     1       2.670   6.749  18.860  0.00  0.00    +0.000 A 
ATOM      2  C   UNL     1       2.383   6.455  20.190  0.00  0.00    +0.000 A 
ATOM      3  C   UNL     1       1.687   7.383  20.970  0.00  0.00    +0.000 A 
ATOM      4  C   UNL     1       1.255   8.625  20.436  0.00  0.00    +0.000 A 
ATOM      5  C   UNL     1       1.550   8.895  19.090  0.00  0.00    +0.000 A 
ATOM      6  C   UNL     1       2.237   7.962  18.324  0.00  0.00    +0.000 A 
ATOM      7  N   UNL     1       1.195  10.028  18.486  0.00  0.00    +0.000 NA
ATOM      8  C   UNL     1       0.517  10.989  19.155  0.00  0.00    +0.000 A 
ATOM      9  C   UNL     1       0.172  10.842  20.517  0.00  0.00    +0.000 A 
ATOM     10  C   UNL     1      -0.528  11.817  21.266  0.00  0.00    +0.000 A 
ATOM     11  C   UNL     1      -0.850  11.568  22.587  0.00  0.00    +0.000 A 
ATOM     12  N   UNL     1      -0.524  10.435  23.223  0.00  0.00    +0.000 NA
ATOM     13  C   UNL     1       0.157   9.512  22.503  0.00  0.00    +0.000 A 
ATOM     14  C   UNL     1       0.541   9.637  21.158  0.00  0.00    +0.000 A 
ENDROOT
BRANCH   1  16
ATOM     15  N   UNL     1       4.784   5.825  18.066  0.00  0.00    +0.000 N 
ATOM     16  C   UNL     1       3.407   5.746  18.044  0.00  0.00    +0.000 C 
ATOM     17  O   UNL     1       2.788   4.892  17.418  0.00  0.00    +0.000 OA
ATOM     18  H   UNL     1       5.241   6.462  18.705  0.00  0.00    +0.000 HD
BRANCH  15  19
ATOM     19  C   UNL     1       5.617   4.861  17.366  0.00  0.00    +0.000 C 
BRANCH  19  20
ATOM     20  C   UNL     1       7.099   5.190  17.481  0.00  0.00    +0.000 C 
BRANCH  20  21
ATOM     21  C   UNL     1       7.397   5.776  18.837  0.00  0.00    +0.000 C 
ATOM     22  O   UNL     1       7.052   5.295  19.907  0.00  0.00    +0.000 OA
BRANCH  21  24
ATOM     23  C   UNL     1       7.718   7.700  17.540  0.00  0.00    +0.000 C 
ATOM     24  O   UNL     1       8.090   6.942  18.694  0.00  0.00    +0.000 OA
ENDBRANCH  21  24
ENDBRANCH  20  21
ENDBRANCH  19  20
ENDBRANCH  15  19
ENDBRANCH   1  16
BRANCH   8  25
ATOM     25  N   UNL     1       0.256  12.204  18.462  0.00  0.00    +0.000 N 
ATOM     26  H   UNL     1       0.051  12.021  17.487  0.00  0.00    +0.000 HD
BRANCH  25  27
ATOM     27  C   UNL     1       1.102  13.345  18.504  0.00  0.00    +0.000 A 
ATOM     28  C   UNL     1       2.466  13.272  18.185  0.00  0.00    +0.000 A 
ATOM     29  C   UNL     1       3.270  14.414  18.194  0.00  0.00    +0.000 A 
ATOM     30  C   UNL     1       2.707  15.651  18.495  0.00  0.00    +0.000 A 
ATOM     31  C   UNL     1       1.341  15.742  18.753  0.00  0.00    +0.000 A 
ATOM     32 CL   UNL     1       0.644  17.275  19.109  0.00  0.00    +0.000 Cl
ATOM     33  C   UNL     1       0.534  14.603  18.734  0.00  0.00    +0.000 A 
ENDBRANCH  25  27
ENDBRANCH   8  25
TORSDOF 7
ENDMDL
MODEL 7
REMARK VINA RESULT:      -8.1      3.917      8.595
REMARK  Name = 
REMARK  8 active torsions:
REMARK  status: ('A' for Active; 'I' for Inactive)
REMARK    1  A    between atoms: C_1  and  O_2
REMARK    2  A    between atoms: O_2  and  C_3
REMARK    3  A    between atoms: C_3  and  C_5
REMARK    4  A    between atoms: C_5  and  C_6
REMARK    5  A    between atoms: C_6  and  N_7
REMARK    6  A    between atoms: C_8  and  C_10
REMARK    7  A    between atoms: C_17  and  N_18
REMARK    8  A    between atoms: N_18  and  C_19
REMARK                            x       y       z     vdW  Elec       q    Type
REMARK                         _______ _______ _______ _____ _____    ______ ____
ROOT
ATOM      1  C   UNL     1       1.798   8.814  18.950  0.00  0.00    +0.000 A 
ATOM      2  C   UNL     1       1.356   8.460  20.222  0.00  0.00    +0.000 A 
ATOM      3  C   UNL     1       1.583   7.166  20.699  0.00  0.00    +0.000 A 
ATOM      4  C   UNL     1       2.264   6.196  19.917  0.00  0.00    +0.000 A 
ATOM      5  C   UNL     1       2.707   6.580  18.641  0.00  0.00    +0.000 A 
ATOM      6  C   UNL     1       2.480   7.870  18.181  0.00  0.00    +0.000 A 
ATOM      7  N   UNL     1       3.354   5.753  17.822  0.00  0.00    +0.000 NA
ATOM      8  C   UNL     1       3.624   4.479  18.192  0.00  0.00    +0.000 A 
ATOM      9  C   UNL     1       3.219   3.969  19.445  0.00  0.00    +0.000 A 
ATOM     10  C   UNL     1       3.468   2.646  19.879  0.00  0.00    +0.000 A 
ATOM     11  C   UNL     1       3.062   2.247  21.139  0.00  0.00    +0.000 A 
ATOM     12  N   UNL     1       2.423   3.055  21.996  0.00  0.00    +0.000 NA
ATOM     13  C   UNL     1       2.178   4.317  21.569  0.00  0.00    +0.000 A 
ATOM     14  C   UNL     1       2.539   4.848  20.320  0.00  0.00    +0.000 A 
ENDROOT
BRANCH   1  16
ATOM     15  N   UNL     1       0.728  10.988  19.238  0.00  0.00    +0.000 N 
ATOM     16  C   UNL     1       1.552  10.199  18.462  0.00  0.00    +0.000 C 
ATOM     17  O   UNL     1       2.092  10.590  17.434  0.00  0.00    +0.000 OA
ATOM     18  H   UNL     1       0.420  10.657  20.142  0.00  0.00    +0.000 HD
BRANCH  15  19
ATOM     19  C   UNL     1       0.466  12.379  18.905  0.00  0.00    +0.000 C 
BRANCH  19  20
ATOM     20  C   UNL     1      -0.872  12.559  18.201  0.00  0.00    +0.000 C 
BRANCH  20  21
ATOM     21  C   UNL     1      -1.892  11.611  18.775  0.00  0.00    +0.000 C 
ATOM     22  O   UNL     1      -2.543  11.802  19.793  0.00  0.00    +0.000 OA
BRANCH  21  24
ATOM     23  C   UNL     1      -3.291  10.182  17.555  0.00  0.00    +0.000 C 
ATOM     24  O   UNL     1      -1.968  10.490  18.002  0.00  0.00    +0.000 OA
ENDBRANCH  21  24
ENDBRANCH  20  21
ENDBRANCH  19  20
ENDBRANCH  15  19
ENDBRANCH   1  16
BRANCH   8  25
ATOM     25  N   UNL     1       4.238   3.636  17.223  0.00  0.00    +0.000 N 
ATOM     26  H   UNL     1       4.586   2.790  17.659  0.00  0.00    +0.000 HD
BRANCH  25  27
ATOM     27  C   UNL     1       5.227   4.069  16.300  0.00  0.00    +0.000 A 
ATOM     28  C   UNL     1       6.353   4.802  16.704  0.00  0.00    +0.000 A 
ATOM     29  C   UNL     1       7.332   5.182  15.785  0.00  0.00    +0.000 A 
ATOM     30  C   UNL     1       7.209   4.806  14.450  0.00  0.00    +0.000 A 
ATOM     31  C   UNL     1       6.125   4.025  14.052  0.00  0.00    +0.000 A 
ATOM     32 CL   UNL     1       5.984   3.546  12.404  0.00  0.00    +0.000 Cl
ATOM     33  C   UNL     1       5.151   3.635  14.972  0.00  0.00    +0.000 A 
ENDBRANCH  25  27
ENDBRANCH   8  25
TORSDOF 7
ENDMDL
MODEL 8
REMARK VINA RESULT:      -8.1      3.337      4.256
REMARK  Name = 
REMARK  8 active torsions:
REMARK  status: ('A' for Active; 'I' for Inactive)
REMARK    1  A    between atoms: C_1  and  O_2
REMARK    2  A    between atoms: O_2  and  C_3
REMARK    3  A    between atoms: C_3  and  C_5
REMARK    4  A    between atoms: C_5  and  C_6
REMARK    5  A    between atoms: C_6  and  N_7
REMARK    6  A    between atoms: C_8  and  C_10
REMARK    7  A    between atoms: C_17  and  N_18
REMARK    8  A    between atoms: N_18  and  C_19
REMARK                            x       y       z     vdW  Elec       q    Type
REMARK                         _______ _______ _______ _____ _____    ______ ____
ROOT
ATOM      1  C   UNL     1       2.613   6.791  18.638  0.00  0.00    +0.000 A 
ATOM      2  C   UNL     1       2.661   6.620  20.019  0.00  0.00    +0.000 A 
ATOM      3  C   UNL     1       1.969   7.505  20.851  0.00  0.00    +0.000 A 
ATOM      4  C   UNL     1       1.208   8.579  20.321  0.00  0.00    +0.000 A 
ATOM      5  C   UNL     1       1.168   8.726  18.925  0.00  0.00    +0.000 A 
ATOM      6  C   UNL     1       1.855   7.836  18.109  0.00  0.00    +0.000 A 
ATOM      7  N   UNL     1       0.486   9.697  18.319  0.00  0.00    +0.000 NA
ATOM      8  C   UNL     1      -0.216  10.604  19.037  0.00  0.00    +0.000 A 
ATOM      9  C   UNL     1      -0.245  10.571  20.449  0.00  0.00    +0.000 A 
ATOM     10  C   UNL     1      -0.956  11.497  21.248  0.00  0.00    +0.000 A 
ATOM     11  C   UNL     1      -0.953  11.364  22.624  0.00  0.00    +0.000 A 
ATOM     12  N   UNL     1      -0.292  10.391  23.267  0.00  0.00    +0.000 NA
ATOM     13  C   UNL     1       0.396   9.516  22.496  0.00  0.00    +0.000 A 
ATOM     14  C   UNL     1       0.471   9.535  21.094  0.00  0.00    +0.000 A 
ENDROOT
BRANCH   1  16
ATOM     15  N   UNL     1       4.650   6.171  17.446  0.00  0.00    +0.000 N 
ATOM     16  C   UNL     1       3.351   5.835  17.768  0.00  0.00    +0.000 C 
ATOM     17  O   UNL     1       2.809   4.799  17.399  0.00  0.00    +0.000 OA
ATOM     18  H   UNL     1       5.087   6.968  17.888  0.00  0.00    +0.000 HD
BRANCH  15  19
ATOM     19  C   UNL     1       5.496   5.288  16.661  0.00  0.00    +0.000 C 
BRANCH  19  20
ATOM     20  C   UNL     1       6.608   4.666  17.494  0.00  0.00    +0.000 C 
BRANCH  20  21
ATOM     21  C   UNL     1       6.141   4.462  18.912  0.00  0.00    +0.000 C 
ATOM     22  O   UNL     1       5.355   3.601  19.282  0.00  0.00    +0.000 OA
BRANCH  21  24
ATOM     23  C   UNL     1       7.966   5.890  19.254  0.00  0.00    +0.000 C 
ATOM     24  O   UNL     1       6.708   5.399  19.725  0.00  0.00    +0.000 OA
ENDBRANCH  21  24
ENDBRANCH  20  21
ENDBRANCH  19  20
ENDBRANCH  15  19
ENDBRANCH   1  16
BRANCH   8  25
ATOM     25  N   UNL     1      -0.841  11.661  18.318  0.00  0.00    +0.000 N 
ATOM     26  H   UNL     1      -0.791  12.526  18.843  0.00  0.00    +0.000 HD
BRANCH  25  27
ATOM     27  C   UNL     1      -2.145  11.585  17.758  0.00  0.00    +0.000 A 
ATOM     28  C   UNL     1      -2.367  11.138  16.447  0.00  0.00    +0.000 A 
ATOM     29  C   UNL     1      -3.660  11.034  15.932  0.00  0.00    +0.000 A 
ATOM     30  C   UNL     1      -4.751  11.351  16.737  0.00  0.00    +0.000 A 
ATOM     31  C   UNL     1      -4.542  11.737  18.060  0.00  0.00    +0.000 A 
ATOM     32 CL   UNL     1      -5.893  12.112  19.059  0.00  0.00    +0.000 Cl
ATOM     33  C   UNL     1      -3.250  11.831  18.579  0.00  0.00    +0.000 A 
ENDBRANCH  25  27
ENDBRANCH   8  25
TORSDOF 7
ENDMDL
MODEL 9
REMARK VINA RESULT:      -8.1      3.840      6.783
REMARK  Name = 
REMARK  8 active torsions:
REMARK  status: ('A' for Active; 'I' for Inactive)
REMARK    1  A    between atoms: C_1  and  O_2
REMARK    2  A    between atoms: O_2  and  C_3
REMARK    3  A    between atoms: C_3  and  C_5
REMARK    4  A    between atoms: C_5  and  C_6
REMARK    5  A    between atoms: C_6  and  N_7
REMARK    6  A    between atoms: C_8  and  C_10
REMARK    7  A    between atoms: C_17  and  N_18
REMARK    8  A    between atoms: N_18  and  C_19
REMARK                            x       y       z     vdW  Elec       q    Type
REMARK                         _______ _______ _______ _____ _____    ______ ____
ROOT
ATOM      1  C   UNL     1       5.653   4.570  16.044  0.00  0.00    +0.000 A 
ATOM      2  C   UNL     1       5.291   3.243  16.255  0.00  0.00    +0.000 A 
ATOM      3  C   UNL     1       4.385   2.924  17.270  0.00  0.00    +0.000 A 
ATOM      4  C   UNL     1       3.814   3.927  18.096  0.00  0.00    +0.000 A 
ATOM      5  C   UNL     1       4.188   5.259  17.859  0.00  0.00    +0.000 A 
ATOM      6  C   UNL     1       5.084   5.563  16.843  0.00  0.00    +0.000 A 
ATOM      7  N   UNL     1       3.715   6.280  18.572  0.00  0.00    +0.000 NA
ATOM      8  C   UNL     1       2.832   6.076  19.577  0.00  0.00    +0.000 A 
ATOM      9  C   UNL     1       2.388   4.780  19.922  0.00  0.00    +0.000 A 
ATOM     10  C   UNL     1       1.473   4.509  20.966  0.00  0.00    +0.000 A 
ATOM     11  C   UNL     1       1.070   3.208  21.208  0.00  0.00    +0.000 A 
ATOM     12  N   UNL     1       1.512   2.159  20.501  0.00  0.00    +0.000 NA
ATOM     13  C   UNL     1       2.397   2.425  19.512  0.00  0.00    +0.000 A 
ATOM     14  C   UNL     1       2.882   3.695  19.160  0.00  0.00    +0.000 A 
ENDROOT
BRANCH   1  16
ATOM     15  N   UNL     1       6.459   4.197  13.772  0.00  0.00    +0.000 N 
ATOM     16  C   UNL     1       6.614   4.891  14.954  0.00  0.00    +0.000 C 
ATOM     17  O   UNL     1       7.470   5.752  15.126  0.00  0.00    +0.000 OA
ATOM     18  H   UNL     1       5.655   3.598  13.642  0.00  0.00    +0.000 HD
BRANCH  15  19
ATOM     19  C   UNL     1       7.291   4.468  12.611  0.00  0.00    +0.000 C 
BRANCH  19  20
ATOM     20  C   UNL     1       6.893   3.624  11.408  0.00  0.00    +0.000 C 
BRANCH  20  21
ATOM     21  C   UNL     1       5.549   2.985  11.644  0.00  0.00    +0.000 C 
ATOM     22  O   UNL     1       4.492   3.587  11.774  0.00  0.00    +0.000 OA
BRANCH  21  24
ATOM     23  C   UNL     1       6.792   1.119  10.968  0.00  0.00    +0.000 C 
ATOM     24  O   UNL     1       5.687   1.630  11.719  0.00  0.00    +0.000 OA
ENDBRANCH  21  24
ENDBRANCH  20  21
ENDBRANCH  19  20
ENDBRANCH  15  19
ENDBRANCH   1  16
BRANCH   8  25
ATOM     25  N   UNL     1       2.448   7.209  20.347  0.00  0.00    +0.000 N 
ATOM     26  H   UNL     1       1.991   6.919  21.203  0.00  0.00    +0.000 HD
BRANCH  25  27
ATOM     27  C   UNL     1       1.712   8.312  19.834  0.00  0.00    +0.000 A 
ATOM     28  C   UNL     1       1.698   8.624  18.466  0.00  0.00    +0.000 A 
ATOM     29  C   UNL     1       0.936   9.688  17.980  0.00  0.00    +0.000 A 
ATOM     30  C   UNL     1       0.155  10.435  18.857  0.00  0.00    +0.000 A 
ATOM     31  C   UNL     1       0.115  10.093  20.208  0.00  0.00    +0.000 A 
ATOM     32 CL   UNL     1      -0.865  11.007  21.288  0.00  0.00    +0.000 Cl
ATOM     33  C   UNL     1       0.869   9.022  20.694  0.00  0.00    +0.000 A 
ENDBRANCH  25  27
ENDBRANCH   8  25
TORSDOF 7
ENDMDL
