MODEL 1
REMARK VINA RESULT:      -7.7      0.000      0.000
REMARK  Name = 
REMARK  10 active torsions:
REMARK  status: ('A' for Active; 'I' for Inactive)
REMARK    1  A    between atoms: C_1  and  N_2
REMARK    2  A    between atoms: C_6  and  S_7
REMARK    3  A    between atoms: S_7  and  C_8
REMARK    4  A    between atoms: C_8  and  C_9
REMARK    5  A    between atoms: CA_10  and  C_11
REMARK    6  A    between atoms: C_11  and  OXT_13
REMARK    7  A    between atoms: CA_17  and  N_18
REMARK    8  A    between atoms: C_19  and  C_21
REMARK    9  A    between atoms: C_21  and  C_24
REMARK   10  A    between atoms: N_22  and  N_23
REMARK                            x       y       z     vdW  Elec       q    Type
REMARK                         _______ _______ _______ _____ _____    ______ ____
ROOT
ATOM      1  C   UNL     1       2.605   6.347  19.658  0.00  0.00    +0.000 C 
ATOM      2  CA  UNL     1       2.781   5.006  19.571  0.00  0.00    +0.000 C 
ATOM      3  N   UNL     1       3.881   4.452  18.949  0.00  0.00    +0.000 N 
ATOM      4  C   UNL     1       3.873   3.519  17.946  0.00  0.00    +0.000 C 
ATOM      5  O   UNL     1       3.043   2.717  17.598  0.00  0.00    +0.000 OA
ATOM      6  CA  UNL     1       5.286   3.972  17.505  0.00  0.00    +0.000 C 
ATOM      7  C   UNL     1       4.974   5.234  18.372  0.00  0.00    +0.000 C 
ATOM      8  S   UNL     1       4.292   6.660  17.467  0.00  0.00    +0.000 S 
ATOM      9  C   UNL     1       3.497   7.346  18.941  0.00  0.00    +0.000 C 
ENDROOT
BRANCH   6  10
ATOM     10  N   UNL     1       5.563   4.188  16.066  0.00  0.00    +0.000 N 
ATOM     11  C   UNL     1       6.859   4.403  15.645  0.00  0.00    +0.000 C 
ATOM     12  O   UNL     1       7.820   4.410  16.404  0.00  0.00    +0.000 OA
ATOM     13  H   UNL     1       4.834   4.177  15.355  0.00  0.00    +0.000 HD
BRANCH  11  14
ATOM     14  C   UNL     1       7.037   4.660  14.143  0.00  0.00    +0.000 C 
ATOM     15  N   UNL     1       7.889   5.607  13.829  0.00  0.00    +0.000 NA
BRANCH  14  16
ATOM     16  C   UNL     1       6.272   3.851  13.184  0.00  0.00    +0.000 A 
ATOM     17  C   UNL     1       4.977   4.139  12.788  0.00  0.00    +0.000 A 
ATOM     18  S   UNL     1       4.424   2.982  11.655  0.00  0.00    +0.000 S 
ATOM     19  C   UNL     1       5.935   2.180  11.750  0.00  0.00    +0.000 A 
ATOM     20  N   UNL     1       6.185   1.090  11.004  0.00  0.00    +0.000 N 
ATOM     21  N   UNL     1       6.809   2.712  12.565  0.00  0.00    +0.000 NA
ATOM     22  H   UNL     1       5.601   0.923  10.197  0.00  0.00    +0.000 HD
ATOM     23  H   UNL     1       7.162   0.852  10.874  0.00  0.00    +0.000 HD
ENDBRANCH  14  16
BRANCH  15  24
ATOM     24  N   UNL     1       8.148   5.832  12.516  0.00  0.00    +0.000 N 
ATOM     25  H   UNL     1       7.422   6.401  12.081  0.00  0.00    +0.000 HD
ATOM     26  H   UNL     1       8.241   4.965  11.968  0.00  0.00    +0.000 HD
ENDBRANCH  15  24
ENDBRANCH  11  14
ENDBRANCH   6  10
BRANCH   2  27
ATOM     27  C   UNL     1       1.808   4.042  20.199  0.00  0.00    +0.000 C 
ATOM     28  O   UNL     1       0.712   3.758  19.743  0.00  0.00    +0.000 OA
BRANCH  27  29
ATOM     29  OXT UNL     1       2.240   3.586  21.397  0.00  0.00    +0.000 OA
ATOM     30  HXT UNL     1       1.565   3.653  22.097  0.00  0.00    +0.000 HD
ENDBRANCH  27  29
ENDBRANCH   2  27
BRANCH   1  31
ATOM     31  C   UNL     1       1.454   7.025  20.390  0.00  0.00    +0.000 C 
BRANCH  31  32
ATOM     32  S   UNL     1       1.294   8.804  20.071  0.00  0.00    +0.000 S 
BRANCH  32  38
ATOM     33  C   UNL     1      -0.838  11.188  20.711  0.00  0.00    +0.000 C 
ATOM     34  N   UNL     1      -0.147  10.430  21.714  0.00  0.00    +0.000 N 
ATOM     35  N   UNL     1      -0.369  10.662  23.022  0.00  0.00    +0.000 NA
ATOM     36  N   UNL     1       0.459   9.849  23.664  0.00  0.00    +0.000 NA
ATOM     37  N   UNL     1       1.201   9.104  22.782  0.00  0.00    +0.000 NA
ATOM     38  C   UNL     1       0.797   9.452  21.584  0.00  0.00    +0.000 A 
ENDBRANCH  32  38
ENDBRANCH  31  32
ENDBRANCH   1  31
TORSDOF 9
ENDMDL
MODEL 2
REMARK VINA RESULT:      -7.5      0.901      1.389
REMARK  Name = 
REMARK  10 active torsions:
REMARK  status: ('A' for Active; 'I' for Inactive)
REMARK    1  A    between atoms: C_1  and  N_2
REMARK    2  A    between atoms: C_6  and  S_7
REMARK    3  A    between atoms: S_7  and  C_8
REMARK    4  A    between atoms: C_8  and  C_9
REMARK    5  A    between atoms: CA_10  and  C_11
REMARK    6  A    between atoms: C_11  and  OXT_13
REMARK    7  A    between atoms: CA_17  and  N_18
REMARK    8  A    between atoms: C_19  and  C_21
REMARK    9  A    between atoms: C_21  and  C_24
REMARK   10  A    between atoms: N_22  and  N_23
REMARK                            x       y       z     vdW  Elec       q    Type
REMARK                         _______ _______ _______ _____ _____    ______ ____
ROOT
ATOM      1  C   UNL     1       2.350   6.057  19.744  0.00  0.00    +0.000 C 
ATOM      2  CA  UNL     1       2.630   4.734  19.654  0.00  0.00    +0.000 C 
ATOM      3  N   UNL     1       3.786   4.269  19.062  0.00  0.00    +0.000 N 
ATOM      4  C   UNL     1       3.877   3.346  18.054  0.00  0.00    +0.000 C 
ATOM      5  O   UNL     1       3.121   2.486  17.677  0.00  0.00    +0.000 OA
ATOM      6  CA  UNL     1       5.264   3.908  17.656  0.00  0.00    +0.000 C 
ATOM      7  C   UNL     1       4.832   5.136  18.520  0.00  0.00    +0.000 C 
ATOM      8  S   UNL     1       4.071   6.513  17.605  0.00  0.00    +0.000 S 
ATOM      9  C   UNL     1       3.184   7.126  19.058  0.00  0.00    +0.000 C 
ENDROOT
BRANCH   6  10
ATOM     10  N   UNL     1       5.564   4.155  16.228  0.00  0.00    +0.000 N 
ATOM     11  C   UNL     1       6.866   4.387  15.834  0.00  0.00    +0.000 C 
ATOM     12  O   UNL     1       7.813   4.384  16.610  0.00  0.00    +0.000 OA
ATOM     13  H   UNL     1       4.848   4.154  15.503  0.00  0.00    +0.000 HD
BRANCH  11  14
ATOM     14  C   UNL     1       7.068   4.676  14.341  0.00  0.00    +0.000 C 
ATOM     15  N   UNL     1       7.953   5.604  14.059  0.00  0.00    +0.000 NA
BRANCH  14  16
ATOM     16  C   UNL     1       6.289   3.915  13.354  0.00  0.00    +0.000 A 
ATOM     17  C   UNL     1       5.002   4.244  12.963  0.00  0.00    +0.000 A 
ATOM     18  S   UNL     1       4.429   3.138  11.792  0.00  0.00    +0.000 S 
ATOM     19  C   UNL     1       5.921   2.300  11.864  0.00  0.00    +0.000 A 
ATOM     20  N   UNL     1       6.151   1.230  11.085  0.00  0.00    +0.000 N 
ATOM     21  N   UNL     1       6.805   2.786  12.699  0.00  0.00    +0.000 NA
ATOM     22  H   UNL     1       5.566   1.102  10.270  0.00  0.00    +0.000 HD
ATOM     23  H   UNL     1       7.122   0.975  10.949  0.00  0.00    +0.000 HD
ENDBRANCH  14  16
BRANCH  15  24
ATOM     24  N   UNL     1       8.234   5.853  12.756  0.00  0.00    +0.000 N 
ATOM     25  H   UNL     1       8.442   6.839  12.598  0.00  0.00    +0.000 HD
ATOM     26  H   UNL     1       7.470   5.586  12.119  0.00  0.00    +0.000 HD
ENDBRANCH  15  24
ENDBRANCH  11  14
ENDBRANCH   6  10
BRANCH   2  27
ATOM     27  C   UNL     1       1.715   3.694  20.248  0.00  0.00    +0.000 C 
ATOM     28  O   UNL     1       1.845   3.198  21.355  0.00  0.00    +0.000 OA
BRANCH  27  29
ATOM     29  OXT UNL     1       0.766   3.287  19.373  0.00  0.00    +0.000 OA
ATOM     30  HXT UNL     1       0.360   2.436  19.619  0.00  0.00    +0.000 HD
ENDBRANCH  27  29
ENDBRANCH   2  27
BRANCH   1  31
ATOM     31  C   UNL     1       1.130   6.640  20.446  0.00  0.00    +0.000 C 
BRANCH  31  32
ATOM     32  S   UNL     1       1.454   8.148  21.402  0.00  0.00    +0.000 S 
BRANCH  32  38
ATOM     33  C   UNL     1      -0.647  10.304  22.658  0.00  0.00    +0.000 C 
ATOM     34  N   UNL     1      -0.305  10.224  21.267  0.00  0.00    +0.000 N 
ATOM     35  N   UNL     1      -0.841  11.083  20.381  0.00  0.00    +0.000 NA
ATOM     36  N   UNL     1      -0.371  10.702  19.200  0.00  0.00    +0.000 NA
ATOM     37  N   UNL     1       0.457   9.615  19.328  0.00  0.00    +0.000 NA
ATOM     38  C   UNL     1       0.511   9.349  20.611  0.00  0.00    +0.000 A 
ENDBRANCH  32  38
ENDBRANCH  31  32
ENDBRANCH   1  31
TORSDOF 9
ENDMDL
MODEL 3
REMARK VINA RESULT:      -7.4      5.264     11.979
REMARK  Name = 
REMARK  10 active torsions:
REMARK  status: ('A' for Active; 'I' for Inactive)
REMARK    1  A    between atoms: C_1  and  N_2
REMARK    2  A    between atoms: C_6  and  S_7
REMARK    3  A    between atoms: S_7  and  C_8
REMARK    4  A    between atoms: C_8  and  C_9
REMARK    5  A    between atoms: CA_10  and  C_11
REMARK    6  A    between atoms: C_11  and  OXT_13
REMARK    7  A    between atoms: CA_17  and  N_18
REMARK    8  A    between atoms: C_19  and  C_21
REMARK    9  A    between atoms: C_21  and  C_24
REMARK   10  A    between atoms: N_22  and  N_23
REMARK                            x       y       z     vdW  Elec       q    Type
REMARK                         _______ _______ _______ _____ _____    ______ ____
ROOT
ATOM      1  C   UNL     1       1.533   8.539  20.214  0.00  0.00    +0.000 C 
ATOM      2  CA  UNL     1       1.164   9.667  19.558  0.00  0.00    +0.000 C 
ATOM      3  N   UNL     1       0.577  10.732  20.209  0.00  0.00    +0.000 N 
ATOM      4  C   UNL     1      -0.604  11.342  19.881  0.00  0.00    +0.000 C 
ATOM      5  O   UNL     1      -1.229  11.391  18.851  0.00  0.00    +0.000 OA
ATOM      6  CA  UNL     1      -0.750  11.856  21.335  0.00  0.00    +0.000 C 
ATOM      7  C   UNL     1       0.336  10.777  21.650  0.00  0.00    +0.000 C 
ATOM      8  S   UNL     1      -0.299   9.166  22.214  0.00  0.00    +0.000 S 
ATOM      9  C   UNL     1       1.180   8.276  21.668  0.00  0.00    +0.000 C 
ENDROOT
BRANCH   6  10
ATOM     10  N   UNL     1      -2.054  11.729  22.023  0.00  0.00    +0.000 N 
ATOM     11  C   UNL     1      -2.865  12.837  22.159  0.00  0.00    +0.000 C 
ATOM     12  O   UNL     1      -2.573  13.942  21.719  0.00  0.00    +0.000 OA
ATOM     13  H   UNL     1      -2.397  10.847  22.402  0.00  0.00    +0.000 HD
BRANCH  11  14
ATOM     14  C   UNL     1      -4.176  12.613  22.925  0.00  0.00    +0.000 C 
ATOM     15  N   UNL     1      -4.042  12.271  24.185  0.00  0.00    +0.000 NA
BRANCH  14  16
ATOM     16  C   UNL     1      -5.454  12.796  22.224  0.00  0.00    +0.000 A 
ATOM     17  C   UNL     1      -6.255  13.918  22.354  0.00  0.00    +0.000 A 
ATOM     18  S   UNL     1      -7.652  13.775  21.377  0.00  0.00    +0.000 S 
ATOM     19  C   UNL     1      -7.105  12.245  20.833  0.00  0.00    +0.000 A 
ATOM     20  N   UNL     1      -7.812  11.540  19.934  0.00  0.00    +0.000 N 
ATOM     21  N   UNL     1      -5.965  11.840  21.332  0.00  0.00    +0.000 NA
ATOM     22  H   UNL     1      -8.498  12.032  19.377  0.00  0.00    +0.000 HD
ATOM     23  H   UNL     1      -7.307  10.816  19.436  0.00  0.00    +0.000 HD
ENDBRANCH  14  16
BRANCH  15  24
ATOM     24  N   UNL     1      -5.161  12.132  24.938  0.00  0.00    +0.000 N 
ATOM     25  H   UNL     1      -5.411  13.003  25.406  0.00  0.00    +0.000 HD
ATOM     26  H   UNL     1      -5.077  11.400  25.658  0.00  0.00    +0.000 HD
ENDBRANCH  15  24
ENDBRANCH  11  14
ENDBRANCH   6  10
BRANCH   2  27
ATOM     27  C   UNL     1       1.428   9.842  18.085  0.00  0.00    +0.000 C 
ATOM     28  O   UNL     1       2.429  10.354  17.609  0.00  0.00    +0.000 OA
BRANCH  27  29
ATOM     29  OXT UNL     1       0.377   9.452  17.326  0.00  0.00    +0.000 OA
ATOM     30  HXT UNL     1      -0.481   9.574  17.771  0.00  0.00    +0.000 HD
ENDBRANCH  27  29
ENDBRANCH   2  27
BRANCH   1  31
ATOM     31  C   UNL     1       2.248   7.357  19.572  0.00  0.00    +0.000 C 
BRANCH  31  32
ATOM     32  S   UNL     1       1.939   5.758  20.372  0.00  0.00    +0.000 S 
BRANCH  32  38
ATOM     33  C   UNL     1       2.237   2.514  20.205  0.00  0.00    +0.000 C 
ATOM     34  N   UNL     1       3.275   3.441  19.855  0.00  0.00    +0.000 N 
ATOM     35  N   UNL     1       4.463   2.998  19.403  0.00  0.00    +0.000 NA
ATOM     36  N   UNL     1       5.199   4.089  19.235  0.00  0.00    +0.000 NA
ATOM     37  N   UNL     1       4.491   5.216  19.572  0.00  0.00    +0.000 NA
ATOM     38  C   UNL     1       3.298   4.804  19.925  0.00  0.00    +0.000 A 
ENDBRANCH  32  38
ENDBRANCH  31  32
ENDBRANCH   1  31
TORSDOF 9
ENDMDL
MODEL 4
REMARK VINA RESULT:      -7.4      4.716     11.843
REMARK  Name = 
REMARK  10 active torsions:
REMARK  status: ('A' for Active; 'I' for Inactive)
REMARK    1  A    between atoms: C_1  and  N_2
REMARK    2  A    between atoms: C_6  and  S_7
REMARK    3  A    between atoms: S_7  and  C_8
REMARK    4  A    between atoms: C_8  and  C_9
REMARK    5  A    between atoms: CA_10  and  C_11
REMARK    6  A    between atoms: C_11  and  OXT_13
REMARK    7  A    between atoms: CA_17  and  N_18
REMARK    8  A    between atoms: C_19  and  C_21
REMARK    9  A    between atoms: C_21  and  C_24
REMARK   10  A    between atoms: N_22  and  N_23
REMARK                            x       y       z     vdW  Elec       q    Type
REMARK                         _______ _______ _______ _____ _____    ______ ____
ROOT
ATOM      1  C   UNL     1       1.746   8.311  20.033  0.00  0.00    +0.000 C 
ATOM      2  CA  UNL     1       1.480   9.458  19.362  0.00  0.00    +0.000 C 
ATOM      3  N   UNL     1       0.896  10.546  19.976  0.00  0.00    +0.000 N 
ATOM      4  C   UNL     1      -0.229  11.213  19.568  0.00  0.00    +0.000 C 
ATOM      5  O   UNL     1      -0.773  11.295  18.495  0.00  0.00    +0.000 OA
ATOM      6  CA  UNL     1      -0.456  11.726  21.010  0.00  0.00    +0.000 C 
ATOM      7  C   UNL     1       0.552  10.597  21.396  0.00  0.00    +0.000 C 
ATOM      8  S   UNL     1      -0.196   9.014  21.899  0.00  0.00    +0.000 S 
ATOM      9  C   UNL     1       1.276   8.059  21.456  0.00  0.00    +0.000 C 
ENDROOT
BRANCH   6  10
ATOM     10  N   UNL     1      -1.812  11.657  21.601  0.00  0.00    +0.000 N 
ATOM     11  C   UNL     1      -2.334  12.762  22.243  0.00  0.00    +0.000 C 
ATOM     12  O   UNL     1      -1.737  13.826  22.343  0.00  0.00    +0.000 OA
ATOM     13  H   UNL     1      -2.396  10.824  21.549  0.00  0.00    +0.000 HD
BRANCH  11  14
ATOM     14  C   UNL     1      -3.727  12.576  22.859  0.00  0.00    +0.000 C 
ATOM     15  N   UNL     1      -3.748  12.041  24.058  0.00  0.00    +0.000 NA
BRANCH  14  16
ATOM     16  C   UNL     1      -4.908  13.002  22.096  0.00  0.00    +0.000 A 
ATOM     17  C   UNL     1      -5.249  14.325  21.871  0.00  0.00    +0.000 A 
ATOM     18  S   UNL     1      -6.677  14.426  20.935  0.00  0.00    +0.000 S 
ATOM     19  C   UNL     1      -6.749  12.716  20.875  0.00  0.00    +0.000 A 
ATOM     20  N   UNL     1      -7.726  12.089  20.197  0.00  0.00    +0.000 N 
ATOM     21  N   UNL     1      -5.790  12.085  21.505  0.00  0.00    +0.000 NA
ATOM     22  H   UNL     1      -8.235  12.617  19.501  0.00  0.00    +0.000 HD
ATOM     23  H   UNL     1      -7.548  11.124  19.946  0.00  0.00    +0.000 HD
ENDBRANCH  14  16
BRANCH  15  24
ATOM     24  N   UNL     1      -4.942  11.920  24.689  0.00  0.00    +0.000 N 
ATOM     25  H   UNL     1      -5.496  12.773  24.613  0.00  0.00    +0.000 HD
ATOM     26  H   UNL     1      -4.850  11.691  25.689  0.00  0.00    +0.000 HD
ENDBRANCH  15  24
ENDBRANCH  11  14
ENDBRANCH   6  10
BRANCH   2  27
ATOM     27  C   UNL     1       1.859   9.627  17.913  0.00  0.00    +0.000 C 
ATOM     28  O   UNL     1       1.941   8.719  17.101  0.00  0.00    +0.000 OA
BRANCH  27  29
ATOM     29  OXT UNL     1       2.200  10.903  17.617  0.00  0.00    +0.000 OA
ATOM     30  HXT UNL     1       1.458  11.527  17.709  0.00  0.00    +0.000 HD
ENDBRANCH  27  29
ENDBRANCH   2  27
BRANCH   1  31
ATOM     31  C   UNL     1       2.451   7.100  19.437  0.00  0.00    +0.000 C 
BRANCH  31  32
ATOM     32  S   UNL     1       1.872   5.499  20.064  0.00  0.00    +0.000 S 
BRANCH  32  38
ATOM     33  C   UNL     1       4.696   4.087  19.248  0.00  0.00    +0.000 C 
ATOM     34  N   UNL     1       3.449   3.848  18.579  0.00  0.00    +0.000 N 
ATOM     35  N   UNL     1       3.379   2.980  17.553  0.00  0.00    +0.000 NA
ATOM     36  N   UNL     1       2.123   3.041  17.132  0.00  0.00    +0.000 NA
ATOM     37  N   UNL     1       1.397   3.935  17.879  0.00  0.00    +0.000 NA
ATOM     38  C   UNL     1       2.220   4.404  18.785  0.00  0.00    +0.000 A 
ENDBRANCH  32  38
ENDBRANCH  31  32
ENDBRANCH   1  31
TORSDOF 9
ENDMDL
MODEL 5
REMARK VINA RESULT:      -7.2      5.278     12.440
REMARK  Name = 
REMARK  10 active torsions:
REMARK  status: ('A' for Active; 'I' for Inactive)
REMARK    1  A    between atoms: C_1  and  N_2
REMARK    2  A    between atoms: C_6  and  S_7
REMARK    3  A    between atoms: S_7  and  C_8
REMARK    4  A    between atoms: C_8  and  C_9
REMARK    5  A    between atoms: CA_10  and  C_11
REMARK    6  A    between atoms: C_11  and  OXT_13
REMARK    7  A    between atoms: CA_17  and  N_18
REMARK    8  A    between atoms: C_19  and  C_21
REMARK    9  A    between atoms: C_21  and  C_24
REMARK   10  A    between atoms: N_22  and  N_23
REMARK                            x       y       z     vdW  Elec       q    Type
REMARK                         _______ _______ _______ _____ _____    ______ ____
ROOT
ATOM      1  C   UNL     1       1.427   8.673  20.307  0.00  0.00    +0.000 C 
ATOM      2  CA  UNL     1       1.027   9.784  19.641  0.00  0.00    +0.000 C 
ATOM      3  N   UNL     1       0.495  10.876  20.293  0.00  0.00    +0.000 N 
ATOM      4  C   UNL     1      -0.700  11.489  20.026  0.00  0.00    +0.000 C 
ATOM      5  O   UNL     1      -1.392  11.512  19.039  0.00  0.00    +0.000 OA
ATOM      6  CA  UNL     1      -0.742  12.051  21.468  0.00  0.00    +0.000 C 
ATOM      7  C   UNL     1       0.351  10.971  21.746  0.00  0.00    +0.000 C 
ATOM      8  S   UNL     1      -0.259   9.386  22.403  0.00  0.00    +0.000 S 
ATOM      9  C   UNL     1       1.171   8.462  21.789  0.00  0.00    +0.000 C 
ENDROOT
BRANCH   6  10
ATOM     10  N   UNL     1      -1.999  11.962  22.246  0.00  0.00    +0.000 N 
ATOM     11  C   UNL     1      -2.947  12.957  22.128  0.00  0.00    +0.000 C 
ATOM     12  O   UNL     1      -2.818  13.924  21.388  0.00  0.00    +0.000 OA
ATOM     13  H   UNL     1      -2.209  11.184  22.870  0.00  0.00    +0.000 HD
BRANCH  11  14
ATOM     14  C   UNL     1      -4.194  12.796  23.007  0.00  0.00    +0.000 C 
ATOM     15  N   UNL     1      -4.014  12.136  24.127  0.00  0.00    +0.000 NA
BRANCH  14  16
ATOM     16  C   UNL     1      -5.467  13.377  22.558  0.00  0.00    +0.000 A 
ATOM     17  C   UNL     1      -6.245  12.847  21.543  0.00  0.00    +0.000 A 
ATOM     18  S   UNL     1      -7.654  13.788  21.312  0.00  0.00    +0.000 S 
ATOM     19  C   UNL     1      -7.154  14.832  22.575  0.00  0.00    +0.000 A 
ATOM     20  N   UNL     1      -7.914  15.875  22.950  0.00  0.00    +0.000 N 
ATOM     21  N   UNL     1      -6.016  14.527  23.145  0.00  0.00    +0.000 NA
ATOM     22  H   UNL     1      -8.890  15.870  22.688  0.00  0.00    +0.000 HD
ATOM     23  H   UNL     1      -7.727  16.257  23.870  0.00  0.00    +0.000 HD
ENDBRANCH  14  16
BRANCH  15  24
ATOM     24  N   UNL     1      -5.058  12.024  24.985  0.00  0.00    +0.000 N 
ATOM     25  H   UNL     1      -5.779  12.719  24.794  0.00  0.00    +0.000 HD
ATOM     26  H   UNL     1      -4.783  12.119  25.973  0.00  0.00    +0.000 HD
ENDBRANCH  15  24
ENDBRANCH  11  14
ENDBRANCH   6  10
BRANCH   2  27
ATOM     27  C   UNL     1       1.192   9.908  18.148  0.00  0.00    +0.000 C 
ATOM     28  O   UNL     1       2.209  10.279  17.585  0.00  0.00    +0.000 OA
BRANCH  27  29
ATOM     29  OXT UNL     1       0.042   9.652  17.482  0.00  0.00    +0.000 OA
ATOM     30  HXT UNL     1      -0.341   8.783  17.701  0.00  0.00    +0.000 HD
ENDBRANCH  27  29
ENDBRANCH   2  27
BRANCH   1  31
ATOM     31  C   UNL     1       2.087   7.463  19.658  0.00  0.00    +0.000 C 
BRANCH  31  32
ATOM     32  S   UNL     1       1.853   5.901  20.553  0.00  0.00    +0.000 S 
BRANCH  32  38
ATOM     33  C   UNL     1       1.317   2.919  19.347  0.00  0.00    +0.000 C 
ATOM     34  N   UNL     1       2.576   3.604  19.280  0.00  0.00    +0.000 N 
ATOM     35  N   UNL     1       3.634   3.033  18.674  0.00  0.00    +0.000 NA
ATOM     36  N   UNL     1       4.633   3.889  18.842  0.00  0.00    +0.000 NA
ATOM     37  N   UNL     1       4.221   4.995  19.543  0.00  0.00    +0.000 NA
ATOM     38  C   UNL     1       2.944   4.818  19.783  0.00  0.00    +0.000 A 
ENDBRANCH  32  38
ENDBRANCH  31  32
ENDBRANCH   1  31
TORSDOF 9
ENDMDL
MODEL 6
REMARK VINA RESULT:      -7.2      5.480     12.651
REMARK  Name = 
REMARK  10 active torsions:
REMARK  status: ('A' for Active; 'I' for Inactive)
REMARK    1  A    between atoms: C_1  and  N_2
REMARK    2  A    between atoms: C_6  and  S_7
REMARK    3  A    between atoms: S_7  and  C_8
REMARK    4  A    between atoms: C_8  and  C_9
REMARK    5  A    between atoms: CA_10  and  C_11
REMARK    6  A    between atoms: C_11  and  OXT_13
REMARK    7  A    between atoms: CA_17  and  N_18
REMARK    8  A    between atoms: C_19  and  C_21
REMARK    9  A    between atoms: C_21  and  C_24
REMARK   10  A    between atoms: N_22  and  N_23
REMARK                            x       y       z     vdW  Elec       q    Type
REMARK                         _______ _______ _______ _____ _____    ______ ____
ROOT
ATOM      1  C   UNL     1       1.466   8.599  20.282  0.00  0.00    +0.000 C 
ATOM      2  CA  UNL     1       1.067   9.687  19.578  0.00  0.00    +0.000 C 
ATOM      3  N   UNL     1       0.614  10.833  20.198  0.00  0.00    +0.000 N 
ATOM      4  C   UNL     1      -0.572  11.477  19.966  0.00  0.00    +0.000 C 
ATOM      5  O   UNL     1      -1.319  11.474  19.020  0.00  0.00    +0.000 OA
ATOM      6  CA  UNL     1      -0.508  12.118  21.374  0.00  0.00    +0.000 C 
ATOM      7  C   UNL     1       0.561  11.011  21.649  0.00  0.00    +0.000 C 
ATOM      8  S   UNL     1      -0.066   9.489  22.428  0.00  0.00    +0.000 S 
ATOM      9  C   UNL     1       1.291   8.478  21.786  0.00  0.00    +0.000 C 
ENDROOT
BRANCH   6  10
ATOM     10  N   UNL     1      -1.718  12.119  22.226  0.00  0.00    +0.000 N 
ATOM     11  C   UNL     1      -2.369  13.308  22.486  0.00  0.00    +0.000 C 
ATOM     12  O   UNL     1      -2.008  14.385  22.029  0.00  0.00    +0.000 OA
ATOM     13  H   UNL     1      -2.111  11.271  22.632  0.00  0.00    +0.000 HD
BRANCH  11  14
ATOM     14  C   UNL     1      -3.587  13.212  23.414  0.00  0.00    +0.000 C 
ATOM     15  N   UNL     1      -3.842  12.015  23.888  0.00  0.00    +0.000 NA
BRANCH  14  16
ATOM     16  C   UNL     1      -4.359  14.427  23.709  0.00  0.00    +0.000 A 
ATOM     17  C   UNL     1      -3.880  15.485  24.463  0.00  0.00    +0.000 A 
ATOM     18  S   UNL     1      -5.056  16.721  24.579  0.00  0.00    +0.000 S 
ATOM     19  C   UNL     1      -6.121  15.787  23.616  0.00  0.00    +0.000 A 
ATOM     20  N   UNL     1      -7.336  16.252  23.281  0.00  0.00    +0.000 N 
ATOM     21  N   UNL     1      -5.660  14.626  23.224  0.00  0.00    +0.000 NA
ATOM     22  H   UNL     1      -7.501  17.247  23.353  0.00  0.00    +0.000 HD
ATOM     23  H   UNL     1      -7.781  15.809  22.485  0.00  0.00    +0.000 HD
ENDBRANCH  14  16
BRANCH  15  24
ATOM     24  N   UNL     1      -4.859  11.876  24.775  0.00  0.00    +0.000 N 
ATOM     25  H   UNL     1      -5.194  12.779  25.107  0.00  0.00    +0.000 HD
ATOM     26  H   UNL     1      -4.604  11.311  25.598  0.00  0.00    +0.000 HD
ENDBRANCH  15  24
ENDBRANCH  11  14
ENDBRANCH   6  10
BRANCH   2  27
ATOM     27  C   UNL     1       1.149   9.724  18.074  0.00  0.00    +0.000 C 
ATOM     28  O   UNL     1       2.159   9.964  17.433  0.00  0.00    +0.000 OA
BRANCH  27  29
ATOM     29  OXT UNL     1      -0.061   9.554  17.491  0.00  0.00    +0.000 OA
ATOM     30  HXT UNL     1      -0.597  10.367  17.481  0.00  0.00    +0.000 HD
ENDBRANCH  27  29
ENDBRANCH   2  27
BRANCH   1  31
ATOM     31  C   UNL     1       2.042   7.331  19.666  0.00  0.00    +0.000 C 
BRANCH  31  32
ATOM     32  S   UNL     1       1.633   5.802  20.554  0.00  0.00    +0.000 S 
BRANCH  32  38
ATOM     33  C   UNL     1       2.163   2.603  20.903  0.00  0.00    +0.000 C 
ATOM     34  N   UNL     1       1.958   3.256  19.642  0.00  0.00    +0.000 N 
ATOM     35  N   UNL     1       1.953   2.547  18.497  0.00  0.00    +0.000 NA
ATOM     36  N   UNL     1       1.802   3.445  17.533  0.00  0.00    +0.000 NA
ATOM     37  N   UNL     1       1.708   4.713  18.053  0.00  0.00    +0.000 NA
ATOM     38  C   UNL     1       1.777   4.578  19.355  0.00  0.00    +0.000 A 
ENDBRANCH  32  38
ENDBRANCH  31  32
ENDBRANCH   1  31
TORSDOF 9
ENDMDL
MODEL 7
REMARK VINA RESULT:      -7.1      4.272      6.602
REMARK  Name = 
REMARK  10 active torsions:
REMARK  status: ('A' for Active; 'I' for Inactive)
REMARK    1  A    between atoms: C_1  and  N_2
REMARK    2  A    between atoms: C_6  and  S_7
REMARK    3  A    between atoms: S_7  and  C_8
REMARK    4  A    between atoms: C_8  and  C_9
REMARK    5  A    between atoms: CA_10  and  C_11
REMARK    6  A    between atoms: C_11  and  OXT_13
REMARK    7  A    between atoms: CA_17  and  N_18
REMARK    8  A    between atoms: C_19  and  C_21
REMARK    9  A    between atoms: C_21  and  C_24
REMARK   10  A    between atoms: N_22  and  N_23
REMARK                            x       y       z     vdW  Elec       q    Type
REMARK                         _______ _______ _______ _____ _____    ______ ____
ROOT
ATOM      1  C   UNL     1       0.261  11.213  20.760  0.00  0.00    +0.000 C 
ATOM      2  CA  UNL     1       0.636  11.169  19.458  0.00  0.00    +0.000 C 
ATOM      3  N   UNL     1       0.848   9.977  18.799  0.00  0.00    +0.000 N 
ATOM      4  C   UNL     1       1.973   9.611  18.107  0.00  0.00    +0.000 C 
ATOM      5  O   UNL     1       2.855  10.259  17.602  0.00  0.00    +0.000 OA
ATOM      6  CA  UNL     1       1.614   8.117  18.300  0.00  0.00    +0.000 C 
ATOM      7  C   UNL     1       0.653   8.660  19.405  0.00  0.00    +0.000 C 
ATOM      8  S   UNL     1       1.322   8.663  21.099  0.00  0.00    +0.000 S 
ATOM      9  C   UNL     1       0.211   9.981  21.648  0.00  0.00    +0.000 C 
ENDROOT
BRANCH   6  10
ATOM     10  N   UNL     1       2.668   7.167  18.724  0.00  0.00    +0.000 N 
ATOM     11  C   UNL     1       2.589   5.844  18.338  0.00  0.00    +0.000 C 
ATOM     12  O   UNL     1       1.689   5.402  17.635  0.00  0.00    +0.000 OA
ATOM     13  H   UNL     1       3.469   7.444  19.289  0.00  0.00    +0.000 HD
BRANCH  11  14
ATOM     14  C   UNL     1       3.704   4.930  18.863  0.00  0.00    +0.000 C 
ATOM     15  N   UNL     1       3.300   3.829  19.452  0.00  0.00    +0.000 NA
BRANCH  14  16
ATOM     16  C   UNL     1       5.105   5.330  18.674  0.00  0.00    +0.000 A 
ATOM     17  C   UNL     1       5.597   5.903  17.513  0.00  0.00    +0.000 A 
ATOM     18  S   UNL     1       7.265   6.242  17.671  0.00  0.00    +0.000 S 
ATOM     19  C   UNL     1       7.232   5.623  19.267  0.00  0.00    +0.000 A 
ATOM     20  N   UNL     1       8.338   5.624  20.031  0.00  0.00    +0.000 N 
ATOM     21  N   UNL     1       6.071   5.181  19.680  0.00  0.00    +0.000 NA
ATOM     22  H   UNL     1       9.095   6.241  19.770  0.00  0.00    +0.000 HD
ATOM     23  H   UNL     1       8.191   5.537  21.030  0.00  0.00    +0.000 HD
ENDBRANCH  14  16
BRANCH  15  24
ATOM     24  N   UNL     1       4.237   2.942  19.871  0.00  0.00    +0.000 N 
ATOM     25  H   UNL     1       3.855   1.999  19.949  0.00  0.00    +0.000 HD
ATOM     26  H   UNL     1       4.651   3.190  20.781  0.00  0.00    +0.000 HD
ENDBRANCH  15  24
ENDBRANCH  11  14
ENDBRANCH   6  10
BRANCH   2  27
ATOM     27  C   UNL     1       0.788  12.426  18.641  0.00  0.00    +0.000 C 
ATOM     28  O   UNL     1       1.706  13.222  18.746  0.00  0.00    +0.000 OA
BRANCH  27  29
ATOM     29  OXT UNL     1      -0.272  12.638  17.825  0.00  0.00    +0.000 OA
ATOM     30  HXT UNL     1      -1.122  12.657  18.301  0.00  0.00    +0.000 HD
ENDBRANCH  27  29
ENDBRANCH   2  27
BRANCH   1  31
ATOM     31  C   UNL     1      -0.060  12.489  21.528  0.00  0.00    +0.000 C 
BRANCH  31  32
ATOM     32  S   UNL     1      -1.615  13.292  21.051  0.00  0.00    +0.000 S 
BRANCH  32  38
ATOM     33  C   UNL     1      -4.872  13.475  21.089  0.00  0.00    +0.000 C 
ATOM     34  N   UNL     1      -4.083  12.884  22.132  0.00  0.00    +0.000 N 
ATOM     35  N   UNL     1      -4.674  12.337  23.210  0.00  0.00    +0.000 NA
ATOM     36  N   UNL     1      -3.676  11.946  23.992  0.00  0.00    +0.000 NA
ATOM     37  N   UNL     1      -2.461  12.236  23.421  0.00  0.00    +0.000 NA
ATOM     38  C   UNL     1      -2.727  12.788  22.262  0.00  0.00    +0.000 A 
ENDBRANCH  32  38
ENDBRANCH  31  32
ENDBRANCH   1  31
TORSDOF 9
ENDMDL
MODEL 8
REMARK VINA RESULT:      -7.0      5.231     10.470
REMARK  Name = 
REMARK  10 active torsions:
REMARK  status: ('A' for Active; 'I' for Inactive)
REMARK    1  A    between atoms: C_1  and  N_2
REMARK    2  A    between atoms: C_6  and  S_7
REMARK    3  A    between atoms: S_7  and  C_8
REMARK    4  A    between atoms: C_8  and  C_9
REMARK    5  A    between atoms: CA_10  and  C_11
REMARK    6  A    between atoms: C_11  and  OXT_13
REMARK    7  A    between atoms: CA_17  and  N_18
REMARK    8  A    between atoms: C_19  and  C_21
REMARK    9  A    between atoms: C_21  and  C_24
REMARK   10  A    between atoms: N_22  and  N_23
REMARK                            x       y       z     vdW  Elec       q    Type
REMARK                         _______ _______ _______ _____ _____    ______ ____
ROOT
ATOM      1  C   UNL     1       1.013   8.906  20.354  0.00  0.00    +0.000 C 
ATOM      2  CA  UNL     1       0.271   9.708  21.157  0.00  0.00    +0.000 C 
ATOM      3  N   UNL     1      -0.368  10.832  20.678  0.00  0.00    +0.000 N 
ATOM      4  C   UNL     1      -0.263  12.107  21.169  0.00  0.00    +0.000 C 
ATOM      5  O   UNL     1       0.068  12.530  22.248  0.00  0.00    +0.000 OA
ATOM      6  CA  UNL     1      -0.700  12.678  19.798  0.00  0.00    +0.000 C 
ATOM      7  C   UNL     1      -0.354  11.247  19.276  0.00  0.00    +0.000 C 
ATOM      8  S   UNL     1       1.324  11.042  18.597  0.00  0.00    +0.000 S 
ATOM      9  C   UNL     1       1.347   9.261  18.915  0.00  0.00    +0.000 C 
ENDROOT
BRANCH   6  10
ATOM     10  N   UNL     1       0.049  13.814  19.214  0.00  0.00    +0.000 N 
ATOM     11  C   UNL     1      -0.417  15.101  19.390  0.00  0.00    +0.000 C 
ATOM     12  O   UNL     1      -1.425  15.369  20.030  0.00  0.00    +0.000 OA
ATOM     13  H   UNL     1       0.912  13.695  18.685  0.00  0.00    +0.000 HD
BRANCH  11  14
ATOM     14  C   UNL     1       0.404  16.205  18.709  0.00  0.00    +0.000 C 
ATOM     15  N   UNL     1      -0.294  17.135  18.102  0.00  0.00    +0.000 NA
BRANCH  14  16
ATOM     16  C   UNL     1       1.871  16.154  18.784  0.00  0.00    +0.000 A 
ATOM     17  C   UNL     1       2.628  16.902  19.670  0.00  0.00    +0.000 A 
ATOM     18  S   UNL     1       4.293  16.566  19.471  0.00  0.00    +0.000 S 
ATOM     19  C   UNL     1       3.910  15.443  18.235  0.00  0.00    +0.000 A 
ATOM     20  N   UNL     1       4.875  14.742  17.617  0.00  0.00    +0.000 N 
ATOM     21  N   UNL     1       2.636  15.310  17.964  0.00  0.00    +0.000 NA
ATOM     22  H   UNL     1       5.774  14.667  18.073  0.00  0.00    +0.000 HD
ATOM     23  H   UNL     1       4.578  13.902  17.134  0.00  0.00    +0.000 HD
ENDBRANCH  14  16
BRANCH  15  24
ATOM     24  N   UNL     1       0.369  18.180  17.546  0.00  0.00    +0.000 N 
ATOM     25  H   UNL     1       1.170  18.461  18.112  0.00  0.00    +0.000 HD
ATOM     26  H   UNL     1      -0.225  19.009  17.406  0.00  0.00    +0.000 HD
ENDBRANCH  15  24
ENDBRANCH  11  14
ENDBRANCH   6  10
BRANCH   2  27
ATOM     27  C   UNL     1       0.058   9.382  22.613  0.00  0.00    +0.000 C 
ATOM     28  O   UNL     1       0.811   9.701  23.519  0.00  0.00    +0.000 OA
BRANCH  27  29
ATOM     29  OXT UNL     1      -1.027   8.598  22.809  0.00  0.00    +0.000 OA
ATOM     30  HXT UNL     1      -1.366   8.202  21.986  0.00  0.00    +0.000 HD
ENDBRANCH  27  29
ENDBRANCH   2  27
BRANCH   1  31
ATOM     31  C   UNL     1       1.685   7.614  20.799  0.00  0.00    +0.000 C 
BRANCH  31  32
ATOM     32  S   UNL     1       2.482   6.675  19.467  0.00  0.00    +0.000 S 
BRANCH  32  38
ATOM     33  C   UNL     1       3.510   3.940  18.016  0.00  0.00    +0.000 C 
ATOM     34  N   UNL     1       3.038   4.010  19.369  0.00  0.00    +0.000 N 
ATOM     35  N   UNL     1       3.015   2.908  20.142  0.00  0.00    +0.000 NA
ATOM     36  N   UNL     1       2.477   3.301  21.289  0.00  0.00    +0.000 NA
ATOM     37  N   UNL     1       2.161   4.636  21.253  0.00  0.00    +0.000 NA
ATOM     38  C   UNL     1       2.538   5.067  20.073  0.00  0.00    +0.000 A 
ENDBRANCH  32  38
ENDBRANCH  31  32
ENDBRANCH   1  31
TORSDOF 9
ENDMDL
MODEL 9
REMARK VINA RESULT:      -7.0      4.615      6.846
REMARK  Name = 
REMARK  10 active torsions:
REMARK  status: ('A' for Active; 'I' for Inactive)
REMARK    1  A    between atoms: C_1  and  N_2
REMARK    2  A    between atoms: C_6  and  S_7
REMARK    3  A    between atoms: S_7  and  C_8
REMARK    4  A    between atoms: C_8  and  C_9
REMARK    5  A    between atoms: CA_10  and  C_11
REMARK    6  A    between atoms: C_11  and  OXT_13
REMARK    7  A    between atoms: CA_17  and  N_18
REMARK    8  A    between atoms: C_19  and  C_21
REMARK    9  A    between atoms: C_21  and  C_24
REMARK   10  A    between atoms: N_22  and  N_23
REMARK                            x       y       z     vdW  Elec       q    Type
REMARK                         _______ _______ _______ _____ _____    ______ ____
ROOT
ATOM      1  C   UNL     1      -0.280  11.395  20.658  0.00  0.00    +0.000 C 
ATOM      2  CA  UNL     1       0.154  11.480  19.376  0.00  0.00    +0.000 C 
ATOM      3  N   UNL     1       0.577  10.373  18.673  0.00  0.00    +0.000 N 
ATOM      4  C   UNL     1       1.774  10.222  18.024  0.00  0.00    +0.000 C 
ATOM      5  O   UNL     1       2.567  11.023  17.596  0.00  0.00    +0.000 OA
ATOM      6  CA  UNL     1       1.643   8.682  18.125  0.00  0.00    +0.000 C 
ATOM      7  C   UNL     1       0.561   9.011  19.204  0.00  0.00    +0.000 C 
ATOM      8  S   UNL     1       1.147   9.021  20.928  0.00  0.00    +0.000 S 
ATOM      9  C   UNL     1      -0.178  10.122  21.481  0.00  0.00    +0.000 C 
ENDROOT
BRANCH   6  10
ATOM     10  N   UNL     1       2.810   7.881  18.557  0.00  0.00    +0.000 N 
ATOM     11  C   UNL     1       2.905   6.556  18.183  0.00  0.00    +0.000 C 
ATOM     12  O   UNL     1       2.071   5.994  17.485  0.00  0.00    +0.000 OA
ATOM     13  H   UNL     1       3.568   8.265  19.119  0.00  0.00    +0.000 HD
BRANCH  11  14
ATOM     14  C   UNL     1       4.129   5.800  18.716  0.00  0.00    +0.000 C 
ATOM     15  N   UNL     1       5.289   6.366  18.480  0.00  0.00    +0.000 NA
BRANCH  14  16
ATOM     16  C   UNL     1       3.929   4.536  19.439  0.00  0.00    +0.000 A 
ATOM     17  C   UNL     1       2.844   4.276  20.259  0.00  0.00    +0.000 A 
ATOM     18  S   UNL     1       2.951   2.701  20.916  0.00  0.00    +0.000 S 
ATOM     19  C   UNL     1       4.418   2.455  20.066  0.00  0.00    +0.000 A 
ATOM     20  N   UNL     1       5.072   1.283  20.142  0.00  0.00    +0.000 N 
ATOM     21  N   UNL     1       4.827   3.463  19.338  0.00  0.00    +0.000 NA
ATOM     22  H   UNL     1       4.559   0.473  20.461  0.00  0.00    +0.000 HD
ATOM     23  H   UNL     1       5.740   1.095  19.403  0.00  0.00    +0.000 HD
ENDBRANCH  14  16
BRANCH  15  24
ATOM     24  N   UNL     1       6.405   5.787  18.991  0.00  0.00    +0.000 N 
ATOM     25  H   UNL     1       6.483   5.943  19.995  0.00  0.00    +0.000 HD
ATOM     26  H   UNL     1       7.273   6.123  18.550  0.00  0.00    +0.000 HD
ENDBRANCH  15  24
ENDBRANCH  11  14
ENDBRANCH   6  10
BRANCH   2  27
ATOM     27  C   UNL     1       0.146  12.789  18.630  0.00  0.00    +0.000 C 
ATOM     28  O   UNL     1       0.909  13.719  18.838  0.00  0.00    +0.000 OA
BRANCH  27  29
ATOM     29  OXT UNL     1      -0.878  12.870  17.748  0.00  0.00    +0.000 OA
ATOM     30  HXT UNL     1      -1.740  12.649  18.144  0.00  0.00    +0.000 HD
ENDBRANCH  27  29
ENDBRANCH   2  27
BRANCH   1  31
ATOM     31  C   UNL     1      -0.827  12.563  21.469  0.00  0.00    +0.000 C 
BRANCH  31  32
ATOM     32  S   UNL     1      -2.517  13.062  21.037  0.00  0.00    +0.000 S 
BRANCH  32  38
ATOM     33  C   UNL     1      -5.584  13.866  21.802  0.00  0.00    +0.000 C 
ATOM     34  N   UNL     1      -4.734  13.049  22.620  0.00  0.00    +0.000 N 
ATOM     35  N   UNL     1      -5.187  12.538  23.780  0.00  0.00    +0.000 NA
ATOM     36  N   UNL     1      -4.150  11.897  24.305  0.00  0.00    +0.000 NA
ATOM     37  N   UNL     1      -3.049  11.994  23.491  0.00  0.00    +0.000 NA
ATOM     38  C   UNL     1      -3.431  12.682  22.443  0.00  0.00    +0.000 A 
ENDBRANCH  32  38
ENDBRANCH  31  32
ENDBRANCH   1  31
TORSDOF 9
ENDMDL
