MODEL 1
REMARK VINA RESULT:      -7.1      0.000      0.000
REMARK  Name = 
REMARK  3 active torsions:
REMARK  status: ('A' for Active; 'I' for Inactive)
REMARK    1  A    between atoms: N_4  and  C_5
REMARK    2  A    between atoms: C_12  and  C_13
REMARK    3  A    between atoms: C_13  and  O_15
REMARK                            x       y       z     vdW  Elec       q    Type
REMARK                         _______ _______ _______ _____ _____    ______ ____
ROOT
ATOM      1  N   UNL     1       7.984   4.375  17.860  0.00  0.00    +0.000 N 
ATOM      2  C   UNL     1       6.656   4.336  17.689  0.00  0.00    +0.000 A 
ATOM      3  N   UNL     1       5.794   4.259  18.697  0.00  0.00    +0.000 NA
ATOM      4  N   UNL     1       4.595   4.203  18.066  0.00  0.00    +0.000 N 
ATOM      5  N   UNL     1       4.631   4.231  16.702  0.00  0.00    +0.000 NA
ATOM      6  C   UNL     1       5.954   4.351  16.463  0.00  0.00    +0.000 A 
ATOM      7  H   UNL     1       8.361   4.187  18.783  0.00  0.00    +0.000 HD
ATOM      8  H   UNL     1       8.625   4.180  17.093  0.00  0.00    +0.000 HD
ENDROOT
BRANCH   4   9
ATOM      9  C   UNL     1       3.368   4.109  18.772  0.00  0.00    +0.000 A 
ATOM     10  C   UNL     1       3.148   4.887  19.919  0.00  0.00    +0.000 A 
ATOM     11  C   UNL     1       1.936   4.783  20.600  0.00  0.00    +0.000 A 
ATOM     12  C   UNL     1       0.946   3.907  20.149  0.00  0.00    +0.000 A 
ATOM     13  C   UNL     1       1.164   3.130  19.014  0.00  0.00    +0.000 A 
ATOM     14  C   UNL     1       2.370   3.229  18.321  0.00  0.00    +0.000 A 
ENDBRANCH   4   9
BRANCH   6  15
ATOM     15  C   UNL     1       6.449   4.458  15.101  0.00  0.00    +0.000 C 
ATOM     16  O   UNL     1       5.985   3.866  14.137  0.00  0.00    +0.000 OA
BRANCH  15  17
ATOM     17  O   UNL     1       7.507   5.314  14.999  0.00  0.00    +0.000 OA
ATOM     18  H   UNL     1       7.164   6.153  14.612  0.00  0.00    +0.000 HD
ENDBRANCH  15  17
ENDBRANCH   6  15
TORSDOF 3
ENDMDL
MODEL 2
REMARK VINA RESULT:      -7.1      0.067      1.253
REMARK  Name = 
REMARK  3 active torsions:
REMARK  status: ('A' for Active; 'I' for Inactive)
REMARK    1  A    between atoms: N_4  and  C_5
REMARK    2  A    between atoms: C_12  and  C_13
REMARK    3  A    between atoms: C_13  and  O_15
REMARK                            x       y       z     vdW  Elec       q    Type
REMARK                         _______ _______ _______ _____ _____    ______ ____
ROOT
ATOM      1  N   UNL     1       7.957   4.414  17.934  0.00  0.00    +0.000 N 
ATOM      2  C   UNL     1       6.630   4.362  17.754  0.00  0.00    +0.000 A 
ATOM      3  N   UNL     1       5.762   4.278  18.757  0.00  0.00    +0.000 NA
ATOM      4  N   UNL     1       4.568   4.210  18.118  0.00  0.00    +0.000 N 
ATOM      5  N   UNL     1       4.613   4.238  16.755  0.00  0.00    +0.000 NA
ATOM      6  C   UNL     1       5.936   4.370  16.524  0.00  0.00    +0.000 A 
ATOM      7  H   UNL     1       8.329   4.230  18.859  0.00  0.00    +0.000 HD
ATOM      8  H   UNL     1       8.604   4.223  17.172  0.00  0.00    +0.000 HD
ENDROOT
BRANCH   4   9
ATOM      9  C   UNL     1       3.338   4.105  18.816  0.00  0.00    +0.000 A 
ATOM     10  C   UNL     1       2.350   3.209  18.381  0.00  0.00    +0.000 A 
ATOM     11  C   UNL     1       1.146   3.116  19.078  0.00  0.00    +0.000 A 
ATOM     12  C   UNL     1       0.920   3.914  20.203  0.00  0.00    +0.000 A 
ATOM     13  C   UNL     1       1.897   4.809  20.634  0.00  0.00    +0.000 A 
ATOM     14  C   UNL     1       3.107   4.906  19.947  0.00  0.00    +0.000 A 
ENDBRANCH   4   9
BRANCH   6  15
ATOM     15  C   UNL     1       6.439   4.480  15.165  0.00  0.00    +0.000 C 
ATOM     16  O   UNL     1       5.997   3.872  14.201  0.00  0.00    +0.000 OA
BRANCH  15  17
ATOM     17  O   UNL     1       7.477   5.361  15.066  0.00  0.00    +0.000 OA
ATOM     18  H   UNL     1       7.886   5.428  15.960  0.00  0.00    +0.000 HD
ENDBRANCH  15  17
ENDBRANCH   6  15
TORSDOF 3
ENDMDL
MODEL 3
REMARK VINA RESULT:      -7.1      0.914      1.097
REMARK  Name = 
REMARK  3 active torsions:
REMARK  status: ('A' for Active; 'I' for Inactive)
REMARK    1  A    between atoms: N_4  and  C_5
REMARK    2  A    between atoms: C_12  and  C_13
REMARK    3  A    between atoms: C_13  and  O_15
REMARK                            x       y       z     vdW  Elec       q    Type
REMARK                         _______ _______ _______ _____ _____    ______ ____
ROOT
ATOM      1  N   UNL     1       7.737   4.438  18.234  0.00  0.00    +0.000 N 
ATOM      2  C   UNL     1       6.409   4.504  18.064  0.00  0.00    +0.000 A 
ATOM      3  N   UNL     1       5.537   4.044  18.955  0.00  0.00    +0.000 NA
ATOM      4  N   UNL     1       4.342   4.280  18.358  0.00  0.00    +0.000 N 
ATOM      5  N   UNL     1       4.391   4.862  17.124  0.00  0.00    +0.000 NA
ATOM      6  C   UNL     1       5.718   5.036  16.953  0.00  0.00    +0.000 A 
ATOM      7  H   UNL     1       8.101   3.880  18.999  0.00  0.00    +0.000 HD
ATOM      8  H   UNL     1       8.379   4.556  17.453  0.00  0.00    +0.000 HD
ENDROOT
BRANCH   4   9
ATOM      9  C   UNL     1       3.108   3.936  18.966  0.00  0.00    +0.000 A 
ATOM     10  C   UNL     1       2.762   4.465  20.219  0.00  0.00    +0.000 A 
ATOM     11  C   UNL     1       1.545   4.118  20.802  0.00  0.00    +0.000 A 
ATOM     12  C   UNL     1       0.672   3.245  20.147  0.00  0.00    +0.000 A 
ATOM     13  C   UNL     1       1.015   2.714  18.906  0.00  0.00    +0.000 A 
ATOM     14  C   UNL     1       2.229   3.059  18.310  0.00  0.00    +0.000 A 
ENDBRANCH   4   9
BRANCH   6  15
ATOM     15  C   UNL     1       6.227   5.677  15.752  0.00  0.00    +0.000 C 
ATOM     16  O   UNL     1       7.329   5.475  15.262  0.00  0.00    +0.000 OA
BRANCH  15  17
ATOM     17  O   UNL     1       5.327   6.544  15.205  0.00  0.00    +0.000 OA
ATOM     18  H   UNL     1       5.256   7.313  15.817  0.00  0.00    +0.000 HD
ENDBRANCH  15  17
ENDBRANCH   6  15
TORSDOF 3
ENDMDL
MODEL 4
REMARK VINA RESULT:      -7.1      1.597      2.166
REMARK  Name = 
REMARK  3 active torsions:
REMARK  status: ('A' for Active; 'I' for Inactive)
REMARK    1  A    between atoms: N_4  and  C_5
REMARK    2  A    between atoms: C_12  and  C_13
REMARK    3  A    between atoms: C_13  and  O_15
REMARK                            x       y       z     vdW  Elec       q    Type
REMARK                         _______ _______ _______ _____ _____    ______ ____
ROOT
ATOM      1  N   UNL     1       5.115   6.718  15.798  0.00  0.00    +0.000 N 
ATOM      2  C   UNL     1       4.968   5.794  16.757  0.00  0.00    +0.000 A 
ATOM      3  N   UNL     1       3.851   5.647  17.462  0.00  0.00    +0.000 NA
ATOM      4  N   UNL     1       4.167   4.647  18.323  0.00  0.00    +0.000 N 
ATOM      5  N   UNL     1       5.431   4.142  18.221  0.00  0.00    +0.000 NA
ATOM      6  C   UNL     1       5.932   4.857  17.192  0.00  0.00    +0.000 A 
ATOM      7  H   UNL     1       4.405   7.436  15.703  0.00  0.00    +0.000 HD
ATOM      8  H   UNL     1       6.034   6.983  15.452  0.00  0.00    +0.000 HD
ENDROOT
BRANCH   4   9
ATOM      9  C   UNL     1       3.249   4.155  19.286  0.00  0.00    +0.000 A 
ATOM     10  C   UNL     1       1.970   4.721  19.400  0.00  0.00    +0.000 A 
ATOM     11  C   UNL     1       1.079   4.225  20.350  0.00  0.00    +0.000 A 
ATOM     12  C   UNL     1       1.456   3.173  21.190  0.00  0.00    +0.000 A 
ATOM     13  C   UNL     1       2.727   2.614  21.082  0.00  0.00    +0.000 A 
ATOM     14  C   UNL     1       3.625   3.099  20.131  0.00  0.00    +0.000 A 
ENDBRANCH   4   9
BRANCH   6  15
ATOM     15  C   UNL     1       7.280   4.608  16.710  0.00  0.00    +0.000 C 
ATOM     16  O   UNL     1       7.684   4.872  15.586  0.00  0.00    +0.000 OA
BRANCH  15  17
ATOM     17  O   UNL     1       8.076   4.043  17.663  0.00  0.00    +0.000 OA
ATOM     18  H   UNL     1       8.879   3.702  17.206  0.00  0.00    +0.000 HD
ENDBRANCH  15  17
ENDBRANCH   6  15
TORSDOF 3
ENDMDL
MODEL 5
REMARK VINA RESULT:      -7.0      0.729      1.487
REMARK  Name = 
REMARK  3 active torsions:
REMARK  status: ('A' for Active; 'I' for Inactive)
REMARK    1  A    between atoms: N_4  and  C_5
REMARK    2  A    between atoms: C_12  and  C_13
REMARK    3  A    between atoms: C_13  and  O_15
REMARK                            x       y       z     vdW  Elec       q    Type
REMARK                         _______ _______ _______ _____ _____    ______ ____
ROOT
ATOM      1  N   UNL     1       8.022   4.672  18.058  0.00  0.00    +0.000 N 
ATOM      2  C   UNL     1       6.739   4.412  17.772  0.00  0.00    +0.000 A 
ATOM      3  N   UNL     1       5.812   4.208  18.703  0.00  0.00    +0.000 NA
ATOM      4  N   UNL     1       4.701   3.947  17.971  0.00  0.00    +0.000 N 
ATOM      5  N   UNL     1       4.856   3.963  16.615  0.00  0.00    +0.000 NA
ATOM      6  C   UNL     1       6.158   4.296  16.490  0.00  0.00    +0.000 A 
ATOM      7  H   UNL     1       8.338   4.560  19.015  0.00  0.00    +0.000 HD
ATOM      8  H   UNL     1       8.753   4.574  17.356  0.00  0.00    +0.000 HD
ENDROOT
BRANCH   4   9
ATOM      9  C   UNL     1       3.447   3.661  18.568  0.00  0.00    +0.000 A 
ATOM     10  C   UNL     1       2.275   3.663  17.795  0.00  0.00    +0.000 A 
ATOM     11  C   UNL     1       1.051   3.379  18.397  0.00  0.00    +0.000 A 
ATOM     12  C   UNL     1       0.986   3.097  19.765  0.00  0.00    +0.000 A 
ATOM     13  C   UNL     1       2.146   3.100  20.535  0.00  0.00    +0.000 A 
ATOM     14  C   UNL     1       3.378   3.377  19.942  0.00  0.00    +0.000 A 
ENDBRANCH   4   9
BRANCH   6  15
ATOM     15  C   UNL     1       6.751   4.465  15.174  0.00  0.00    +0.000 C 
ATOM     16  O   UNL     1       7.560   5.333  14.875  0.00  0.00    +0.000 OA
BRANCH  15  17
ATOM     17  O   UNL     1       6.313   3.530  14.282  0.00  0.00    +0.000 OA
ATOM     18  H   UNL     1       6.556   2.647  14.646  0.00  0.00    +0.000 HD
ENDBRANCH  15  17
ENDBRANCH   6  15
TORSDOF 3
ENDMDL
MODEL 6
REMARK VINA RESULT:      -6.9      2.171      2.798
REMARK  Name = 
REMARK  3 active torsions:
REMARK  status: ('A' for Active; 'I' for Inactive)
REMARK    1  A    between atoms: N_4  and  C_5
REMARK    2  A    between atoms: C_12  and  C_13
REMARK    3  A    between atoms: C_13  and  O_15
REMARK                            x       y       z     vdW  Elec       q    Type
REMARK                         _______ _______ _______ _____ _____    ______ ____
ROOT
ATOM      1  N   UNL     1       7.530   4.858  16.260  0.00  0.00    +0.000 N 
ATOM      2  C   UNL     1       6.602   4.726  17.217  0.00  0.00    +0.000 A 
ATOM      3  N   UNL     1       5.447   4.095  17.030  0.00  0.00    +0.000 NA
ATOM      4  N   UNL     1       4.825   4.243  18.226  0.00  0.00    +0.000 N 
ATOM      5  N   UNL     1       5.509   4.942  19.177  0.00  0.00    +0.000 NA
ATOM      6  C   UNL     1       6.664   5.222  18.539  0.00  0.00    +0.000 A 
ATOM      7  H   UNL     1       7.287   4.601  15.309  0.00  0.00    +0.000 HD
ATOM      8  H   UNL     1       8.277   5.545  16.335  0.00  0.00    +0.000 HD
ENDROOT
BRANCH   4   9
ATOM      9  C   UNL     1       3.533   3.716  18.480  0.00  0.00    +0.000 A 
ATOM     10  C   UNL     1       2.555   4.506  19.105  0.00  0.00    +0.000 A 
ATOM     11  C   UNL     1       1.289   3.974  19.347  0.00  0.00    +0.000 A 
ATOM     12  C   UNL     1       0.994   2.659  18.975  0.00  0.00    +0.000 A 
ATOM     13  C   UNL     1       1.965   1.872  18.360  0.00  0.00    +0.000 A 
ATOM     14  C   UNL     1       3.233   2.396  18.108  0.00  0.00    +0.000 A 
ENDBRANCH   4   9
BRANCH   6  15
ATOM     15  C   UNL     1       7.726   5.943  19.219  0.00  0.00    +0.000 C 
ATOM     16  O   UNL     1       8.331   6.900  18.759  0.00  0.00    +0.000 OA
BRANCH  15  17
ATOM     17  O   UNL     1       7.982   5.439  20.461  0.00  0.00    +0.000 OA
ATOM     18  H   UNL     1       7.633   6.088  21.115  0.00  0.00    +0.000 HD
ENDBRANCH  15  17
ENDBRANCH   6  15
TORSDOF 3
ENDMDL
MODEL 7
REMARK VINA RESULT:      -6.9      1.391      2.362
REMARK  Name = 
REMARK  3 active torsions:
REMARK  status: ('A' for Active; 'I' for Inactive)
REMARK    1  A    between atoms: N_4  and  C_5
REMARK    2  A    between atoms: C_12  and  C_13
REMARK    3  A    between atoms: C_13  and  O_15
REMARK                            x       y       z     vdW  Elec       q    Type
REMARK                         _______ _______ _______ _____ _____    ______ ____
ROOT
ATOM      1  N   UNL     1       5.264   6.652  15.716  0.00  0.00    +0.000 N 
ATOM      2  C   UNL     1       4.999   5.753  16.674  0.00  0.00    +0.000 A 
ATOM      3  N   UNL     1       3.797   5.604  17.220  0.00  0.00    +0.000 NA
ATOM      4  N   UNL     1       4.004   4.636  18.147  0.00  0.00    +0.000 N 
ATOM      5  N   UNL     1       5.277   4.153  18.238  0.00  0.00    +0.000 NA
ATOM      6  C   UNL     1       5.907   4.848  17.268  0.00  0.00    +0.000 A 
ATOM      7  H   UNL     1       4.563   7.353  15.500  0.00  0.00    +0.000 HD
ATOM      8  H   UNL     1       6.219   6.926  15.494  0.00  0.00    +0.000 HD
ENDROOT
BRANCH   4   9
ATOM      9  C   UNL     1       2.968   4.153  18.986  0.00  0.00    +0.000 A 
ATOM     10  C   UNL     1       1.896   3.427  18.445  0.00  0.00    +0.000 A 
ATOM     11  C   UNL     1       0.886   2.958  19.284  0.00  0.00    +0.000 A 
ATOM     12  C   UNL     1       0.936   3.212  20.657  0.00  0.00    +0.000 A 
ATOM     13  C   UNL     1       1.995   3.937  21.196  0.00  0.00    +0.000 A 
ATOM     14  C   UNL     1       3.014   4.407  20.367  0.00  0.00    +0.000 A 
ENDBRANCH   4   9
BRANCH   6  15
ATOM     15  C   UNL     1       7.313   4.612  16.987  0.00  0.00    +0.000 C 
ATOM     16  O   UNL     1       8.148   4.278  17.815  0.00  0.00    +0.000 OA
BRANCH  15  17
ATOM     17  O   UNL     1       7.617   4.794  15.669  0.00  0.00    +0.000 OA
ATOM     18  H   UNL     1       8.526   4.442  15.530  0.00  0.00    +0.000 HD
ENDBRANCH  15  17
ENDBRANCH   6  15
TORSDOF 3
ENDMDL
MODEL 8
REMARK VINA RESULT:      -6.9      1.672      1.870
REMARK  Name = 
REMARK  3 active torsions:
REMARK  status: ('A' for Active; 'I' for Inactive)
REMARK    1  A    between atoms: N_4  and  C_5
REMARK    2  A    between atoms: C_12  and  C_13
REMARK    3  A    between atoms: C_13  and  O_15
REMARK                            x       y       z     vdW  Elec       q    Type
REMARK                         _______ _______ _______ _____ _____    ______ ____
ROOT
ATOM      1  N   UNL     1       7.695   4.426  17.939  0.00  0.00    +0.000 N 
ATOM      2  C   UNL     1       6.392   4.632  18.169  0.00  0.00    +0.000 A 
ATOM      3  N   UNL     1       5.691   3.939  19.061  0.00  0.00    +0.000 NA
ATOM      4  N   UNL     1       4.441   4.449  18.925  0.00  0.00    +0.000 N 
ATOM      5  N   UNL     1       4.291   5.430  17.988  0.00  0.00    +0.000 NA
ATOM      6  C   UNL     1       5.551   5.570  17.529  0.00  0.00    +0.000 A 
ATOM      7  H   UNL     1       8.137   3.609  18.347  0.00  0.00    +0.000 HD
ATOM      8  H   UNL     1       8.148   4.776  17.097  0.00  0.00    +0.000 HD
ENDROOT
BRANCH   4   9
ATOM      9  C   UNL     1       3.345   3.989  19.697  0.00  0.00    +0.000 A 
ATOM     10  C   UNL     1       3.501   2.904  20.575  0.00  0.00    +0.000 A 
ATOM     11  C   UNL     1       2.413   2.465  21.329  0.00  0.00    +0.000 A 
ATOM     12  C   UNL     1       1.172   3.096  21.210  0.00  0.00    +0.000 A 
ATOM     13  C   UNL     1       1.014   4.169  20.336  0.00  0.00    +0.000 A 
ATOM     14  C   UNL     1       2.096   4.620  19.581  0.00  0.00    +0.000 A 
ENDBRANCH   4   9
BRANCH   6  15
ATOM     15  C   UNL     1       5.860   6.566  16.516  0.00  0.00    +0.000 C 
ATOM     16  O   UNL     1       5.196   6.772  15.510  0.00  0.00    +0.000 OA
BRANCH  15  17
ATOM     17  O   UNL     1       6.988   7.274  16.811  0.00  0.00    +0.000 OA
ATOM     18  H   UNL     1       6.698   8.161  17.129  0.00  0.00    +0.000 HD
ENDBRANCH  15  17
ENDBRANCH   6  15
TORSDOF 3
ENDMDL
MODEL 9
REMARK VINA RESULT:      -6.9      1.889      2.274
REMARK  Name = 
REMARK  3 active torsions:
REMARK  status: ('A' for Active; 'I' for Inactive)
REMARK    1  A    between atoms: N_4  and  C_5
REMARK    2  A    between atoms: C_12  and  C_13
REMARK    3  A    between atoms: C_13  and  O_15
REMARK                            x       y       z     vdW  Elec       q    Type
REMARK                         _______ _______ _______ _____ _____    ______ ____
ROOT
ATOM      1  N   UNL     1       7.968   5.625  19.908  0.00  0.00    +0.000 N 
ATOM      2  C   UNL     1       6.840   5.423  19.215  0.00  0.00    +0.000 A 
ATOM      3  N   UNL     1       5.820   4.706  19.676  0.00  0.00    +0.000 NA
ATOM      4  N   UNL     1       4.939   4.737  18.645  0.00  0.00    +0.000 N 
ATOM      5  N   UNL     1       5.334   5.429  17.537  0.00  0.00    +0.000 NA
ATOM      6  C   UNL     1       6.540   5.896  17.918  0.00  0.00    +0.000 A 
ATOM      7  H   UNL     1       8.120   5.088  20.756  0.00  0.00    +0.000 HD
ATOM      8  H   UNL     1       8.820   5.949  19.455  0.00  0.00    +0.000 HD
ENDROOT
BRANCH   4   9
ATOM      9  C   UNL     1       3.681   4.084  18.701  0.00  0.00    +0.000 A 
ATOM     10  C   UNL     1       3.524   2.910  19.455  0.00  0.00    +0.000 A 
ATOM     11  C   UNL     1       2.281   2.281  19.500  0.00  0.00    +0.000 A 
ATOM     12  C   UNL     1       1.197   2.810  18.796  0.00  0.00    +0.000 A 
ATOM     13  C   UNL     1       1.351   3.971  18.043  0.00  0.00    +0.000 A 
ATOM     14  C   UNL     1       2.589   4.612  17.995  0.00  0.00    +0.000 A 
ENDBRANCH   4   9
BRANCH   6  15
ATOM     15  C   UNL     1       7.318   6.740  17.026  0.00  0.00    +0.000 C 
ATOM     16  O   UNL     1       7.746   7.851  17.307  0.00  0.00    +0.000 OA
BRANCH  15  17
ATOM     17  O   UNL     1       7.538   6.152  15.815  0.00  0.00    +0.000 OA
ATOM     18  H   UNL     1       7.349   6.829  15.125  0.00  0.00    +0.000 HD
ENDBRANCH  15  17
ENDBRANCH   6  15
TORSDOF 3
ENDMDL
