MODEL 1
REMARK VINA RESULT:      -9.7      0.000      0.000
REMARK  Name = 
REMARK  7 active torsions:
REMARK  status: ('A' for Active; 'I' for Inactive)
REMARK    1  A    between atoms: C_1  and  O_2
REMARK    2  A    between atoms: O_2  and  C_3
REMARK    3  A    between atoms: C_6  and  C_7
REMARK    4  A    between atoms: N_9  and  C_10
REMARK    5  A    between atoms: C_14  and  N_15
REMARK    6  A    between atoms: C_19  and  O_20
REMARK    7  A    between atoms: O_20  and  C_21
REMARK                            x       y       z     vdW  Elec       q    Type
REMARK                         _______ _______ _______ _____ _____    ______ ____
ROOT
ATOM      1  C   UNL     1       8.023   6.196  18.665  0.00  0.00    +0.000 C 
ATOM      2  C   UNL     1       7.840   5.321  19.904  0.00  0.00    +0.000 C 
ATOM      3  O   UNL     1       6.468   4.898  20.006  0.00  0.00    +0.000 OA
ATOM      4  C   UNL     1       5.742   5.354  18.847  0.00  0.00    +0.000 C 
ATOM      5  C   UNL     1       5.087   4.166  18.126  0.00  0.00    +0.000 C 
ATOM      6  C   UNL     1       5.793   4.139  16.773  0.00  0.00    +0.000 C 
ATOM      7  O   UNL     1       7.024   4.858  16.924  0.00  0.00    +0.000 OA
ATOM      8  C   UNL     1       6.760   5.919  17.867  0.00  0.00    +0.000 C 
ENDROOT
BRANCH   5   9
ATOM      9  N   UNL     1       3.655   4.274  17.973  0.00  0.00    +0.000 N 
ATOM     10  N   UNL     1       3.001   3.413  17.166  0.00  0.00    +0.000 NA
ATOM     11  N   UNL     1       1.721   3.752  17.248  0.00  0.00    +0.000 NA
ATOM     12  N   UNL     1       1.543   4.810  18.104  0.00  0.00    +0.000 NA
ATOM     13  C   UNL     1       2.743   5.123  18.547  0.00  0.00    +0.000 A 
BRANCH  13  14
ATOM     14  O   UNL     1       3.023   6.044  19.464  0.00  0.00    +0.000 OA
BRANCH  14  15
ATOM     15  C   UNL     1       2.547   7.340  19.355  0.00  0.00    +0.000 A 
ATOM     16  C   UNL     1       2.724   7.964  18.098  0.00  0.00    +0.000 A 
ATOM     17  C   UNL     1       2.027   9.133  17.770  0.00  0.00    +0.000 A 
ATOM     18  C   UNL     1       1.130   9.606  18.700  0.00  0.00    +0.000 A 
ATOM     19  C   UNL     1       1.017   9.043  19.955  0.00  0.00    +0.000 A 
ATOM     20  C   UNL     1       1.745   7.936  20.335  0.00  0.00    +0.000 A 
ATOM     21  O   UNL     1      -0.004   9.604  20.668  0.00  0.00    +0.000 OA
ATOM     22  C   UNL     1      -0.712  10.230  19.580  0.00  0.00    +0.000 C 
ATOM     23  O   UNL     1       0.169  10.549  18.481  0.00  0.00    +0.000 OA
ENDBRANCH  14  15
ENDBRANCH  13  14
ENDBRANCH   5   9
BRANCH   1  26
ATOM     24  C   UNL     1       8.233   8.624  17.976  0.00  0.00    +0.000 C 
ATOM     25  O   UNL     1       7.816   8.418  16.843  0.00  0.00    +0.000 OA
ATOM     26  N   UNL     1       8.338   7.612  18.907  0.00  0.00    +0.000 N 
ATOM     27  H   UNL     1       8.651   7.827  19.851  0.00  0.00    +0.000 HD
BRANCH  24  31
ATOM     28  C   UNL     1       9.506  12.560  19.318  0.00  0.00    +0.000 A 
ATOM     29  C   UNL     1       9.767  11.414  20.061  0.00  0.00    +0.000 A 
ATOM     30  C   UNL     1       9.360  10.151  19.598  0.00  0.00    +0.000 A 
ATOM     31  C   UNL     1       8.671  10.011  18.386  0.00  0.00    +0.000 A 
ATOM     32  C   UNL     1       8.400  11.172  17.651  0.00  0.00    +0.000 A 
ATOM     33  C   UNL     1       8.817  12.436  18.110  0.00  0.00    +0.000 A 
BRANCH  28  35
ATOM     34  C   UNL     1       9.343  14.931  19.393  0.00  0.00    +0.000 C 
ATOM     35  O   UNL     1       9.930  13.730  19.886  0.00  0.00    +0.000 OA
ENDBRANCH  28  35
ENDBRANCH  24  31
ENDBRANCH   1  26
TORSDOF 6
ENDMDL
MODEL 2
REMARK VINA RESULT:      -9.7      0.695      1.201
REMARK  Name = 
REMARK  7 active torsions:
REMARK  status: ('A' for Active; 'I' for Inactive)
REMARK    1  A    between atoms: C_1  and  O_2
REMARK    2  A    between atoms: O_2  and  C_3
REMARK    3  A    between atoms: C_6  and  C_7
REMARK    4  A    between atoms: N_9  and  C_10
REMARK    5  A    between atoms: C_14  and  N_15
REMARK    6  A    between atoms: C_19  and  O_20
REMARK    7  A    between atoms: O_20  and  C_21
REMARK                            x       y       z     vdW  Elec       q    Type
REMARK                         _______ _______ _______ _____ _____    ______ ____
ROOT
ATOM      1  C   UNL     1       7.980   6.076  18.581  0.00  0.00    +0.000 C 
ATOM      2  C   UNL     1       7.821   5.164  19.797  0.00  0.00    +0.000 C 
ATOM      3  O   UNL     1       6.447   4.757  19.927  0.00  0.00    +0.000 OA
ATOM      4  C   UNL     1       5.694   5.261  18.805  0.00  0.00    +0.000 C 
ATOM      5  C   UNL     1       4.999   4.105  18.067  0.00  0.00    +0.000 C 
ATOM      6  C   UNL     1       5.665   4.111  16.694  0.00  0.00    +0.000 C 
ATOM      7  O   UNL     1       6.911   4.808  16.830  0.00  0.00    +0.000 OA
ATOM      8  C   UNL     1       6.690   5.842  17.813  0.00  0.00    +0.000 C 
ENDROOT
BRANCH   5   9
ATOM      9  N   UNL     1       3.565   4.238  17.961  0.00  0.00    +0.000 N 
ATOM     10  N   UNL     1       2.781   3.147  18.084  0.00  0.00    +0.000 NA
ATOM     11  N   UNL     1       1.537   3.589  17.958  0.00  0.00    +0.000 NA
ATOM     12  N   UNL     1       1.511   4.949  17.767  0.00  0.00    +0.000 NA
ATOM     13  C   UNL     1       2.768   5.338  17.772  0.00  0.00    +0.000 A 
BRANCH  13  14
ATOM     14  O   UNL     1       3.198   6.594  17.698  0.00  0.00    +0.000 OA
BRANCH  14  15
ATOM     15  C   UNL     1       2.617   7.601  18.452  0.00  0.00    +0.000 A 
ATOM     16  C   UNL     1       2.062   8.680  17.725  0.00  0.00    +0.000 A 
ATOM     17  C   UNL     1       1.192   9.589  18.339  0.00  0.00    +0.000 A 
ATOM     18  C   UNL     1       0.865   9.349  19.654  0.00  0.00    +0.000 A 
ATOM     19  C   UNL     1       1.469   8.344  20.383  0.00  0.00    +0.000 A 
ATOM     20  C   UNL     1       2.386   7.479  19.826  0.00  0.00    +0.000 A 
ATOM     21  O   UNL     1       0.916   8.222  21.626  0.00  0.00    +0.000 OA
ATOM     22  C   UNL     1      -0.306   8.951  21.394  0.00  0.00    +0.000 C 
ATOM     23  O   UNL     1      -0.153   9.934  20.348  0.00  0.00    +0.000 OA
ENDBRANCH  14  15
ENDBRANCH  13  14
ENDBRANCH   5   9
BRANCH   1  26
ATOM     24  C   UNL     1       8.136   8.533  17.990  0.00  0.00    +0.000 C 
ATOM     25  O   UNL     1       7.613   8.381  16.892  0.00  0.00    +0.000 OA
ATOM     26  N   UNL     1       8.324   7.479  18.858  0.00  0.00    +0.000 N 
ATOM     27  H   UNL     1       8.726   7.649  19.777  0.00  0.00    +0.000 HD
BRANCH  24  31
ATOM     28  C   UNL     1       9.509  12.517  19.065  0.00  0.00    +0.000 A 
ATOM     29  C   UNL     1       8.801  12.279  17.892  0.00  0.00    +0.000 A 
ATOM     30  C   UNL     1       8.353  10.986  17.575  0.00  0.00    +0.000 A 
ATOM     31  C   UNL     1       8.617   9.899  18.420  0.00  0.00    +0.000 A 
ATOM     32  C   UNL     1       9.343  10.146  19.593  0.00  0.00    +0.000 A 
ATOM     33  C   UNL     1       9.783  11.444  19.915  0.00  0.00    +0.000 A 
BRANCH  28  35
ATOM     34  C   UNL     1       9.155  14.818  18.581  0.00  0.00    +0.000 C 
ATOM     35  O   UNL     1       9.911  13.812  19.249  0.00  0.00    +0.000 OA
ENDBRANCH  28  35
ENDBRANCH  24  31
ENDBRANCH   1  26
TORSDOF 6
ENDMDL
MODEL 3
REMARK VINA RESULT:      -9.5      0.674      1.468
REMARK  Name = 
REMARK  7 active torsions:
REMARK  status: ('A' for Active; 'I' for Inactive)
REMARK    1  A    between atoms: C_1  and  O_2
REMARK    2  A    between atoms: O_2  and  C_3
REMARK    3  A    between atoms: C_6  and  C_7
REMARK    4  A    between atoms: N_9  and  C_10
REMARK    5  A    between atoms: C_14  and  N_15
REMARK    6  A    between atoms: C_19  and  O_20
REMARK    7  A    between atoms: O_20  and  C_21
REMARK                            x       y       z     vdW  Elec       q    Type
REMARK                         _______ _______ _______ _____ _____    ______ ____
ROOT
ATOM      1  C   UNL     1       8.210   6.289  18.664  0.00  0.00    +0.000 C 
ATOM      2  C   UNL     1       8.015   5.357  19.859  0.00  0.00    +0.000 C 
ATOM      3  O   UNL     1       6.646   4.917  19.918  0.00  0.00    +0.000 OA
ATOM      4  C   UNL     1       5.935   5.419  18.769  0.00  0.00    +0.000 C 
ATOM      5  C   UNL     1       5.302   4.259  17.985  0.00  0.00    +0.000 C 
ATOM      6  C   UNL     1       6.032   4.300  16.644  0.00  0.00    +0.000 C 
ATOM      7  O   UNL     1       7.253   5.022  16.848  0.00  0.00    +0.000 OA
ATOM      8  C   UNL     1       6.963   6.037  17.833  0.00  0.00    +0.000 C 
ENDROOT
BRANCH   5   9
ATOM      9  N   UNL     1       3.872   4.361  17.812  0.00  0.00    +0.000 N 
ATOM     10  N   UNL     1       3.188   3.333  17.269  0.00  0.00    +0.000 NA
ATOM     11  N   UNL     1       1.919   3.716  17.261  0.00  0.00    +0.000 NA
ATOM     12  N   UNL     1       1.777   4.971  17.801  0.00  0.00    +0.000 NA
ATOM     13  C   UNL     1       2.989   5.359  18.139  0.00  0.00    +0.000 A 
BRANCH  13  14
ATOM     14  O   UNL     1       3.302   6.485  18.773  0.00  0.00    +0.000 OA
BRANCH  14  15
ATOM     15  C   UNL     1       2.332   7.411  19.120  0.00  0.00    +0.000 A 
ATOM     16  C   UNL     1       1.843   7.332  20.445  0.00  0.00    +0.000 A 
ATOM     17  C   UNL     1       1.103   8.382  21.002  0.00  0.00    +0.000 A 
ATOM     18  C   UNL     1       0.928   9.503  20.225  0.00  0.00    +0.000 A 
ATOM     19  C   UNL     1       1.336   9.547  18.907  0.00  0.00    +0.000 A 
ATOM     20  C   UNL     1       2.001   8.500  18.306  0.00  0.00    +0.000 A 
ATOM     21  O   UNL     1       1.157  10.788  18.366  0.00  0.00    +0.000 OA
ATOM     22  C   UNL     1       1.003  11.539  19.587  0.00  0.00    +0.000 C 
ATOM     23  O   UNL     1       0.488  10.719  20.658  0.00  0.00    +0.000 OA
ENDBRANCH  14  15
ENDBRANCH  13  14
ENDBRANCH   5   9
BRANCH   1  26
ATOM     24  C   UNL     1       8.336   8.757  18.113  0.00  0.00    +0.000 C 
ATOM     25  O   UNL     1       7.869   8.609  16.990  0.00  0.00    +0.000 OA
ATOM     26  N   UNL     1       8.508   7.695  18.975  0.00  0.00    +0.000 N 
ATOM     27  H   UNL     1       8.862   7.861  19.914  0.00  0.00    +0.000 HD
BRANCH  24  31
ATOM     28  C   UNL     1       9.563  12.756  19.304  0.00  0.00    +0.000 A 
ATOM     29  C   UNL     1       8.900  12.520  18.105  0.00  0.00    +0.000 A 
ATOM     30  C   UNL     1       8.499  11.222  17.750  0.00  0.00    +0.000 A 
ATOM     31  C   UNL     1       8.765  10.127  18.583  0.00  0.00    +0.000 A 
ATOM     32  C   UNL     1       9.445  10.372  19.783  0.00  0.00    +0.000 A 
ATOM     33  C   UNL     1       9.838  11.675  20.143  0.00  0.00    +0.000 A 
BRANCH  28  35
ATOM     34  C   UNL     1      10.221  14.421  20.869  0.00  0.00    +0.000 C 
ATOM     35  O   UNL     1       9.922  14.057  19.524  0.00  0.00    +0.000 OA
ENDBRANCH  28  35
ENDBRANCH  24  31
ENDBRANCH   1  26
TORSDOF 6
ENDMDL
MODEL 4
REMARK VINA RESULT:      -9.0      1.668      1.909
REMARK  Name = 
REMARK  7 active torsions:
REMARK  status: ('A' for Active; 'I' for Inactive)
REMARK    1  A    between atoms: C_1  and  O_2
REMARK    2  A    between atoms: O_2  and  C_3
REMARK    3  A    between atoms: C_6  and  C_7
REMARK    4  A    between atoms: N_9  and  C_10
REMARK    5  A    between atoms: C_14  and  N_15
REMARK    6  A    between atoms: C_19  and  O_20
REMARK    7  A    between atoms: O_20  and  C_21
REMARK                            x       y       z     vdW  Elec       q    Type
REMARK                         _______ _______ _______ _____ _____    ______ ____
ROOT
ATOM      1  C   UNL     1       6.779   5.970  16.696  0.00  0.00    +0.000 C 
ATOM      2  C   UNL     1       7.655   4.819  17.189  0.00  0.00    +0.000 C 
ATOM      3  O   UNL     1       6.991   4.124  18.260  0.00  0.00    +0.000 OA
ATOM      4  C   UNL     1       5.674   4.680  18.444  0.00  0.00    +0.000 C 
ATOM      5  C   UNL     1       4.608   3.580  18.312  0.00  0.00    +0.000 C 
ATOM      6  C   UNL     1       3.820   3.998  17.073  0.00  0.00    +0.000 C 
ATOM      7  O   UNL     1       4.654   4.892  16.322  0.00  0.00    +0.000 OA
ATOM      8  C   UNL     1       5.420   5.639  17.291  0.00  0.00    +0.000 C 
ENDROOT
BRANCH   5   9
ATOM      9  N   UNL     1       3.748   3.438  19.463  0.00  0.00    +0.000 N 
ATOM     10  N   UNL     1       4.112   2.623  20.475  0.00  0.00    +0.000 NA
ATOM     11  N   UNL     1       3.142   2.719  21.373  0.00  0.00    +0.000 NA
ATOM     12  N   UNL     1       2.165   3.590  20.958  0.00  0.00    +0.000 NA
ATOM     13  C   UNL     1       2.551   4.029  19.778  0.00  0.00    +0.000 A 
BRANCH  13  14
ATOM     14  O   UNL     1       1.937   4.957  19.050  0.00  0.00    +0.000 OA
BRANCH  14  15
ATOM     15  C   UNL     1       2.028   6.302  19.369  0.00  0.00    +0.000 A 
ATOM     16  C   UNL     1       2.232   7.187  18.285  0.00  0.00    +0.000 A 
ATOM     17  C   UNL     1       2.036   8.565  18.434  0.00  0.00    +0.000 A 
ATOM     18  C   UNL     1       1.587   9.002  19.659  0.00  0.00    +0.000 A 
ATOM     19  C   UNL     1       1.467   8.150  20.737  0.00  0.00    +0.000 A 
ATOM     20  C   UNL     1       1.724   6.799  20.642  0.00  0.00    +0.000 A 
ATOM     21  O   UNL     1       0.906   8.776  21.814  0.00  0.00    +0.000 OA
ATOM     22  C   UNL     1       0.347   9.918  21.135  0.00  0.00    +0.000 C 
ATOM     23  O   UNL     1       1.080  10.239  19.933  0.00  0.00    +0.000 OA
ENDBRANCH  14  15
ENDBRANCH  13  14
ENDBRANCH   5   9
BRANCH   1  26
ATOM     24  C   UNL     1       7.975   7.727  18.072  0.00  0.00    +0.000 C 
ATOM     25  O   UNL     1       8.267   6.939  18.964  0.00  0.00    +0.000 OA
ATOM     26  N   UNL     1       7.283   7.328  16.948  0.00  0.00    +0.000 N 
ATOM     27  H   UNL     1       7.092   8.001  16.210  0.00  0.00    +0.000 HD
BRANCH  24  31
ATOM     28  C   UNL     1       9.117  11.893  18.575  0.00  0.00    +0.000 A 
ATOM     29  C   UNL     1       9.648  10.887  19.375  0.00  0.00    +0.000 A 
ATOM     30  C   UNL     1       9.276   9.546  19.182  0.00  0.00    +0.000 A 
ATOM     31  C   UNL     1       8.353   9.184  18.191  0.00  0.00    +0.000 A 
ATOM     32  C   UNL     1       7.814  10.206  17.398  0.00  0.00    +0.000 A 
ATOM     33  C   UNL     1       8.194  11.549  17.585  0.00  0.00    +0.000 A 
BRANCH  28  35
ATOM     34  C   UNL     1      10.637  13.665  18.124  0.00  0.00    +0.000 C 
ATOM     35  O   UNL     1       9.538  13.159  18.876  0.00  0.00    +0.000 OA
ENDBRANCH  28  35
ENDBRANCH  24  31
ENDBRANCH   1  26
TORSDOF 6
ENDMDL
MODEL 5
REMARK VINA RESULT:      -9.0      1.051      1.358
REMARK  Name = 
REMARK  7 active torsions:
REMARK  status: ('A' for Active; 'I' for Inactive)
REMARK    1  A    between atoms: C_1  and  O_2
REMARK    2  A    between atoms: O_2  and  C_3
REMARK    3  A    between atoms: C_6  and  C_7
REMARK    4  A    between atoms: N_9  and  C_10
REMARK    5  A    between atoms: C_14  and  N_15
REMARK    6  A    between atoms: C_19  and  O_20
REMARK    7  A    between atoms: O_20  and  C_21
REMARK                            x       y       z     vdW  Elec       q    Type
REMARK                         _______ _______ _______ _____ _____    ______ ____
ROOT
ATOM      1  C   UNL     1       7.424   6.269  17.790  0.00  0.00    +0.000 C 
ATOM      2  C   UNL     1       7.809   4.959  18.476  0.00  0.00    +0.000 C 
ATOM      3  O   UNL     1       6.655   4.384  19.115  0.00  0.00    +0.000 OA
ATOM      4  C   UNL     1       5.494   5.182  18.807  0.00  0.00    +0.000 C 
ATOM      5  C   UNL     1       4.410   4.314  18.149  0.00  0.00    +0.000 C 
ATOM      6  C   UNL     1       4.289   4.904  16.746  0.00  0.00    +0.000 C 
ATOM      7  O   UNL     1       5.495   5.633  16.487  0.00  0.00    +0.000 OA
ATOM      8  C   UNL     1       5.907   6.196  17.752  0.00  0.00    +0.000 C 
ENDROOT
BRANCH   5   9
ATOM      9  N   UNL     1       3.140   4.318  18.836  0.00  0.00    +0.000 N 
ATOM     10  N   UNL     1       2.351   3.224  18.792  0.00  0.00    +0.000 NA
ATOM     11  N   UNL     1       1.284   3.526  19.519  0.00  0.00    +0.000 NA
ATOM     12  N   UNL     1       1.381   4.794  20.038  0.00  0.00    +0.000 NA
ATOM     13  C   UNL     1       2.531   5.273  19.611  0.00  0.00    +0.000 A 
BRANCH  13  14
ATOM     14  O   UNL     1       3.062   6.445  19.943  0.00  0.00    +0.000 OA
BRANCH  14  15
ATOM     15  C   UNL     1       2.460   7.639  19.581  0.00  0.00    +0.000 A 
ATOM     16  C   UNL     1       2.544   7.989  18.214  0.00  0.00    +0.000 A 
ATOM     17  C   UNL     1       1.729   8.993  17.676  0.00  0.00    +0.000 A 
ATOM     18  C   UNL     1       0.814   9.573  18.524  0.00  0.00    +0.000 A 
ATOM     19  C   UNL     1       0.788   9.288  19.874  0.00  0.00    +0.000 A 
ATOM     20  C   UNL     1       1.629   8.359  20.447  0.00  0.00    +0.000 A 
ATOM     21  O   UNL     1      -0.264   9.897  20.496  0.00  0.00    +0.000 OA
ATOM     22  C   UNL     1      -1.057  10.207  19.333  0.00  0.00    +0.000 C 
ATOM     23  O   UNL     1      -0.239  10.357  18.152  0.00  0.00    +0.000 OA
ENDBRANCH  14  15
ENDBRANCH  13  14
ENDBRANCH   5   9
BRANCH   1  26
ATOM     24  C   UNL     1       7.903   8.755  17.803  0.00  0.00    +0.000 C 
ATOM     25  O   UNL     1       7.272   8.960  16.772  0.00  0.00    +0.000 OA
ATOM     26  N   UNL     1       7.999   7.497  18.358  0.00  0.00    +0.000 N 
ATOM     27  H   UNL     1       8.498   7.371  19.236  0.00  0.00    +0.000 HD
BRANCH  24  31
ATOM     28  C   UNL     1      10.005  12.092  19.636  0.00  0.00    +0.000 A 
ATOM     29  C   UNL     1       9.507  12.164  18.339  0.00  0.00    +0.000 A 
ATOM     30  C   UNL     1       8.817  11.079  17.775  0.00  0.00    +0.000 A 
ATOM     31  C   UNL     1       8.621   9.891  18.493  0.00  0.00    +0.000 A 
ATOM     32  C   UNL     1       9.137   9.823  19.794  0.00  0.00    +0.000 A 
ATOM     33  C   UNL     1       9.820  10.914  20.363  0.00  0.00    +0.000 A 
BRANCH  28  35
ATOM     34  C   UNL     1      11.899  13.509  19.394  0.00  0.00    +0.000 C 
ATOM     35  O   UNL     1      10.679  13.204  20.063  0.00  0.00    +0.000 OA
ENDBRANCH  28  35
ENDBRANCH  24  31
ENDBRANCH   1  26
TORSDOF 6
ENDMDL
MODEL 6
REMARK VINA RESULT:      -8.9      2.755      8.433
REMARK  Name = 
REMARK  7 active torsions:
REMARK  status: ('A' for Active; 'I' for Inactive)
REMARK    1  A    between atoms: C_1  and  O_2
REMARK    2  A    between atoms: O_2  and  C_3
REMARK    3  A    between atoms: C_6  and  C_7
REMARK    4  A    between atoms: N_9  and  C_10
REMARK    5  A    between atoms: C_14  and  N_15
REMARK    6  A    between atoms: C_19  and  O_20
REMARK    7  A    between atoms: O_20  and  C_21
REMARK                            x       y       z     vdW  Elec       q    Type
REMARK                         _______ _______ _______ _____ _____    ______ ____
ROOT
ATOM      1  C   UNL     1       1.333   9.174  18.926  0.00  0.00    +0.000 C 
ATOM      2  C   UNL     1       1.545   8.742  20.376  0.00  0.00    +0.000 C 
ATOM      3  O   UNL     1       1.763   7.321  20.435  0.00  0.00    +0.000 OA
ATOM      4  C   UNL     1       1.812   6.790  19.096  0.00  0.00    +0.000 C 
ATOM      5  C   UNL     1       3.138   6.048  18.864  0.00  0.00    +0.000 C 
ATOM      6  C   UNL     1       3.824   6.879  17.782  0.00  0.00    +0.000 C 
ATOM      7  O   UNL     1       3.218   8.178  17.797  0.00  0.00    +0.000 OA
ATOM      8  C   UNL     1       1.830   7.973  18.139  0.00  0.00    +0.000 C 
ENDROOT
BRANCH   5   9
ATOM      9  N   UNL     1       2.991   4.670  18.459  0.00  0.00    +0.000 N 
ATOM     10  N   UNL     1       1.866   4.273  17.828  0.00  0.00    +0.000 NA
ATOM     11  N   UNL     1       2.036   2.983  17.576  0.00  0.00    +0.000 NA
ATOM     12  N   UNL     1       3.259   2.547  18.026  0.00  0.00    +0.000 NA
ATOM     13  C   UNL     1       3.839   3.597  18.568  0.00  0.00    +0.000 A 
BRANCH  13  14
ATOM     14  O   UNL     1       5.075   3.643  19.058  0.00  0.00    +0.000 OA
BRANCH  14  15
ATOM     15  C   UNL     1       6.066   4.393  18.446  0.00  0.00    +0.000 A 
ATOM     16  C   UNL     1       6.093   4.353  17.033  0.00  0.00    +0.000 A 
ATOM     17  C   UNL     1       6.834   5.289  16.300  0.00  0.00    +0.000 A 
ATOM     18  C   UNL     1       7.479   6.271  17.016  0.00  0.00    +0.000 A 
ATOM     19  C   UNL     1       7.518   6.261  18.396  0.00  0.00    +0.000 A 
ATOM     20  C   UNL     1       6.860   5.309  19.144  0.00  0.00    +0.000 A 
ATOM     21  O   UNL     1       8.119   7.382  18.891  0.00  0.00    +0.000 OA
ATOM     22  C   UNL     1       8.047   8.208  17.711  0.00  0.00    +0.000 C 
ATOM     23  O   UNL     1       8.017   7.416  16.504  0.00  0.00    +0.000 OA
ENDBRANCH  14  15
ENDBRANCH  13  14
ENDBRANCH   5   9
BRANCH   1  26
ATOM     24  C   UNL     1      -0.444  10.965  18.710  0.00  0.00    +0.000 C 
ATOM     25  O   UNL     1       0.298  11.857  19.103  0.00  0.00    +0.000 OA
ATOM     26  N   UNL     1      -0.011   9.663  18.581  0.00  0.00    +0.000 N 
ATOM     27  H   UNL     1      -0.644   8.956  18.214  0.00  0.00    +0.000 HD
BRANCH  24  31
ATOM     28  C   UNL     1      -4.625  11.855  17.905  0.00  0.00    +0.000 A 
ATOM     29  C   UNL     1      -4.016  12.217  19.103  0.00  0.00    +0.000 A 
ATOM     30  C   UNL     1      -2.660  11.933  19.333  0.00  0.00    +0.000 A 
ATOM     31  C   UNL     1      -1.885  11.269  18.372  0.00  0.00    +0.000 A 
ATOM     32  C   UNL     1      -2.509  10.897  17.174  0.00  0.00    +0.000 A 
ATOM     33  C   UNL     1      -3.866  11.190  16.941  0.00  0.00    +0.000 A 
BRANCH  28  35
ATOM     34  C   UNL     1      -6.873  11.197  18.311  0.00  0.00    +0.000 C 
ATOM     35  O   UNL     1      -5.954  12.164  17.812  0.00  0.00    +0.000 OA
ENDBRANCH  28  35
ENDBRANCH  24  31
ENDBRANCH   1  26
TORSDOF 6
ENDMDL
MODEL 7
REMARK VINA RESULT:      -8.9      1.084      1.414
REMARK  Name = 
REMARK  7 active torsions:
REMARK  status: ('A' for Active; 'I' for Inactive)
REMARK    1  A    between atoms: C_1  and  O_2
REMARK    2  A    between atoms: O_2  and  C_3
REMARK    3  A    between atoms: C_6  and  C_7
REMARK    4  A    between atoms: N_9  and  C_10
REMARK    5  A    between atoms: C_14  and  N_15
REMARK    6  A    between atoms: C_19  and  O_20
REMARK    7  A    between atoms: O_20  and  C_21
REMARK                            x       y       z     vdW  Elec       q    Type
REMARK                         _______ _______ _______ _____ _____    ______ ____
ROOT
ATOM      1  C   UNL     1       7.287   6.217  16.852  0.00  0.00    +0.000 C 
ATOM      2  C   UNL     1       7.664   5.213  17.940  0.00  0.00    +0.000 C 
ATOM      3  O   UNL     1       6.474   4.682  18.549  0.00  0.00    +0.000 OA
ATOM      4  C   UNL     1       5.317   5.196  17.861  0.00  0.00    +0.000 C 
ATOM      5  C   UNL     1       4.448   4.040  17.340  0.00  0.00    +0.000 C 
ATOM      6  C   UNL     1       4.521   4.199  15.823  0.00  0.00    +0.000 C 
ATOM      7  O   UNL     1       5.682   4.988  15.535  0.00  0.00    +0.000 OA
ATOM      8  C   UNL     1       5.813   5.928  16.623  0.00  0.00    +0.000 C 
ENDROOT
BRANCH   5   9
ATOM      9  N   UNL     1       3.083   4.057  17.809  0.00  0.00    +0.000 N 
ATOM     10  N   UNL     1       2.211   3.127  17.368  0.00  0.00    +0.000 NA
ATOM     11  N   UNL     1       1.066   3.393  17.983  0.00  0.00    +0.000 NA
ATOM     12  N   UNL     1       1.194   4.474  18.820  0.00  0.00    +0.000 NA
ATOM     13  C   UNL     1       2.442   4.875  18.706  0.00  0.00    +0.000 A 
BRANCH  13  14
ATOM     14  O   UNL     1       3.019   5.848  19.405  0.00  0.00    +0.000 OA
BRANCH  14  15
ATOM     15  C   UNL     1       2.582   7.159  19.312  0.00  0.00    +0.000 A 
ATOM     16  C   UNL     1       2.665   7.754  18.032  0.00  0.00    +0.000 A 
ATOM     17  C   UNL     1       1.984   8.943  17.745  0.00  0.00    +0.000 A 
ATOM     18  C   UNL     1       1.194   9.466  18.743  0.00  0.00    +0.000 A 
ATOM     19  C   UNL     1       1.177   8.930  20.015  0.00  0.00    +0.000 A 
ATOM     20  C   UNL     1       1.896   7.802  20.349  0.00  0.00    +0.000 A 
ATOM     21  O   UNL     1       0.247   9.541  20.806  0.00  0.00    +0.000 OA
ATOM     22  C   UNL     1      -0.535  10.175  19.774  0.00  0.00    +0.000 C 
ATOM     23  O   UNL     1       0.252  10.441  18.593  0.00  0.00    +0.000 OA
ENDBRANCH  14  15
ENDBRANCH  13  14
ENDBRANCH   5   9
BRANCH   1  26
ATOM     24  C   UNL     1       8.276   8.090  18.239  0.00  0.00    +0.000 C 
ATOM     25  O   UNL     1       8.646   7.337  19.132  0.00  0.00    +0.000 OA
ATOM     26  N   UNL     1       7.639   7.621  17.110  0.00  0.00    +0.000 N 
ATOM     27  H   UNL     1       7.382   8.271  16.370  0.00  0.00    +0.000 HD
BRANCH  24  31
ATOM     28  C   UNL     1       8.849  12.398  18.429  0.00  0.00    +0.000 A 
ATOM     29  C   UNL     1       8.013  11.811  17.484  0.00  0.00    +0.000 A 
ATOM     30  C   UNL     1       7.832  10.418  17.454  0.00  0.00    +0.000 A 
ATOM     31  C   UNL     1       8.494   9.580  18.362  0.00  0.00    +0.000 A 
ATOM     32  C   UNL     1       9.343  10.179  19.301  0.00  0.00    +0.000 A 
ATOM     33  C   UNL     1       9.517  11.575  19.338  0.00  0.00    +0.000 A 
BRANCH  28  35
ATOM     34  C   UNL     1       7.771  14.514  18.543  0.00  0.00    +0.000 C 
ATOM     35  O   UNL     1       8.961  13.758  18.341  0.00  0.00    +0.000 OA
ENDBRANCH  28  35
ENDBRANCH  24  31
ENDBRANCH   1  26
TORSDOF 6
ENDMDL
MODEL 8
REMARK VINA RESULT:      -8.8      1.564      1.967
REMARK  Name = 
REMARK  7 active torsions:
REMARK  status: ('A' for Active; 'I' for Inactive)
REMARK    1  A    between atoms: C_1  and  O_2
REMARK    2  A    between atoms: O_2  and  C_3
REMARK    3  A    between atoms: C_6  and  C_7
REMARK    4  A    between atoms: N_9  and  C_10
REMARK    5  A    between atoms: C_14  and  N_15
REMARK    6  A    between atoms: C_19  and  O_20
REMARK    7  A    between atoms: O_20  and  C_21
REMARK                            x       y       z     vdW  Elec       q    Type
REMARK                         _______ _______ _______ _____ _____    ______ ____
ROOT
ATOM      1  C   UNL     1       7.521   6.549  17.993  0.00  0.00    +0.000 C 
ATOM      2  C   UNL     1       7.913   5.188  18.566  0.00  0.00    +0.000 C 
ATOM      3  O   UNL     1       6.818   4.644  19.325  0.00  0.00    +0.000 OA
ATOM      4  C   UNL     1       5.677   5.517  19.208  0.00  0.00    +0.000 C 
ATOM      5  C   UNL     1       4.467   4.744  18.662  0.00  0.00    +0.000 C 
ATOM      6  C   UNL     1       4.202   5.409  17.313  0.00  0.00    +0.000 C 
ATOM      7  O   UNL     1       5.406   6.085  16.930  0.00  0.00    +0.000 OA
ATOM      8  C   UNL     1       6.010   6.561  18.152  0.00  0.00    +0.000 C 
ENDROOT
BRANCH   5   9
ATOM      9  N   UNL     1       3.299   4.781  19.509  0.00  0.00    +0.000 N 
ATOM     10  N   UNL     1       3.048   3.756  20.350  0.00  0.00    +0.000 NA
ATOM     11  N   UNL     1       1.937   4.087  20.992  0.00  0.00    +0.000 NA
ATOM     12  N   UNL     1       1.476   5.315  20.584  0.00  0.00    +0.000 NA
ATOM     13  C   UNL     1       2.325   5.734  19.670  0.00  0.00    +0.000 A 
BRANCH  13  14
ATOM     14  O   UNL     1       2.304   6.918  19.066  0.00  0.00    +0.000 OA
BRANCH  14  15
ATOM     15  C   UNL     1       1.910   8.064  19.738  0.00  0.00    +0.000 A 
ATOM     16  C   UNL     1       1.456   9.133  18.932  0.00  0.00    +0.000 A 
ATOM     17  C   UNL     1       0.755  10.209  19.491  0.00  0.00    +0.000 A 
ATOM     18  C   UNL     1       0.486  10.145  20.839  0.00  0.00    +0.000 A 
ATOM     19  C   UNL     1       0.998   9.142  21.637  0.00  0.00    +0.000 A 
ATOM     20  C   UNL     1       1.755   8.109  21.128  0.00  0.00    +0.000 A 
ATOM     21  O   UNL     1       0.516   9.219  22.913  0.00  0.00    +0.000 OA
ATOM     22  C   UNL     1      -0.612  10.083  22.669  0.00  0.00    +0.000 C 
ATOM     23  O   UNL     1      -0.399  10.930  21.519  0.00  0.00    +0.000 OA
ENDBRANCH  14  15
ENDBRANCH  13  14
ENDBRANCH   5   9
BRANCH   1  26
ATOM     24  C   UNL     1       8.153   9.001  18.044  0.00  0.00    +0.000 C 
ATOM     25  O   UNL     1       7.416   9.289  17.108  0.00  0.00    +0.000 OA
ATOM     26  N   UNL     1       8.238   7.715  18.533  0.00  0.00    +0.000 N 
ATOM     27  H   UNL     1       8.831   7.520  19.336  0.00  0.00    +0.000 HD
BRANCH  24  31
ATOM     28  C   UNL     1      10.745  12.052  19.743  0.00  0.00    +0.000 A 
ATOM     29  C   UNL     1      10.673  11.833  18.371  0.00  0.00    +0.000 A 
ATOM     30  C   UNL     1       9.816  10.853  17.845  0.00  0.00    +0.000 A 
ATOM     31  C   UNL     1       9.020  10.060  18.683  0.00  0.00    +0.000 A 
ATOM     32  C   UNL     1       9.109  10.278  20.064  0.00  0.00    +0.000 A 
ATOM     33  C   UNL     1       9.961  11.267  20.591  0.00  0.00    +0.000 A 
BRANCH  28  35
ATOM     34  C   UNL     1      11.693  14.194  19.334  0.00  0.00    +0.000 C 
ATOM     35  O   UNL     1      11.634  13.016  20.133  0.00  0.00    +0.000 OA
ENDBRANCH  28  35
ENDBRANCH  24  31
ENDBRANCH   1  26
TORSDOF 6
ENDMDL
MODEL 9
REMARK VINA RESULT:      -8.8      1.280      1.888
REMARK  Name = 
REMARK  7 active torsions:
REMARK  status: ('A' for Active; 'I' for Inactive)
REMARK    1  A    between atoms: C_1  and  O_2
REMARK    2  A    between atoms: O_2  and  C_3
REMARK    3  A    between atoms: C_6  and  C_7
REMARK    4  A    between atoms: N_9  and  C_10
REMARK    5  A    between atoms: C_14  and  N_15
REMARK    6  A    between atoms: C_19  and  O_20
REMARK    7  A    between atoms: O_20  and  C_21
REMARK                            x       y       z     vdW  Elec       q    Type
REMARK                         _______ _______ _______ _____ _____    ______ ____
ROOT
ATOM      1  C   UNL     1       7.507   6.424  17.956  0.00  0.00    +0.000 C 
ATOM      2  C   UNL     1       7.942   5.131  18.644  0.00  0.00    +0.000 C 
ATOM      3  O   UNL     1       6.829   4.557  19.353  0.00  0.00    +0.000 OA
ATOM      4  C   UNL     1       5.646   5.338  19.094  0.00  0.00    +0.000 C 
ATOM      5  C   UNL     1       4.537   4.448  18.510  0.00  0.00    +0.000 C 
ATOM      6  C   UNL     1       4.335   5.011  17.106  0.00  0.00    +0.000 C 
ATOM      7  O   UNL     1       5.519   5.747  16.770  0.00  0.00    +0.000 OA
ATOM      8  C   UNL     1       5.991   6.337  18.000  0.00  0.00    +0.000 C 
ENDROOT
BRANCH   5   9
ATOM      9  N   UNL     1       3.305   4.453  19.264  0.00  0.00    +0.000 N 
ATOM     10  N   UNL     1       2.704   3.285  19.572  0.00  0.00    +0.000 NA
ATOM     11  N   UNL     1       1.625   3.614  20.269  0.00  0.00    +0.000 NA
ATOM     12  N   UNL     1       1.531   4.975  20.423  0.00  0.00    +0.000 NA
ATOM     13  C   UNL     1       2.574   5.483  19.800  0.00  0.00    +0.000 A 
BRANCH  13  14
ATOM     14  O   UNL     1       2.918   6.766  19.768  0.00  0.00    +0.000 OA
BRANCH  14  15
ATOM     15  C   UNL     1       1.966   7.771  19.829  0.00  0.00    +0.000 A 
ATOM     16  C   UNL     1       1.405   8.019  21.103  0.00  0.00    +0.000 A 
ATOM     17  C   UNL     1       0.675   9.187  21.353  0.00  0.00    +0.000 A 
ATOM     18  C   UNL     1       0.582  10.097  20.324  0.00  0.00    +0.000 A 
ATOM     19  C   UNL     1       1.060   9.818  19.060  0.00  0.00    +0.000 A 
ATOM     20  C   UNL     1       1.718   8.643  18.763  0.00  0.00    +0.000 A 
ATOM     21  O   UNL     1       0.956  10.899  18.232  0.00  0.00    +0.000 OA
ATOM     22  C   UNL     1       0.765  11.921  19.231  0.00  0.00    +0.000 C 
ATOM     23  O   UNL     1       0.164  11.391  20.432  0.00  0.00    +0.000 OA
ENDBRANCH  14  15
ENDBRANCH  13  14
ENDBRANCH   5   9
BRANCH   1  26
ATOM     24  C   UNL     1       7.955   8.916  17.902  0.00  0.00    +0.000 C 
ATOM     25  O   UNL     1       7.263   9.097  16.907  0.00  0.00    +0.000 OA
ATOM     26  N   UNL     1       8.100   7.668  18.470  0.00  0.00    +0.000 N 
ATOM     27  H   UNL     1       8.650   7.562  19.320  0.00  0.00    +0.000 HD
BRANCH  24  31
ATOM     28  C   UNL     1      10.114  12.308  19.559  0.00  0.00    +0.000 A 
ATOM     29  C   UNL     1       9.511  12.365  18.307  0.00  0.00    +0.000 A 
ATOM     30  C   UNL     1       8.805  11.261  17.801  0.00  0.00    +0.000 A 
ATOM     31  C   UNL     1       8.698  10.071  18.532  0.00  0.00    +0.000 A 
ATOM     32  C   UNL     1       9.320  10.018  19.786  0.00  0.00    +0.000 A 
ATOM     33  C   UNL     1      10.020  11.128  20.298  0.00  0.00    +0.000 A 
BRANCH  28  35
ATOM     34  C   UNL     1      11.922  13.795  19.139  0.00  0.00    +0.000 C 
ATOM     35  O   UNL     1      10.792  13.437  19.930  0.00  0.00    +0.000 OA
ENDBRANCH  28  35
ENDBRANCH  24  31
ENDBRANCH   1  26
TORSDOF 6
ENDMDL
