MODEL 1
REMARK VINA RESULT:      -6.3      0.000      0.000
REMARK  Name = 
REMARK  19 active torsions:
REMARK  status: ('A' for Active; 'I' for Inactive)
REMARK    1  A    between atoms: C_1  and  C_2
REMARK    2  A    between atoms: C_3  and  C_4
REMARK    3  A    between atoms: C_5  and  C_6
REMARK    4  A    between atoms: C_7  and  C_8
REMARK    5  A    between atoms: C_8  and  N_9
REMARK    6  A    between atoms: N_9  and  C_10
REMARK    7  A    between atoms: N_9  and  C_11
REMARK    8  A    between atoms: N_9  and  C_12
REMARK    9  A    between atoms: C_12  and  C_13
REMARK   10  A    between atoms: C_13  and  C_14
REMARK   11  A    between atoms: C_14  and  C_15
REMARK   12  A    between atoms: C_15  and  C_16
REMARK   13  A    between atoms: C_16  and  C_17
REMARK   14  A    between atoms: C_17  and  C_18
REMARK   15  A    between atoms: C_18  and  C_19
REMARK   16  A    between atoms: C_19  and  C_20
REMARK   17  A    between atoms: C_20  and  C_21
REMARK   18  A    between atoms: C_21  and  C_22
REMARK   19  A    between atoms: C_22  and  C_23
REMARK                            x       y       z     vdW  Elec       q    Type
REMARK                         _______ _______ _______ _____ _____    ______ ____
ROOT
ATOM      1  C   UNL     1       5.493   5.599  18.407  0.00  0.00    +0.000 C 
ENDROOT
BRANCH   1   2
ATOM      2  N   UNL     1       7.016   5.747  18.163  0.00  0.00    +0.000 N 
ATOM      3  C   UNL     1       7.566   4.502  17.466  0.00  0.00    +0.000 C 
ATOM      4  C   UNL     1       7.743   5.965  19.487  0.00  0.00    +0.000 C 
BRANCH   2   5
ATOM      5  C   UNL     1       7.212   6.979  17.238  0.00  0.00    +0.000 C 
BRANCH   5   7
ATOM      6  C   UNL     1       7.924   9.350  17.780  0.00  0.00    +0.000 C 
ATOM      7  C   UNL     1       8.154   8.027  17.754  0.00  0.00    +0.000 C 
BRANCH   6   9
ATOM      8  C   UNL     1       9.238  10.417  19.558  0.00  0.00    +0.000 C 
ATOM      9  C   UNL     1       8.921  10.283  18.262  0.00  0.00    +0.000 C 
BRANCH   8  12
ATOM     10  C   UNL     1      12.332  12.666  19.790  0.00  0.00    +0.000 C 
ATOM     11  C   UNL     1      11.319  11.678  19.313  0.00  0.00    +0.000 C 
ATOM     12  C   UNL     1      10.221  11.370  20.017  0.00  0.00    +0.000 C 
ENDBRANCH   8  12
ENDBRANCH   6   9
ENDBRANCH   5   7
ENDBRANCH   2   5
ENDBRANCH   1   2
BRANCH   1  13
ATOM     13  C   UNL     1       5.080   4.149  18.610  0.00  0.00    +0.000 C 
BRANCH  13  14
ATOM     14  C   UNL     1       4.223   3.630  17.464  0.00  0.00    +0.000 C 
BRANCH  14  15
ATOM     15  C   UNL     1       2.977   4.502  17.362  0.00  0.00    +0.000 C 
BRANCH  15  16
ATOM     16  C   UNL     1       1.727   3.725  17.730  0.00  0.00    +0.000 C 
BRANCH  16  17
ATOM     17  C   UNL     1       2.071   2.258  17.951  0.00  0.00    +0.000 C 
BRANCH  17  18
ATOM     18  C   UNL     1       1.661   1.829  19.351  0.00  0.00    +0.000 C 
BRANCH  18  19
ATOM     19  C   UNL     1       1.061   2.998  20.120  0.00  0.00    +0.000 C 
BRANCH  19  20
ATOM     20  C   UNL     1       1.906   3.308  21.350  0.00  0.00    +0.000 C 
BRANCH  20  21
ATOM     21  C   UNL     1       2.464   4.724  21.280  0.00  0.00    +0.000 C 
BRANCH  21  22
ATOM     22  C   UNL     1       1.503   5.651  20.543  0.00  0.00    +0.000 C 
ATOM     23  C   UNL     1       2.201   6.928  20.112  0.00  0.00    +0.000 C 
ENDBRANCH  21  22
ENDBRANCH  20  21
ENDBRANCH  19  20
ENDBRANCH  18  19
ENDBRANCH  17  18
ENDBRANCH  16  17
ENDBRANCH  15  16
ENDBRANCH  14  15
ENDBRANCH  13  14
ENDBRANCH   1  13
TORSDOF 15
ENDMDL
MODEL 2
REMARK VINA RESULT:      -5.9      3.312      9.964
REMARK  Name = 
REMARK  19 active torsions:
REMARK  status: ('A' for Active; 'I' for Inactive)
REMARK    1  A    between atoms: C_1  and  C_2
REMARK    2  A    between atoms: C_3  and  C_4
REMARK    3  A    between atoms: C_5  and  C_6
REMARK    4  A    between atoms: C_7  and  C_8
REMARK    5  A    between atoms: C_8  and  N_9
REMARK    6  A    between atoms: N_9  and  C_10
REMARK    7  A    between atoms: N_9  and  C_11
REMARK    8  A    between atoms: N_9  and  C_12
REMARK    9  A    between atoms: C_12  and  C_13
REMARK   10  A    between atoms: C_13  and  C_14
REMARK   11  A    between atoms: C_14  and  C_15
REMARK   12  A    between atoms: C_15  and  C_16
REMARK   13  A    between atoms: C_16  and  C_17
REMARK   14  A    between atoms: C_17  and  C_18
REMARK   15  A    between atoms: C_18  and  C_19
REMARK   16  A    between atoms: C_19  and  C_20
REMARK   17  A    between atoms: C_20  and  C_21
REMARK   18  A    between atoms: C_21  and  C_22
REMARK   19  A    between atoms: C_22  and  C_23
REMARK                            x       y       z     vdW  Elec       q    Type
REMARK                         _______ _______ _______ _____ _____    ______ ____
ROOT
ATOM      1  C   UNL     1       7.576   7.147  17.438  0.00  0.00    +0.000 C 
ENDROOT
BRANCH   1   2
ATOM      2  N   UNL     1       7.017   5.866  18.107  0.00  0.00    +0.000 N 
ATOM      3  C   UNL     1       5.488   5.883  18.094  0.00  0.00    +0.000 C 
ATOM      4  C   UNL     1       7.524   5.758  19.543  0.00  0.00    +0.000 C 
BRANCH   2   5
ATOM      5  C   UNL     1       7.523   4.658  17.271  0.00  0.00    +0.000 C 
BRANCH   5   7
ATOM      6  C   UNL     1       6.934   4.530  14.810  0.00  0.00    +0.000 C 
ATOM      7  C   UNL     1       6.662   4.281  16.101  0.00  0.00    +0.000 C 
BRANCH   6   9
ATOM      8  C   UNL     1       6.316   3.284  12.787  0.00  0.00    +0.000 C 
ATOM      9  C   UNL     1       6.012   4.159  13.757  0.00  0.00    +0.000 C 
BRANCH   8  12
ATOM     10  C   UNL     1       3.253   3.217  10.484  0.00  0.00    +0.000 C 
ATOM     11  C   UNL     1       4.210   3.567  11.576  0.00  0.00    +0.000 C 
ATOM     12  C   UNL     1       5.387   2.945  11.734  0.00  0.00    +0.000 C 
ENDBRANCH   8  12
ENDBRANCH   6   9
ENDBRANCH   5   7
ENDBRANCH   2   5
ENDBRANCH   1   2
BRANCH   1  13
ATOM     13  C   UNL     1       8.368   8.008  18.412  0.00  0.00    +0.000 C 
BRANCH  13  14
ATOM     14  C   UNL     1       8.289   9.487  18.065  0.00  0.00    +0.000 C 
BRANCH  14  15
ATOM     15  C   UNL     1       9.118  10.264  19.081  0.00  0.00    +0.000 C 
BRANCH  15  16
ATOM     16  C   UNL     1      10.125  11.169  18.396  0.00  0.00    +0.000 C 
BRANCH  16  17
ATOM     17  C   UNL     1      11.295  11.447  19.330  0.00  0.00    +0.000 C 
BRANCH  17  18
ATOM     18  C   UNL     1      11.389  12.936  19.625  0.00  0.00    +0.000 C 
BRANCH  18  19
ATOM     19  C   UNL     1      10.696  13.746  18.539  0.00  0.00    +0.000 C 
BRANCH  19  20
ATOM     20  C   UNL     1       9.539  14.541  19.132  0.00  0.00    +0.000 C 
BRANCH  20  21
ATOM     21  C   UNL     1       8.907  15.443  18.079  0.00  0.00    +0.000 C 
BRANCH  21  22
ATOM     22  C   UNL     1       7.444  15.074  17.856  0.00  0.00    +0.000 C 
ATOM     23  C   UNL     1       7.302  13.611  17.479  0.00  0.00    +0.000 C 
ENDBRANCH  21  22
ENDBRANCH  20  21
ENDBRANCH  19  20
ENDBRANCH  18  19
ENDBRANCH  17  18
ENDBRANCH  16  17
ENDBRANCH  15  16
ENDBRANCH  14  15
ENDBRANCH  13  14
ENDBRANCH   1  13
TORSDOF 15
ENDMDL
MODEL 3
REMARK VINA RESULT:      -5.7      2.848      6.089
REMARK  Name = 
REMARK  19 active torsions:
REMARK  status: ('A' for Active; 'I' for Inactive)
REMARK    1  A    between atoms: C_1  and  C_2
REMARK    2  A    between atoms: C_3  and  C_4
REMARK    3  A    between atoms: C_5  and  C_6
REMARK    4  A    between atoms: C_7  and  C_8
REMARK    5  A    between atoms: C_8  and  N_9
REMARK    6  A    between atoms: N_9  and  C_10
REMARK    7  A    between atoms: N_9  and  C_11
REMARK    8  A    between atoms: N_9  and  C_12
REMARK    9  A    between atoms: C_12  and  C_13
REMARK   10  A    between atoms: C_13  and  C_14
REMARK   11  A    between atoms: C_14  and  C_15
REMARK   12  A    between atoms: C_15  and  C_16
REMARK   13  A    between atoms: C_16  and  C_17
REMARK   14  A    between atoms: C_17  and  C_18
REMARK   15  A    between atoms: C_18  and  C_19
REMARK   16  A    between atoms: C_19  and  C_20
REMARK   17  A    between atoms: C_20  and  C_21
REMARK   18  A    between atoms: C_21  and  C_22
REMARK   19  A    between atoms: C_22  and  C_23
REMARK                            x       y       z     vdW  Elec       q    Type
REMARK                         _______ _______ _______ _____ _____    ______ ____
ROOT
ATOM      1  C   UNL     1       5.867   5.139  19.222  0.00  0.00    +0.000 C 
ENDROOT
BRANCH   1   2
ATOM      2  N   UNL     1       6.765   5.760  18.122  0.00  0.00    +0.000 N 
ATOM      3  C   UNL     1       7.924   6.530  18.755  0.00  0.00    +0.000 C 
ATOM      4  C   UNL     1       5.943   6.692  17.236  0.00  0.00    +0.000 C 
BRANCH   2   5
ATOM      5  C   UNL     1       7.330   4.583  17.280  0.00  0.00    +0.000 C 
BRANCH   5   7
ATOM      6  C   UNL     1       7.495   4.631  14.752  0.00  0.00    +0.000 C 
ATOM      7  C   UNL     1       6.790   4.474  15.884  0.00  0.00    +0.000 C 
BRANCH   6   9
ATOM      8  C   UNL     1       5.660   3.992  13.250  0.00  0.00    +0.000 C 
ATOM      9  C   UNL     1       6.865   4.546  13.450  0.00  0.00    +0.000 C 
BRANCH   8  12
ATOM     10  C   UNL     1       3.313   3.129  10.346  0.00  0.00    +0.000 C 
ATOM     11  C   UNL     1       3.931   3.220  11.703  0.00  0.00    +0.000 C 
ATOM     12  C   UNL     1       5.062   3.899  11.939  0.00  0.00    +0.000 C 
ENDBRANCH   8  12
ENDBRANCH   6   9
ENDBRANCH   5   7
ENDBRANCH   2   5
ENDBRANCH   1   2
BRANCH   1  13
ATOM     13  C   UNL     1       4.570   4.576  18.658  0.00  0.00    +0.000 C 
BRANCH  13  14
ATOM     14  C   UNL     1       4.409   3.093  18.961  0.00  0.00    +0.000 C 
BRANCH  14  15
ATOM     15  C   UNL     1       3.777   2.420  17.748  0.00  0.00    +0.000 C 
BRANCH  15  16
ATOM     16  C   UNL     1       2.267   2.352  17.879  0.00  0.00    +0.000 C 
BRANCH  16  17
ATOM     17  C   UNL     1       1.880   2.091  19.329  0.00  0.00    +0.000 C 
BRANCH  17  18
ATOM     18  C   UNL     1       1.032   3.236  19.858  0.00  0.00    +0.000 C 
BRANCH  18  19
ATOM     19  C   UNL     1       1.612   3.783  21.155  0.00  0.00    +0.000 C 
BRANCH  19  20
ATOM     20  C   UNL     1       1.767   5.296  21.065  0.00  0.00    +0.000 C 
BRANCH  20  21
ATOM     21  C   UNL     1       1.747   5.757  19.613  0.00  0.00    +0.000 C 
BRANCH  21  22
ATOM     22  C   UNL     1       2.260   7.187  19.489  0.00  0.00    +0.000 C 
ATOM     23  C   UNL     1       2.449   7.574  18.034  0.00  0.00    +0.000 C 
ENDBRANCH  21  22
ENDBRANCH  20  21
ENDBRANCH  19  20
ENDBRANCH  18  19
ENDBRANCH  17  18
ENDBRANCH  16  17
ENDBRANCH  15  16
ENDBRANCH  14  15
ENDBRANCH  13  14
ENDBRANCH   1  13
TORSDOF 15
ENDMDL
MODEL 4
REMARK VINA RESULT:      -5.7      4.527      8.283
REMARK  Name = 
REMARK  19 active torsions:
REMARK  status: ('A' for Active; 'I' for Inactive)
REMARK    1  A    between atoms: C_1  and  C_2
REMARK    2  A    between atoms: C_3  and  C_4
REMARK    3  A    between atoms: C_5  and  C_6
REMARK    4  A    between atoms: C_7  and  C_8
REMARK    5  A    between atoms: C_8  and  N_9
REMARK    6  A    between atoms: N_9  and  C_10
REMARK    7  A    between atoms: N_9  and  C_11
REMARK    8  A    between atoms: N_9  and  C_12
REMARK    9  A    between atoms: C_12  and  C_13
REMARK   10  A    between atoms: C_13  and  C_14
REMARK   11  A    between atoms: C_14  and  C_15
REMARK   12  A    between atoms: C_15  and  C_16
REMARK   13  A    between atoms: C_16  and  C_17
REMARK   14  A    between atoms: C_17  and  C_18
REMARK   15  A    between atoms: C_18  and  C_19
REMARK   16  A    between atoms: C_19  and  C_20
REMARK   17  A    between atoms: C_20  and  C_21
REMARK   18  A    between atoms: C_21  and  C_22
REMARK   19  A    between atoms: C_22  and  C_23
REMARK                            x       y       z     vdW  Elec       q    Type
REMARK                         _______ _______ _______ _____ _____    ______ ____
ROOT
ATOM      1  C   UNL     1       4.571   4.700  17.439  0.00  0.00    +0.000 C 
ENDROOT
BRANCH   1   2
ATOM      2  N   UNL     1       3.377   4.841  18.416  0.00  0.00    +0.000 N 
ATOM      3  C   UNL     1       3.499   3.827  19.554  0.00  0.00    +0.000 C 
ATOM      4  C   UNL     1       2.061   4.634  17.673  0.00  0.00    +0.000 C 
BRANCH   2   5
ATOM      5  C   UNL     1       3.437   6.279  19.003  0.00  0.00    +0.000 C 
BRANCH   5   7
ATOM      6  C   UNL     1       2.459   8.503  18.286  0.00  0.00    +0.000 C 
ATOM      7  C   UNL     1       2.332   7.196  18.570  0.00  0.00    +0.000 C 
BRANCH   6   9
ATOM      8  C   UNL     1       0.510   9.902  18.811  0.00  0.00    +0.000 C 
ATOM      9  C   UNL     1       1.316   9.312  17.916  0.00  0.00    +0.000 C 
BRANCH   8  12
ATOM     10  C   UNL     1      -2.841  10.993  17.306  0.00  0.00    +0.000 C 
ATOM     11  C   UNL     1      -1.654  10.180  17.708  0.00  0.00    +0.000 C 
ATOM     12  C   UNL     1      -0.637  10.686  18.418  0.00  0.00    +0.000 C 
ENDBRANCH   8  12
ENDBRANCH   6   9
ENDBRANCH   5   7
ENDBRANCH   2   5
ENDBRANCH   1   2
BRANCH   1  13
ATOM     13  C   UNL     1       5.380   5.985  17.328  0.00  0.00    +0.000 C 
BRANCH  13  14
ATOM     14  C   UNL     1       6.783   5.737  16.794  0.00  0.00    +0.000 C 
BRANCH  14  15
ATOM     15  C   UNL     1       6.751   4.491  15.917  0.00  0.00    +0.000 C 
BRANCH  15  16
ATOM     16  C   UNL     1       6.722   4.853  14.444  0.00  0.00    +0.000 C 
BRANCH  16  17
ATOM     17  C   UNL     1       6.209   3.674  13.627  0.00  0.00    +0.000 C 
BRANCH  17  18
ATOM     18  C   UNL     1       6.744   3.749  12.206  0.00  0.00    +0.000 C 
BRANCH  18  19
ATOM     19  C   UNL     1       5.693   3.283  11.208  0.00  0.00    +0.000 C 
BRANCH  19  20
ATOM     20  C   UNL     1       4.307   3.342  11.838  0.00  0.00    +0.000 C 
BRANCH  20  21
ATOM     21  C   UNL     1       3.228   3.078  10.796  0.00  0.00    +0.000 C 
BRANCH  21  22
ATOM     22  C   UNL     1       3.470   3.910   9.540  0.00  0.00    +0.000 C 
ATOM     23  C   UNL     1       2.276   4.795   9.235  0.00  0.00    +0.000 C 
ENDBRANCH  21  22
ENDBRANCH  20  21
ENDBRANCH  19  20
ENDBRANCH  18  19
ENDBRANCH  17  18
ENDBRANCH  16  17
ENDBRANCH  15  16
ENDBRANCH  14  15
ENDBRANCH  13  14
ENDBRANCH   1  13
TORSDOF 15
ENDMDL
MODEL 5
REMARK VINA RESULT:      -5.6      3.285      6.588
REMARK  Name = 
REMARK  19 active torsions:
REMARK  status: ('A' for Active; 'I' for Inactive)
REMARK    1  A    between atoms: C_1  and  C_2
REMARK    2  A    between atoms: C_3  and  C_4
REMARK    3  A    between atoms: C_5  and  C_6
REMARK    4  A    between atoms: C_7  and  C_8
REMARK    5  A    between atoms: C_8  and  N_9
REMARK    6  A    between atoms: N_9  and  C_10
REMARK    7  A    between atoms: N_9  and  C_11
REMARK    8  A    between atoms: N_9  and  C_12
REMARK    9  A    between atoms: C_12  and  C_13
REMARK   10  A    between atoms: C_13  and  C_14
REMARK   11  A    between atoms: C_14  and  C_15
REMARK   12  A    between atoms: C_15  and  C_16
REMARK   13  A    between atoms: C_16  and  C_17
REMARK   14  A    between atoms: C_17  and  C_18
REMARK   15  A    between atoms: C_18  and  C_19
REMARK   16  A    between atoms: C_19  and  C_20
REMARK   17  A    between atoms: C_20  and  C_21
REMARK   18  A    between atoms: C_21  and  C_22
REMARK   19  A    between atoms: C_22  and  C_23
REMARK                            x       y       z     vdW  Elec       q    Type
REMARK                         _______ _______ _______ _____ _____    ______ ____
ROOT
ATOM      1  C   UNL     1       5.198   6.366  18.062  0.00  0.00    +0.000 C 
ENDROOT
BRANCH   1   2
ATOM      2  N   UNL     1       6.459   5.468  18.007  0.00  0.00    +0.000 N 
ATOM      3  C   UNL     1       6.062   3.992  18.035  0.00  0.00    +0.000 C 
ATOM      4  C   UNL     1       7.381   5.782  19.183  0.00  0.00    +0.000 C 
BRANCH   2   5
ATOM      5  C   UNL     1       7.181   5.779  16.666  0.00  0.00    +0.000 C 
BRANCH   5   7
ATOM      6  C   UNL     1       6.658   4.455  14.570  0.00  0.00    +0.000 C 
ATOM      7  C   UNL     1       6.399   5.457  15.427  0.00  0.00    +0.000 C 
BRANCH   6   9
ATOM      8  C   UNL     1       5.958   3.165  12.602  0.00  0.00    +0.000 C 
ATOM      9  C   UNL     1       5.863   4.256  13.376  0.00  0.00    +0.000 C 
BRANCH   8  12
ATOM     10  C   UNL     1       3.068   3.182  10.084  0.00  0.00    +0.000 C 
ATOM     11  C   UNL     1       3.879   3.352  11.327  0.00  0.00    +0.000 C 
ATOM     12  C   UNL     1       5.169   2.999  11.403  0.00  0.00    +0.000 C 
ENDBRANCH   8  12
ENDBRANCH   6   9
ENDBRANCH   5   7
ENDBRANCH   2   5
ENDBRANCH   1   2
BRANCH   1  13
ATOM     13  C   UNL     1       4.210   5.907  19.125  0.00  0.00    +0.000 C 
BRANCH  13  14
ATOM     14  C   UNL     1       2.841   6.550  18.952  0.00  0.00    +0.000 C 
BRANCH  14  15
ATOM     15  C   UNL     1       2.154   6.591  20.312  0.00  0.00    +0.000 C 
BRANCH  15  16
ATOM     16  C   UNL     1       1.335   5.337  20.555  0.00  0.00    +0.000 C 
BRANCH  16  17
ATOM     17  C   UNL     1       2.115   4.366  21.432  0.00  0.00    +0.000 C 
BRANCH  17  18
ATOM     18  C   UNL     1       1.433   3.007  21.445  0.00  0.00    +0.000 C 
BRANCH  18  19
ATOM     19  C   UNL     1       1.728   2.243  20.161  0.00  0.00    +0.000 C 
BRANCH  19  20
ATOM     20  C   UNL     1       3.224   2.268  19.866  0.00  0.00    +0.000 C 
BRANCH  20  21
ATOM     21  C   UNL     1       3.509   1.719  18.474  0.00  0.00    +0.000 C 
BRANCH  21  22
ATOM     22  C   UNL     1       2.417   2.134  17.493  0.00  0.00    +0.000 C 
ATOM     23  C   UNL     1       2.662   3.537  16.968  0.00  0.00    +0.000 C 
ENDBRANCH  21  22
ENDBRANCH  20  21
ENDBRANCH  19  20
ENDBRANCH  18  19
ENDBRANCH  17  18
ENDBRANCH  16  17
ENDBRANCH  15  16
ENDBRANCH  14  15
ENDBRANCH  13  14
ENDBRANCH   1  13
TORSDOF 15
ENDMDL
MODEL 6
REMARK VINA RESULT:      -5.6      3.359      6.858
REMARK  Name = 
REMARK  19 active torsions:
REMARK  status: ('A' for Active; 'I' for Inactive)
REMARK    1  A    between atoms: C_1  and  C_2
REMARK    2  A    between atoms: C_3  and  C_4
REMARK    3  A    between atoms: C_5  and  C_6
REMARK    4  A    between atoms: C_7  and  C_8
REMARK    5  A    between atoms: C_8  and  N_9
REMARK    6  A    between atoms: N_9  and  C_10
REMARK    7  A    between atoms: N_9  and  C_11
REMARK    8  A    between atoms: N_9  and  C_12
REMARK    9  A    between atoms: C_12  and  C_13
REMARK   10  A    between atoms: C_13  and  C_14
REMARK   11  A    between atoms: C_14  and  C_15
REMARK   12  A    between atoms: C_15  and  C_16
REMARK   13  A    between atoms: C_16  and  C_17
REMARK   14  A    between atoms: C_17  and  C_18
REMARK   15  A    between atoms: C_18  and  C_19
REMARK   16  A    between atoms: C_19  and  C_20
REMARK   17  A    between atoms: C_20  and  C_21
REMARK   18  A    between atoms: C_21  and  C_22
REMARK   19  A    between atoms: C_22  and  C_23
REMARK                            x       y       z     vdW  Elec       q    Type
REMARK                         _______ _______ _______ _____ _____    ______ ____
ROOT
ATOM      1  C   UNL     1       5.529   6.136  16.725  0.00  0.00    +0.000 C 
ENDROOT
BRANCH   1   2
ATOM      2  N   UNL     1       6.494   5.138  17.414  0.00  0.00    +0.000 N 
ATOM      3  C   UNL     1       5.743   4.304  18.452  0.00  0.00    +0.000 C 
ATOM      4  C   UNL     1       7.641   5.890  18.081  0.00  0.00    +0.000 C 
BRANCH   2   5
ATOM      5  C   UNL     1       7.045   4.199  16.305  0.00  0.00    +0.000 C 
BRANCH   5   7
ATOM      6  C   UNL     1       6.566   4.300  13.819  0.00  0.00    +0.000 C 
ATOM      7  C   UNL     1       6.181   4.069  15.085  0.00  0.00    +0.000 C 
BRANCH   6   9
ATOM      8  C   UNL     1       5.231   3.010  12.212  0.00  0.00    +0.000 C 
ATOM      9  C   UNL     1       5.638   4.185  12.713  0.00  0.00    +0.000 C 
BRANCH   8  12
ATOM     10  C   UNL     1       2.743   3.890   9.433  0.00  0.00    +0.000 C 
ATOM     11  C   UNL     1       3.680   3.986  10.592  0.00  0.00    +0.000 C 
ATOM     12  C   UNL     1       4.321   2.921  11.094  0.00  0.00    +0.000 C 
ENDBRANCH   8  12
ENDBRANCH   6   9
ENDBRANCH   5   7
ENDBRANCH   2   5
ENDBRANCH   1   2
BRANCH   1  13
ATOM     13  C   UNL     1       5.117   7.271  17.651  0.00  0.00    +0.000 C 
BRANCH  13  14
ATOM     14  C   UNL     1       3.605   7.430  17.727  0.00  0.00    +0.000 C 
BRANCH  14  15
ATOM     15  C   UNL     1       2.971   6.047  17.635  0.00  0.00    +0.000 C 
BRANCH  15  16
ATOM     16  C   UNL     1       1.683   5.976  18.434  0.00  0.00    +0.000 C 
BRANCH  16  17
ATOM     17  C   UNL     1       1.973   6.207  19.912  0.00  0.00    +0.000 C 
BRANCH  17  18
ATOM     18  C   UNL     1       1.525   5.005  20.728  0.00  0.00    +0.000 C 
BRANCH  18  19
ATOM     19  C   UNL     1       2.576   3.905  20.688  0.00  0.00    +0.000 C 
BRANCH  19  20
ATOM     20  C   UNL     1       1.909   2.547  20.502  0.00  0.00    +0.000 C 
BRANCH  20  21
ATOM     21  C   UNL     1       1.277   2.441  19.120  0.00  0.00    +0.000 C 
BRANCH  21  22
ATOM     22  C   UNL     1       2.348   2.395  18.035  0.00  0.00    +0.000 C 
ATOM     23  C   UNL     1       3.457   1.428  18.405  0.00  0.00    +0.000 C 
ENDBRANCH  21  22
ENDBRANCH  20  21
ENDBRANCH  19  20
ENDBRANCH  18  19
ENDBRANCH  17  18
ENDBRANCH  16  17
ENDBRANCH  15  16
ENDBRANCH  14  15
ENDBRANCH  13  14
ENDBRANCH   1  13
TORSDOF 15
ENDMDL
MODEL 7
REMARK VINA RESULT:      -5.6      1.274      2.278
REMARK  Name = 
REMARK  19 active torsions:
REMARK  status: ('A' for Active; 'I' for Inactive)
REMARK    1  A    between atoms: C_1  and  C_2
REMARK    2  A    between atoms: C_3  and  C_4
REMARK    3  A    between atoms: C_5  and  C_6
REMARK    4  A    between atoms: C_7  and  C_8
REMARK    5  A    between atoms: C_8  and  N_9
REMARK    6  A    between atoms: N_9  and  C_10
REMARK    7  A    between atoms: N_9  and  C_11
REMARK    8  A    between atoms: N_9  and  C_12
REMARK    9  A    between atoms: C_12  and  C_13
REMARK   10  A    between atoms: C_13  and  C_14
REMARK   11  A    between atoms: C_14  and  C_15
REMARK   12  A    between atoms: C_15  and  C_16
REMARK   13  A    between atoms: C_16  and  C_17
REMARK   14  A    between atoms: C_17  and  C_18
REMARK   15  A    between atoms: C_18  and  C_19
REMARK   16  A    between atoms: C_19  and  C_20
REMARK   17  A    between atoms: C_20  and  C_21
REMARK   18  A    between atoms: C_21  and  C_22
REMARK   19  A    between atoms: C_22  and  C_23
REMARK                            x       y       z     vdW  Elec       q    Type
REMARK                         _______ _______ _______ _____ _____    ______ ____
ROOT
ATOM      1  C   UNL     1       5.715   4.129  17.035  0.00  0.00    +0.000 C 
ENDROOT
BRANCH   1   2
ATOM      2  N   UNL     1       5.918   5.480  17.766  0.00  0.00    +0.000 N 
ATOM      3  C   UNL     1       5.687   5.312  19.268  0.00  0.00    +0.000 C 
ATOM      4  C   UNL     1       4.961   6.530  17.207  0.00  0.00    +0.000 C 
BRANCH   2   5
ATOM      5  C   UNL     1       7.389   5.914  17.520  0.00  0.00    +0.000 C 
BRANCH   5   7
ATOM      6  C   UNL     1       7.873   8.401  17.445  0.00  0.00    +0.000 C 
ATOM      7  C   UNL     1       7.776   7.238  18.111  0.00  0.00    +0.000 C 
BRANCH   6   9
ATOM      8  C   UNL     1       9.220   9.646  19.077  0.00  0.00    +0.000 C 
ATOM      9  C   UNL     1       8.297   9.618  18.104  0.00  0.00    +0.000 C 
BRANCH   8  12
ATOM     10  C   UNL     1       9.807  13.346  19.885  0.00  0.00    +0.000 C 
ATOM     11  C   UNL     1       9.404  12.081  19.199  0.00  0.00    +0.000 C 
ATOM     12  C   UNL     1       9.611  10.870  19.735  0.00  0.00    +0.000 C 
ENDBRANCH   8  12
ENDBRANCH   6   9
ENDBRANCH   5   7
ENDBRANCH   2   5
ENDBRANCH   1   2
BRANCH   1  13
ATOM     13  C   UNL     1       4.320   3.998  16.442  0.00  0.00    +0.000 C 
BRANCH  13  14
ATOM     14  C   UNL     1       3.361   3.283  17.383  0.00  0.00    +0.000 C 
BRANCH  14  15
ATOM     15  C   UNL     1       2.137   4.168  17.587  0.00  0.00    +0.000 C 
BRANCH  15  16
ATOM     16  C   UNL     1       1.304   3.696  18.764  0.00  0.00    +0.000 C 
BRANCH  16  17
ATOM     17  C   UNL     1       2.214   3.269  19.909  0.00  0.00    +0.000 C 
BRANCH  17  18
ATOM     18  C   UNL     1       2.488   4.449  20.828  0.00  0.00    +0.000 C 
BRANCH  18  19
ATOM     19  C   UNL     1       1.518   5.588  20.548  0.00  0.00    +0.000 C 
BRANCH  19  20
ATOM     20  C   UNL     1       2.278   6.821  20.075  0.00  0.00    +0.000 C 
BRANCH  20  21
ATOM     21  C   UNL     1       1.509   8.093  20.414  0.00  0.00    +0.000 C 
BRANCH  21  22
ATOM     22  C   UNL     1       1.433   9.020  19.205  0.00  0.00    +0.000 C 
ATOM     23  C   UNL     1       1.894   8.310  17.945  0.00  0.00    +0.000 C 
ENDBRANCH  21  22
ENDBRANCH  20  21
ENDBRANCH  19  20
ENDBRANCH  18  19
ENDBRANCH  17  18
ENDBRANCH  16  17
ENDBRANCH  15  16
ENDBRANCH  14  15
ENDBRANCH  13  14
ENDBRANCH   1  13
TORSDOF 15
ENDMDL
MODEL 8
REMARK VINA RESULT:      -5.6      3.608      5.334
REMARK  Name = 
REMARK  19 active torsions:
REMARK  status: ('A' for Active; 'I' for Inactive)
REMARK    1  A    between atoms: C_1  and  C_2
REMARK    2  A    between atoms: C_3  and  C_4
REMARK    3  A    between atoms: C_5  and  C_6
REMARK    4  A    between atoms: C_7  and  C_8
REMARK    5  A    between atoms: C_8  and  N_9
REMARK    6  A    between atoms: N_9  and  C_10
REMARK    7  A    between atoms: N_9  and  C_11
REMARK    8  A    between atoms: N_9  and  C_12
REMARK    9  A    between atoms: C_12  and  C_13
REMARK   10  A    between atoms: C_13  and  C_14
REMARK   11  A    between atoms: C_14  and  C_15
REMARK   12  A    between atoms: C_15  and  C_16
REMARK   13  A    between atoms: C_16  and  C_17
REMARK   14  A    between atoms: C_17  and  C_18
REMARK   15  A    between atoms: C_18  and  C_19
REMARK   16  A    between atoms: C_19  and  C_20
REMARK   17  A    between atoms: C_20  and  C_21
REMARK   18  A    between atoms: C_21  and  C_22
REMARK   19  A    between atoms: C_22  and  C_23
REMARK                            x       y       z     vdW  Elec       q    Type
REMARK                         _______ _______ _______ _____ _____    ______ ____
ROOT
ATOM      1  C   UNL     1       4.192   6.537  17.728  0.00  0.00    +0.000 C 
ENDROOT
BRANCH   1   2
ATOM      2  N   UNL     1       4.853   5.150  17.928  0.00  0.00    +0.000 N 
ATOM      3  C   UNL     1       4.620   4.268  16.701  0.00  0.00    +0.000 C 
ATOM      4  C   UNL     1       4.287   4.471  19.172  0.00  0.00    +0.000 C 
BRANCH   2   5
ATOM      5  C   UNL     1       6.378   5.394  18.101  0.00  0.00    +0.000 C 
BRANCH   5   7
ATOM      6  C   UNL     1       8.014   7.325  18.219  0.00  0.00    +0.000 C 
ATOM      7  C   UNL     1       6.837   6.799  17.842  0.00  0.00    +0.000 C 
BRANCH   6   9
ATOM      8  C   UNL     1       8.887   9.526  18.870  0.00  0.00    +0.000 C 
ATOM      9  C   UNL     1       8.343   8.711  17.954  0.00  0.00    +0.000 C 
BRANCH   8  12
ATOM     10  C   UNL     1      10.529  12.723  17.540  0.00  0.00    +0.000 C 
ATOM     11  C   UNL     1      10.224  11.290  17.831  0.00  0.00    +0.000 C 
ATOM     12  C   UNL     1       9.187  10.910  18.590  0.00  0.00    +0.000 C 
ENDBRANCH   8  12
ENDBRANCH   6   9
ENDBRANCH   5   7
ENDBRANCH   2   5
ENDBRANCH   1   2
BRANCH   1  13
ATOM     13  C   UNL     1       2.701   6.514  18.035  0.00  0.00    +0.000 C 
BRANCH  13  14
ATOM     14  C   UNL     1       2.257   7.741  18.816  0.00  0.00    +0.000 C 
BRANCH  14  15
ATOM     15  C   UNL     1       2.078   8.896  17.838  0.00  0.00    +0.000 C 
BRANCH  15  16
ATOM     16  C   UNL     1       0.812   9.678  18.132  0.00  0.00    +0.000 C 
BRANCH  16  17
ATOM     17  C   UNL     1       0.504   9.631  19.622  0.00  0.00    +0.000 C 
BRANCH  17  18
ATOM     18  C   UNL     1       0.139  11.018  20.127  0.00  0.00    +0.000 C 
BRANCH  18  19
ATOM     19  C   UNL     1      -0.550  11.825  19.035  0.00  0.00    +0.000 C 
BRANCH  19  20
ATOM     20  C   UNL     1      -2.056  11.597  19.084  0.00  0.00    +0.000 C 
BRANCH  20  21
ATOM     21  C   UNL     1      -2.624  11.436  17.679  0.00  0.00    +0.000 C 
BRANCH  21  22
ATOM     22  C   UNL     1      -2.756   9.961  17.313  0.00  0.00    +0.000 C 
ATOM     23  C   UNL     1      -2.788   9.775  15.807  0.00  0.00    +0.000 C 
ENDBRANCH  21  22
ENDBRANCH  20  21
ENDBRANCH  19  20
ENDBRANCH  18  19
ENDBRANCH  17  18
ENDBRANCH  16  17
ENDBRANCH  15  16
ENDBRANCH  14  15
ENDBRANCH  13  14
ENDBRANCH   1  13
TORSDOF 15
ENDMDL
MODEL 9
REMARK VINA RESULT:      -5.6      3.135      6.502
REMARK  Name = 
REMARK  19 active torsions:
REMARK  status: ('A' for Active; 'I' for Inactive)
REMARK    1  A    between atoms: C_1  and  C_2
REMARK    2  A    between atoms: C_3  and  C_4
REMARK    3  A    between atoms: C_5  and  C_6
REMARK    4  A    between atoms: C_7  and  C_8
REMARK    5  A    between atoms: C_8  and  N_9
REMARK    6  A    between atoms: N_9  and  C_10
REMARK    7  A    between atoms: N_9  and  C_11
REMARK    8  A    between atoms: N_9  and  C_12
REMARK    9  A    between atoms: C_12  and  C_13
REMARK   10  A    between atoms: C_13  and  C_14
REMARK   11  A    between atoms: C_14  and  C_15
REMARK   12  A    between atoms: C_15  and  C_16
REMARK   13  A    between atoms: C_16  and  C_17
REMARK   14  A    between atoms: C_17  and  C_18
REMARK   15  A    between atoms: C_18  and  C_19
REMARK   16  A    between atoms: C_19  and  C_20
REMARK   17  A    between atoms: C_20  and  C_21
REMARK   18  A    between atoms: C_21  and  C_22
REMARK   19  A    between atoms: C_22  and  C_23
REMARK                            x       y       z     vdW  Elec       q    Type
REMARK                         _______ _______ _______ _____ _____    ______ ____
ROOT
ATOM      1  C   UNL     1       6.435   5.252  19.360  0.00  0.00    +0.000 C 
ENDROOT
BRANCH   1   2
ATOM      2  N   UNL     1       6.871   5.938  18.040  0.00  0.00    +0.000 N 
ATOM      3  C   UNL     1       7.936   6.998  18.319  0.00  0.00    +0.000 C 
ATOM      4  C   UNL     1       5.666   6.578  17.357  0.00  0.00    +0.000 C 
BRANCH   2   5
ATOM      5  C   UNL     1       7.474   4.832  17.131  0.00  0.00    +0.000 C 
BRANCH   5   7
ATOM      6  C   UNL     1       6.810   4.524  14.705  0.00  0.00    +0.000 C 
ATOM      7  C   UNL     1       6.585   4.358  16.019  0.00  0.00    +0.000 C 
BRANCH   6   9
ATOM      8  C   UNL     1       6.208   3.303  12.662  0.00  0.00    +0.000 C 
ATOM      9  C   UNL     1       5.863   4.064  13.711  0.00  0.00    +0.000 C 
BRANCH   8  12
ATOM     10  C   UNL     1       3.176   3.144  10.324  0.00  0.00    +0.000 C 
ATOM     11  C   UNL     1       4.163   3.590  11.352  0.00  0.00    +0.000 C 
ATOM     12  C   UNL     1       5.250   2.873  11.671  0.00  0.00    +0.000 C 
ENDBRANCH   8  12
ENDBRANCH   6   9
ENDBRANCH   5   7
ENDBRANCH   2   5
ENDBRANCH   1   2
BRANCH   1  13
ATOM     13  C   UNL     1       5.537   4.048  19.114  0.00  0.00    +0.000 C 
BRANCH  13  14
ATOM     14  C   UNL     1       4.262   4.105  19.942  0.00  0.00    +0.000 C 
BRANCH  14  15
ATOM     15  C   UNL     1       3.511   2.791  19.761  0.00  0.00    +0.000 C 
BRANCH  15  16
ATOM     16  C   UNL     1       2.014   2.984  19.914  0.00  0.00    +0.000 C 
BRANCH  16  17
ATOM     17  C   UNL     1       1.334   2.888  18.554  0.00  0.00    +0.000 C 
BRANCH  17  18
ATOM     18  C   UNL     1       1.833   3.994  17.639  0.00  0.00    +0.000 C 
BRANCH  18  19
ATOM     19  C   UNL     1       1.423   5.360  18.171  0.00  0.00    +0.000 C 
BRANCH  19  20
ATOM     20  C   UNL     1       2.448   6.413  17.764  0.00  0.00    +0.000 C 
BRANCH  20  21
ATOM     21  C   UNL     1       2.305   7.665  18.619  0.00  0.00    +0.000 C 
BRANCH  21  22
ATOM     22  C   UNL     1       2.086   8.897  17.747  0.00  0.00    +0.000 C 
ATOM     23  C   UNL     1       1.169   9.893  18.432  0.00  0.00    +0.000 C 
ENDBRANCH  21  22
ENDBRANCH  20  21
ENDBRANCH  19  20
ENDBRANCH  18  19
ENDBRANCH  17  18
ENDBRANCH  16  17
ENDBRANCH  15  16
ENDBRANCH  14  15
ENDBRANCH  13  14
ENDBRANCH   1  13
TORSDOF 15
ENDMDL
