MODEL 1
REMARK VINA RESULT:      -7.9      0.000      0.000
REMARK  Name = 
REMARK  13 active torsions:
REMARK  status: ('A' for Active; 'I' for Inactive)
REMARK    1  A    between atoms: C_1  and  C_2
REMARK    2  A    between atoms: C_2  and  C_3
REMARK    3  A    between atoms: C_3  and  C_4
REMARK    4  A    between atoms: C_4  and  N_5
REMARK    5  A    between atoms: N_8  and  S_9
REMARK    6  A    between atoms: S_9  and  C_12
REMARK    7  A    between atoms: C_15  and  N_16
REMARK    8  A    between atoms: C_17  and  C_19
REMARK    9  A    between atoms: C_19  and  N_20
REMARK   10  A    between atoms: C_19  and  C_24
REMARK   11  A    between atoms: C_24  and  C_25
REMARK   12  A    between atoms: C_24  and  C_26
REMARK   13  A    between atoms: C_26  and  C_27
REMARK                            x       y       z     vdW  Elec       q    Type
REMARK                         _______ _______ _______ _____ _____    ______ ____
ROOT
ATOM      1  C   UNL     1       0.766  10.048  19.424  0.00  0.00    +0.000 A 
ATOM      2  C   UNL     1       0.833   9.216  20.536  0.00  0.00    +0.000 A 
ATOM      3  C   UNL     1       1.535   8.011  20.451  0.00  0.00    +0.000 A 
ATOM      4  C   UNL     1       2.170   7.605  19.269  0.00  0.00    +0.000 A 
ATOM      5  C   UNL     1       2.115   8.460  18.163  0.00  0.00    +0.000 A 
ATOM      6  C   UNL     1       1.380   9.659  18.229  0.00  0.00    +0.000 A 
ENDROOT
BRANCH   4   7
ATOM      7  N   UNL     1       2.864   6.368  19.182  0.00  0.00    +0.000 N 
ATOM      8  C   UNL     1       2.503   5.332  18.321  0.00  0.00    +0.000 C 
ATOM      9  O   UNL     1       1.478   5.323  17.636  0.00  0.00    +0.000 OA
ATOM     10  H   UNL     1       3.706   6.252  19.742  0.00  0.00    +0.000 HD
BRANCH   8  11
ATOM     11  C   UNL     1       3.473   4.118  18.249  0.00  0.00    +0.000 C 
BRANCH  11  12
ATOM     12  N   UNL     1       4.685   4.481  19.002  0.00  0.00    +0.000 N 
ATOM     13  C   UNL     1       5.914   4.585  18.441  0.00  0.00    +0.000 C 
ATOM     14  N   UNL     1       6.887   4.899  19.327  0.00  0.00    +0.000 N 
ATOM     15  O   UNL     1       6.159   4.364  17.254  0.00  0.00    +0.000 OA
ATOM     16  H   UNL     1       4.566   4.820  19.946  0.00  0.00    +0.000 HD
ATOM     17  H   UNL     1       6.692   5.566  20.056  0.00  0.00    +0.000 HD
ATOM     18  H   UNL     1       7.813   4.973  18.931  0.00  0.00    +0.000 HD
ENDBRANCH  11  12
BRANCH  11  19
ATOM     19  C   UNL     1       2.766   2.872  18.881  0.00  0.00    +0.000 C 
ATOM     20  C   UNL     1       3.426   1.568  18.386  0.00  0.00    +0.000 C 
BRANCH  19  21
ATOM     21  C   UNL     1       2.737   2.886  20.428  0.00  0.00    +0.000 C 
ATOM     22  C   UNL     1       1.321   2.960  21.003  0.00  0.00    +0.000 C 
ENDBRANCH  19  21
ENDBRANCH  11  19
ENDBRANCH   8  11
ENDBRANCH   4   7
BRANCH   1  23
ATOM     23  S   UNL     1      -0.105  11.604  19.516  0.00  0.00    +0.000 S 
ATOM     24  O   UNL     1       0.885  12.646  19.731  0.00  0.00    +0.000 OA
ATOM     25  O   UNL     1      -1.221  11.463  20.417  0.00  0.00    +0.000 OA
BRANCH  23  29
ATOM     26  N   UNL     1      -2.160  11.429  16.199  0.00  0.00    +0.000 N 
ATOM     27  C   UNL     1      -1.815  11.189  17.497  0.00  0.00    +0.000 C 
ATOM     28  O   UNL     1      -2.471  10.458  18.207  0.00  0.00    +0.000 OA
ATOM     29  N   UNL     1      -0.654  11.816  17.941  0.00  0.00    +0.000 N 
ATOM     30  H   UNL     1      -1.605  12.027  15.615  0.00  0.00    +0.000 HD
ATOM     31  H   UNL     1      -0.110  12.460  17.391  0.00  0.00    +0.000 HD
BRANCH  26  32
ATOM     32  C   UNL     1      -3.356  10.790  15.654  0.00  0.00    +0.000 C 
BRANCH  32  33
ATOM     33  C   UNL     1      -3.083   9.979  14.388  0.00  0.00    +0.000 C 
BRANCH  33  35
ATOM     34  C   UNL     1      -4.051   9.813  12.067  0.00  0.00    +0.000 C 
ATOM     35  C   UNL     1      -4.346   9.747  13.558  0.00  0.00    +0.000 C 
ENDBRANCH  33  35
ENDBRANCH  32  33
ENDBRANCH  26  32
ENDBRANCH  23  29
ENDBRANCH   1  23
TORSDOF 10
ENDMDL
MODEL 2
REMARK VINA RESULT:      -7.8      1.689      2.847
REMARK  Name = 
REMARK  13 active torsions:
REMARK  status: ('A' for Active; 'I' for Inactive)
REMARK    1  A    between atoms: C_1  and  C_2
REMARK    2  A    between atoms: C_2  and  C_3
REMARK    3  A    between atoms: C_3  and  C_4
REMARK    4  A    between atoms: C_4  and  N_5
REMARK    5  A    between atoms: N_8  and  S_9
REMARK    6  A    between atoms: S_9  and  C_12
REMARK    7  A    between atoms: C_15  and  N_16
REMARK    8  A    between atoms: C_17  and  C_19
REMARK    9  A    between atoms: C_19  and  N_20
REMARK   10  A    between atoms: C_19  and  C_24
REMARK   11  A    between atoms: C_24  and  C_25
REMARK   12  A    between atoms: C_24  and  C_26
REMARK   13  A    between atoms: C_26  and  C_27
REMARK                            x       y       z     vdW  Elec       q    Type
REMARK                         _______ _______ _______ _____ _____    ______ ____
ROOT
ATOM      1  C   UNL     1       0.988   9.774  19.360  0.00  0.00    +0.000 A 
ATOM      2  C   UNL     1       1.249   8.867  20.381  0.00  0.00    +0.000 A 
ATOM      3  C   UNL     1       1.942   7.687  20.094  0.00  0.00    +0.000 A 
ATOM      4  C   UNL     1       2.377   7.382  18.797  0.00  0.00    +0.000 A 
ATOM      5  C   UNL     1       2.129   8.311  17.780  0.00  0.00    +0.000 A 
ATOM      6  C   UNL     1       1.401   9.484  18.054  0.00  0.00    +0.000 A 
ENDROOT
BRANCH   4   7
ATOM      7  N   UNL     1       3.062   6.171  18.506  0.00  0.00    +0.000 N 
ATOM      8  C   UNL     1       4.294   6.110  17.857  0.00  0.00    +0.000 C 
ATOM      9  O   UNL     1       4.864   7.081  17.355  0.00  0.00    +0.000 OA
ATOM     10  H   UNL     1       2.654   5.300  18.839  0.00  0.00    +0.000 HD
BRANCH   8  11
ATOM     11  C   UNL     1       4.964   4.709  17.767  0.00  0.00    +0.000 C 
BRANCH  11  12
ATOM     12  N   UNL     1       3.917   3.746  17.389  0.00  0.00    +0.000 N 
ATOM     13  C   UNL     1       3.555   2.690  18.158  0.00  0.00    +0.000 C 
ATOM     14  N   UNL     1       2.594   1.920  17.597  0.00  0.00    +0.000 N 
ATOM     15  O   UNL     1       4.075   2.403  19.236  0.00  0.00    +0.000 OA
ATOM     16  H   UNL     1       3.335   3.975  16.596  0.00  0.00    +0.000 HD
ATOM     17  H   UNL     1       1.840   2.361  17.095  0.00  0.00    +0.000 HD
ATOM     18  H   UNL     1       2.315   1.122  18.150  0.00  0.00    +0.000 HD
ENDBRANCH  11  12
BRANCH  11  19
ATOM     19  C   UNL     1       6.099   4.763  16.691  0.00  0.00    +0.000 C 
ATOM     20  C   UNL     1       7.479   4.552  17.349  0.00  0.00    +0.000 C 
BRANCH  19  21
ATOM     21  C   UNL     1       5.914   3.751  15.535  0.00  0.00    +0.000 C 
ATOM     22  C   UNL     1       6.335   4.309  14.173  0.00  0.00    +0.000 C 
ENDBRANCH  19  21
ENDBRANCH  11  19
ENDBRANCH   8  11
ENDBRANCH   4   7
BRANCH   1  23
ATOM     23  S   UNL     1       0.127  11.298  19.708  0.00  0.00    +0.000 S 
ATOM     24  O   UNL     1       1.123  12.287  20.082  0.00  0.00    +0.000 OA
ATOM     25  O   UNL     1      -0.985  11.017  20.580  0.00  0.00    +0.000 OA
BRANCH  23  29
ATOM     26  N   UNL     1      -1.958  11.687  16.427  0.00  0.00    +0.000 N 
ATOM     27  C   UNL     1      -1.609  11.241  17.668  0.00  0.00    +0.000 C 
ATOM     28  O   UNL     1      -2.277  10.424  18.263  0.00  0.00    +0.000 OA
ATOM     29  N   UNL     1      -0.429  11.764  18.191  0.00  0.00    +0.000 N 
ATOM     30  H   UNL     1      -1.393  12.356  15.936  0.00  0.00    +0.000 HD
ATOM     31  H   UNL     1       0.126  12.473  17.740  0.00  0.00    +0.000 HD
BRANCH  26  32
ATOM     32  C   UNL     1      -3.173  11.168  15.803  0.00  0.00    +0.000 C 
BRANCH  32  33
ATOM     33  C   UNL     1      -2.899  10.127  14.719  0.00  0.00    +0.000 C 
BRANCH  33  35
ATOM     34  C   UNL     1      -4.089   9.845  12.516  0.00  0.00    +0.000 C 
ATOM     35  C   UNL     1      -4.175   9.656  14.022  0.00  0.00    +0.000 C 
ENDBRANCH  33  35
ENDBRANCH  32  33
ENDBRANCH  26  32
ENDBRANCH  23  29
ENDBRANCH   1  23
TORSDOF 10
ENDMDL
MODEL 3
REMARK VINA RESULT:      -7.6      3.545      8.678
REMARK  Name = 
REMARK  13 active torsions:
REMARK  status: ('A' for Active; 'I' for Inactive)
REMARK    1  A    between atoms: C_1  and  C_2
REMARK    2  A    between atoms: C_2  and  C_3
REMARK    3  A    between atoms: C_3  and  C_4
REMARK    4  A    between atoms: C_4  and  N_5
REMARK    5  A    between atoms: N_8  and  S_9
REMARK    6  A    between atoms: S_9  and  C_12
REMARK    7  A    between atoms: C_15  and  N_16
REMARK    8  A    between atoms: C_17  and  C_19
REMARK    9  A    between atoms: C_19  and  N_20
REMARK   10  A    between atoms: C_19  and  C_24
REMARK   11  A    between atoms: C_24  and  C_25
REMARK   12  A    between atoms: C_24  and  C_26
REMARK   13  A    between atoms: C_26  and  C_27
REMARK                            x       y       z     vdW  Elec       q    Type
REMARK                         _______ _______ _______ _____ _____    ______ ____
ROOT
ATOM      1  C   UNL     1       4.215   5.485  18.436  0.00  0.00    +0.000 A 
ATOM      2  C   UNL     1       3.092   5.514  19.257  0.00  0.00    +0.000 A 
ATOM      3  C   UNL     1       2.242   6.623  19.220  0.00  0.00    +0.000 A 
ATOM      4  C   UNL     1       2.493   7.720  18.384  0.00  0.00    +0.000 A 
ATOM      5  C   UNL     1       3.613   7.672  17.548  0.00  0.00    +0.000 A 
ATOM      6  C   UNL     1       4.493   6.575  17.604  0.00  0.00    +0.000 A 
ENDROOT
BRANCH   4   7
ATOM      7  N   UNL     1       1.637   8.855  18.368  0.00  0.00    +0.000 N 
ATOM      8  C   UNL     1       1.083   9.429  19.511  0.00  0.00    +0.000 C 
ATOM      9  O   UNL     1       1.169   8.947  20.643  0.00  0.00    +0.000 OA
ATOM     10  H   UNL     1       1.461   9.308  17.473  0.00  0.00    +0.000 HD
BRANCH   8  11
ATOM     11  C   UNL     1       0.301  10.759  19.313  0.00  0.00    +0.000 C 
BRANCH  11  12
ATOM     12  N   UNL     1       0.991  11.518  18.257  0.00  0.00    +0.000 N 
ATOM     13  C   UNL     1       1.918  12.476  18.505  0.00  0.00    +0.000 C 
ATOM     14  N   UNL     1       2.396  13.065  17.385  0.00  0.00    +0.000 N 
ATOM     15  O   UNL     1       2.265  12.835  19.631  0.00  0.00    +0.000 OA
ATOM     16  H   UNL     1       0.882  11.201  17.305  0.00  0.00    +0.000 HD
ATOM     17  H   UNL     1       2.572  12.501  16.568  0.00  0.00    +0.000 HD
ATOM     18  H   UNL     1       3.082  13.789  17.547  0.00  0.00    +0.000 HD
ENDBRANCH  11  12
BRANCH  11  19
ATOM     19  C   UNL     1      -1.170  10.421  18.898  0.00  0.00    +0.000 C 
ATOM     20  C   UNL     1      -2.102  11.615  19.192  0.00  0.00    +0.000 C 
BRANCH  19  21
ATOM     21  C   UNL     1      -1.321   9.994  17.418  0.00  0.00    +0.000 C 
ATOM     22  C   UNL     1      -2.574  10.567  16.752  0.00  0.00    +0.000 C 
ENDBRANCH  19  21
ENDBRANCH  11  19
ENDBRANCH   8  11
ENDBRANCH   4   7
BRANCH   1  23
ATOM     23  S   UNL     1       5.301   4.069  18.448  0.00  0.00    +0.000 S 
ATOM     24  O   UNL     1       4.692   3.058  19.295  0.00  0.00    +0.000 OA
ATOM     25  O   UNL     1       6.648   4.515  18.700  0.00  0.00    +0.000 OA
BRANCH  23  29
ATOM     26  N   UNL     1       5.821   3.392  14.636  0.00  0.00    +0.000 N 
ATOM     27  C   UNL     1       6.026   3.929  15.873  0.00  0.00    +0.000 C 
ATOM     28  O   UNL     1       6.889   4.756  16.074  0.00  0.00    +0.000 OA
ATOM     29  N   UNL     1       5.168   3.487  16.876  0.00  0.00    +0.000 N 
ATOM     30  H   UNL     1       5.096   2.717  14.475  0.00  0.00    +0.000 HD
ATOM     31  H   UNL     1       4.469   2.773  16.751  0.00  0.00    +0.000 HD
BRANCH  26  32
ATOM     32  C   UNL     1       6.669   3.823  13.526  0.00  0.00    +0.000 C 
BRANCH  32  33
ATOM     33  C   UNL     1       6.089   3.481  12.155  0.00  0.00    +0.000 C 
BRANCH  33  35
ATOM     34  C   UNL     1       3.950   2.956  10.930  0.00  0.00    +0.000 C 
ATOM     35  C   UNL     1       4.582   3.728  12.077  0.00  0.00    +0.000 C 
ENDBRANCH  33  35
ENDBRANCH  32  33
ENDBRANCH  26  32
ENDBRANCH  23  29
ENDBRANCH   1  23
TORSDOF 10
ENDMDL
MODEL 4
REMARK VINA RESULT:      -7.4      1.651      2.820
REMARK  Name = 
REMARK  13 active torsions:
REMARK  status: ('A' for Active; 'I' for Inactive)
REMARK    1  A    between atoms: C_1  and  C_2
REMARK    2  A    between atoms: C_2  and  C_3
REMARK    3  A    between atoms: C_3  and  C_4
REMARK    4  A    between atoms: C_4  and  N_5
REMARK    5  A    between atoms: N_8  and  S_9
REMARK    6  A    between atoms: S_9  and  C_12
REMARK    7  A    between atoms: C_15  and  N_16
REMARK    8  A    between atoms: C_17  and  C_19
REMARK    9  A    between atoms: C_19  and  N_20
REMARK   10  A    between atoms: C_19  and  C_24
REMARK   11  A    between atoms: C_24  and  C_25
REMARK   12  A    between atoms: C_24  and  C_26
REMARK   13  A    between atoms: C_26  and  C_27
REMARK                            x       y       z     vdW  Elec       q    Type
REMARK                         _______ _______ _______ _____ _____    ______ ____
ROOT
ATOM      1  C   UNL     1       1.169   9.455  19.363  0.00  0.00    +0.000 A 
ATOM      2  C   UNL     1       1.403   8.451  20.295  0.00  0.00    +0.000 A 
ATOM      3  C   UNL     1       2.043   7.275  19.892  0.00  0.00    +0.000 A 
ATOM      4  C   UNL     1       2.449   7.070  18.566  0.00  0.00    +0.000 A 
ATOM      5  C   UNL     1       2.227   8.096  17.641  0.00  0.00    +0.000 A 
ATOM      6  C   UNL     1       1.553   9.268  18.030  0.00  0.00    +0.000 A 
ENDROOT
BRANCH   4   7
ATOM      7  N   UNL     1       3.079   5.863  18.157  0.00  0.00    +0.000 N 
ATOM      8  C   UNL     1       4.459   5.710  18.028  0.00  0.00    +0.000 C 
ATOM      9  O   UNL     1       5.273   6.630  18.131  0.00  0.00    +0.000 OA
ATOM     10  H   UNL     1       2.491   5.047  18.001  0.00  0.00    +0.000 HD
BRANCH   8  11
ATOM     11  C   UNL     1       4.974   4.274  17.724  0.00  0.00    +0.000 C 
BRANCH  11  12
ATOM     12  N   UNL     1       3.792   3.420  17.521  0.00  0.00    +0.000 N 
ATOM     13  C   UNL     1       3.497   2.348  18.296  0.00  0.00    +0.000 C 
ATOM     14  N   UNL     1       2.382   1.690  17.906  0.00  0.00    +0.000 N 
ATOM     15  O   UNL     1       4.193   1.955  19.234  0.00  0.00    +0.000 OA
ATOM     16  H   UNL     1       3.088   3.741  16.872  0.00  0.00    +0.000 HD
ATOM     17  H   UNL     1       1.585   2.218  17.587  0.00  0.00    +0.000 HD
ATOM     18  H   UNL     1       2.148   0.882  18.466  0.00  0.00    +0.000 HD
ENDBRANCH  11  12
BRANCH  11  19
ATOM     19  C   UNL     1       5.866   4.321  16.440  0.00  0.00    +0.000 C 
ATOM     20  C   UNL     1       5.154   5.103  15.315  0.00  0.00    +0.000 C 
BRANCH  19  21
ATOM     21  C   UNL     1       7.274   4.917  16.677  0.00  0.00    +0.000 C 
ATOM     22  C   UNL     1       7.838   4.597  18.063  0.00  0.00    +0.000 C 
ENDBRANCH  19  21
ENDBRANCH  11  19
ENDBRANCH   8  11
ENDBRANCH   4   7
BRANCH   1  23
ATOM     23  S   UNL     1       0.376  10.975  19.860  0.00  0.00    +0.000 S 
ATOM     24  O   UNL     1       1.422  11.905  20.253  0.00  0.00    +0.000 OA
ATOM     25  O   UNL     1      -0.702  10.667  20.765  0.00  0.00    +0.000 OA
BRANCH  23  29
ATOM     26  N   UNL     1      -1.828  11.634  16.703  0.00  0.00    +0.000 N 
ATOM     27  C   UNL     1      -1.434  11.086  17.888  0.00  0.00    +0.000 C 
ATOM     28  O   UNL     1      -2.080  10.220  18.436  0.00  0.00    +0.000 OA
ATOM     29  N   UNL     1      -0.235  11.566  18.409  0.00  0.00    +0.000 N 
ATOM     30  H   UNL     1      -1.281  12.343  16.249  0.00  0.00    +0.000 HD
ATOM     31  H   UNL     1       0.304  12.312  17.999  0.00  0.00    +0.000 HD
BRANCH  26  32
ATOM     32  C   UNL     1      -3.066  11.166  16.082  0.00  0.00    +0.000 C 
BRANCH  32  33
ATOM     33  C   UNL     1      -2.832  10.208  14.916  0.00  0.00    +0.000 C 
BRANCH  33  35
ATOM     34  C   UNL     1      -3.855   9.816  12.646  0.00  0.00    +0.000 C 
ATOM     35  C   UNL     1      -4.115   9.903  14.142  0.00  0.00    +0.000 C 
ENDBRANCH  33  35
ENDBRANCH  32  33
ENDBRANCH  26  32
ENDBRANCH  23  29
ENDBRANCH   1  23
TORSDOF 10
ENDMDL
MODEL 5
REMARK VINA RESULT:      -7.4      3.237      4.452
REMARK  Name = 
REMARK  13 active torsions:
REMARK  status: ('A' for Active; 'I' for Inactive)
REMARK    1  A    between atoms: C_1  and  C_2
REMARK    2  A    between atoms: C_2  and  C_3
REMARK    3  A    between atoms: C_3  and  C_4
REMARK    4  A    between atoms: C_4  and  N_5
REMARK    5  A    between atoms: N_8  and  S_9
REMARK    6  A    between atoms: S_9  and  C_12
REMARK    7  A    between atoms: C_15  and  N_16
REMARK    8  A    between atoms: C_17  and  C_19
REMARK    9  A    between atoms: C_19  and  N_20
REMARK   10  A    between atoms: C_19  and  C_24
REMARK   11  A    between atoms: C_24  and  C_25
REMARK   12  A    between atoms: C_24  and  C_26
REMARK   13  A    between atoms: C_26  and  C_27
REMARK                            x       y       z     vdW  Elec       q    Type
REMARK                         _______ _______ _______ _____ _____    ______ ____
ROOT
ATOM      1  C   UNL     1       1.415   9.293  19.240  0.00  0.00    +0.000 A 
ATOM      2  C   UNL     1       1.394   8.400  20.305  0.00  0.00    +0.000 A 
ATOM      3  C   UNL     1       1.998   7.147  20.163  0.00  0.00    +0.000 A 
ATOM      4  C   UNL     1       2.619   6.756  18.969  0.00  0.00    +0.000 A 
ATOM      5  C   UNL     1       2.653   7.671  17.911  0.00  0.00    +0.000 A 
ATOM      6  C   UNL     1       2.017   8.920  18.033  0.00  0.00    +0.000 A 
ENDROOT
BRANCH   4   7
ATOM      7  N   UNL     1       3.212   5.472  18.822  0.00  0.00    +0.000 N 
ATOM      8  C   UNL     1       2.658   4.440  18.066  0.00  0.00    +0.000 C 
ATOM      9  O   UNL     1       1.541   4.482  17.547  0.00  0.00    +0.000 OA
ATOM     10  H   UNL     1       4.121   5.314  19.251  0.00  0.00    +0.000 HD
BRANCH   8  11
ATOM     11  C   UNL     1       3.526   3.161  17.892  0.00  0.00    +0.000 C 
BRANCH  11  12
ATOM     12  N   UNL     1       4.935   3.586  17.892  0.00  0.00    +0.000 N 
ATOM     13  C   UNL     1       5.596   3.998  16.782  0.00  0.00    +0.000 C 
ATOM     14  N   UNL     1       6.892   4.310  17.011  0.00  0.00    +0.000 N 
ATOM     15  O   UNL     1       5.103   4.038  15.654  0.00  0.00    +0.000 OA
ATOM     16  H   UNL     1       5.383   3.726  18.787  0.00  0.00    +0.000 HD
ATOM     17  H   UNL     1       7.140   4.793  17.859  0.00  0.00    +0.000 HD
ATOM     18  H   UNL     1       7.405   4.612  16.194  0.00  0.00    +0.000 HD
ENDBRANCH  11  12
BRANCH  11  19
ATOM     19  C   UNL     1       3.229   2.187  19.080  0.00  0.00    +0.000 C 
ATOM     20  C   UNL     1       4.360   2.252  20.129  0.00  0.00    +0.000 C 
BRANCH  19  21
ATOM     21  C   UNL     1       1.866   2.436  19.769  0.00  0.00    +0.000 C 
ATOM     22  C   UNL     1       1.992   2.721  21.267  0.00  0.00    +0.000 C 
ENDBRANCH  19  21
ENDBRANCH  11  19
ENDBRANCH   8  11
ENDBRANCH   4   7
BRANCH   1  23
ATOM     23  S   UNL     1       0.672  10.908  19.406  0.00  0.00    +0.000 S 
ATOM     24  O   UNL     1      -0.511  10.933  18.563  0.00  0.00    +0.000 OA
ATOM     25  O   UNL     1       1.696  11.911  19.255  0.00  0.00    +0.000 OA
BRANCH  23  29
ATOM     26  N   UNL     1      -1.123  11.792  22.762  0.00  0.00    +0.000 N 
ATOM     27  C   UNL     1      -0.728  11.905  21.461  0.00  0.00    +0.000 C 
ATOM     28  O   UNL     1      -1.066  12.843  20.771  0.00  0.00    +0.000 OA
ATOM     29  N   UNL     1       0.103  10.893  20.989  0.00  0.00    +0.000 N 
ATOM     30  H   UNL     1      -0.829  11.018  23.329  0.00  0.00    +0.000 HD
ATOM     31  H   UNL     1       0.369  10.082  21.522  0.00  0.00    +0.000 HD
BRANCH  26  32
ATOM     32  C   UNL     1      -1.979  12.827  23.335  0.00  0.00    +0.000 C 
BRANCH  32  33
ATOM     33  C   UNL     1      -3.470  12.523  23.199  0.00  0.00    +0.000 C 
BRANCH  33  35
ATOM     34  C   UNL     1      -5.714  12.602  24.343  0.00  0.00    +0.000 C 
ATOM     35  C   UNL     1      -4.206  12.585  24.538  0.00  0.00    +0.000 C 
ENDBRANCH  33  35
ENDBRANCH  32  33
ENDBRANCH  26  32
ENDBRANCH  23  29
ENDBRANCH   1  23
TORSDOF 10
ENDMDL
MODEL 6
REMARK VINA RESULT:      -7.4      1.427      2.492
REMARK  Name = 
REMARK  13 active torsions:
REMARK  status: ('A' for Active; 'I' for Inactive)
REMARK    1  A    between atoms: C_1  and  C_2
REMARK    2  A    between atoms: C_2  and  C_3
REMARK    3  A    between atoms: C_3  and  C_4
REMARK    4  A    between atoms: C_4  and  N_5
REMARK    5  A    between atoms: N_8  and  S_9
REMARK    6  A    between atoms: S_9  and  C_12
REMARK    7  A    between atoms: C_15  and  N_16
REMARK    8  A    between atoms: C_17  and  C_19
REMARK    9  A    between atoms: C_19  and  N_20
REMARK   10  A    between atoms: C_19  and  C_24
REMARK   11  A    between atoms: C_24  and  C_25
REMARK   12  A    between atoms: C_24  and  C_26
REMARK   13  A    between atoms: C_26  and  C_27
REMARK                            x       y       z     vdW  Elec       q    Type
REMARK                         _______ _______ _______ _____ _____    ______ ____
ROOT
ATOM      1  C   UNL     1       0.317  10.462  19.553  0.00  0.00    +0.000 A 
ATOM      2  C   UNL     1       0.265   9.694  20.711  0.00  0.00    +0.000 A 
ATOM      3  C   UNL     1       1.063   8.550  20.814  0.00  0.00    +0.000 A 
ATOM      4  C   UNL     1       1.911   8.144  19.775  0.00  0.00    +0.000 A 
ATOM      5  C   UNL     1       1.972   8.935  18.622  0.00  0.00    +0.000 A 
ATOM      6  C   UNL     1       1.146  10.068  18.497  0.00  0.00    +0.000 A 
ENDROOT
BRANCH   4   7
ATOM      7  N   UNL     1       2.703   6.967  19.875  0.00  0.00    +0.000 N 
ATOM      8  C   UNL     1       2.719   5.955  18.916  0.00  0.00    +0.000 C 
ATOM      9  O   UNL     1       1.963   5.907  17.944  0.00  0.00    +0.000 OA
ATOM     10  H   UNL     1       3.335   6.884  20.668  0.00  0.00    +0.000 HD
BRANCH   8  11
ATOM     11  C   UNL     1       3.764   4.822  19.119  0.00  0.00    +0.000 C 
BRANCH  11  12
ATOM     12  N   UNL     1       3.168   3.579  18.602  0.00  0.00    +0.000 N 
ATOM     13  C   UNL     1       3.536   2.341  19.014  0.00  0.00    +0.000 C 
ATOM     14  N   UNL     1       2.877   1.345  18.379  0.00  0.00    +0.000 N 
ATOM     15  O   UNL     1       4.420   2.117  19.841  0.00  0.00    +0.000 OA
ATOM     16  H   UNL     1       2.340   3.661  18.029  0.00  0.00    +0.000 HD
ATOM     17  H   UNL     1       1.896   1.453  18.175  0.00  0.00    +0.000 HD
ATOM     18  H   UNL     1       3.142   0.412  18.665  0.00  0.00    +0.000 HD
ENDBRANCH  11  12
BRANCH  11  19
ATOM     19  C   UNL     1       5.068   5.193  18.336  0.00  0.00    +0.000 C 
ATOM     20  C   UNL     1       4.851   6.474  17.503  0.00  0.00    +0.000 C 
BRANCH  19  21
ATOM     21  C   UNL     1       6.313   5.364  19.238  0.00  0.00    +0.000 C 
ATOM     22  C   UNL     1       7.564   5.785  18.464  0.00  0.00    +0.000 C 
ENDBRANCH  19  21
ENDBRANCH  11  19
ENDBRANCH   8  11
ENDBRANCH   4   7
BRANCH   1  23
ATOM     23  S   UNL     1      -0.673  11.940  19.410  0.00  0.00    +0.000 S 
ATOM     24  O   UNL     1       0.213  13.078  19.585  0.00  0.00    +0.000 OA
ATOM     25  O   UNL     1      -1.848  11.797  20.233  0.00  0.00    +0.000 OA
BRANCH  23  29
ATOM     26  N   UNL     1      -2.396  11.226  15.977  0.00  0.00    +0.000 N 
ATOM     27  C   UNL     1      -2.142  11.146  17.314  0.00  0.00    +0.000 C 
ATOM     28  O   UNL     1      -2.773  10.409  18.040  0.00  0.00    +0.000 OA
ATOM     29  N   UNL     1      -1.101  11.943  17.783  0.00  0.00    +0.000 N 
ATOM     30  H   UNL     1      -1.860  11.831  15.381  0.00  0.00    +0.000 HD
ATOM     31  H   UNL     1      -0.585  12.595  17.215  0.00  0.00    +0.000 HD
BRANCH  26  32
ATOM     32  C   UNL     1      -3.460  10.404  15.406  0.00  0.00    +0.000 C 
BRANCH  32  33
ATOM     33  C   UNL     1      -3.237  10.064  13.934  0.00  0.00    +0.000 C 
BRANCH  33  35
ATOM     34  C   UNL     1      -4.388   9.782  11.709  0.00  0.00    +0.000 C 
ATOM     35  C   UNL     1      -4.533   9.677  13.219  0.00  0.00    +0.000 C 
ENDBRANCH  33  35
ENDBRANCH  32  33
ENDBRANCH  26  32
ENDBRANCH  23  29
ENDBRANCH   1  23
TORSDOF 10
ENDMDL
MODEL 7
REMARK VINA RESULT:      -7.3      1.655      2.247
REMARK  Name = 
REMARK  13 active torsions:
REMARK  status: ('A' for Active; 'I' for Inactive)
REMARK    1  A    between atoms: C_1  and  C_2
REMARK    2  A    between atoms: C_2  and  C_3
REMARK    3  A    between atoms: C_3  and  C_4
REMARK    4  A    between atoms: C_4  and  N_5
REMARK    5  A    between atoms: N_8  and  S_9
REMARK    6  A    between atoms: S_9  and  C_12
REMARK    7  A    between atoms: C_15  and  N_16
REMARK    8  A    between atoms: C_17  and  C_19
REMARK    9  A    between atoms: C_19  and  N_20
REMARK   10  A    between atoms: C_19  and  C_24
REMARK   11  A    between atoms: C_24  and  C_25
REMARK   12  A    between atoms: C_24  and  C_26
REMARK   13  A    between atoms: C_26  and  C_27
REMARK                            x       y       z     vdW  Elec       q    Type
REMARK                         _______ _______ _______ _____ _____    ______ ____
ROOT
ATOM      1  C   UNL     1       1.186   9.759  19.436  0.00  0.00    +0.000 A 
ATOM      2  C   UNL     1       1.703   9.725  18.145  0.00  0.00    +0.000 A 
ATOM      3  C   UNL     1       2.261   8.538  17.660  0.00  0.00    +0.000 A 
ATOM      4  C   UNL     1       2.327   7.377  18.442  0.00  0.00    +0.000 A 
ATOM      5  C   UNL     1       1.785   7.416  19.731  0.00  0.00    +0.000 A 
ATOM      6  C   UNL     1       1.253   8.616  20.240  0.00  0.00    +0.000 A 
ENDROOT
BRANCH   4   7
ATOM      7  N   UNL     1       2.916   6.180  17.951  0.00  0.00    +0.000 N 
ATOM      8  C   UNL     1       4.047   5.583  18.508  0.00  0.00    +0.000 C 
ATOM      9  O   UNL     1       4.731   6.088  19.400  0.00  0.00    +0.000 OA
ATOM     10  H   UNL     1       2.454   5.701  17.181  0.00  0.00    +0.000 HD
BRANCH   8  11
ATOM     11  C   UNL     1       4.453   4.195  17.937  0.00  0.00    +0.000 C 
BRANCH  11  12
ATOM     12  N   UNL     1       5.890   4.016  18.203  0.00  0.00    +0.000 N 
ATOM     13  C   UNL     1       6.868   4.499  17.398  0.00  0.00    +0.000 C 
ATOM     14  N   UNL     1       8.115   4.188  17.820  0.00  0.00    +0.000 N 
ATOM     15  O   UNL     1       6.667   5.113  16.349  0.00  0.00    +0.000 OA
ATOM     16  H   UNL     1       6.157   3.653  19.107  0.00  0.00    +0.000 HD
ATOM     17  H   UNL     1       8.322   4.212  18.806  0.00  0.00    +0.000 HD
ATOM     18  H   UNL     1       8.860   4.531  17.229  0.00  0.00    +0.000 HD
ENDBRANCH  11  12
BRANCH  11  19
ATOM     19  C   UNL     1       3.604   3.090  18.650  0.00  0.00    +0.000 C 
ATOM     20  C   UNL     1       3.666   1.766  17.859  0.00  0.00    +0.000 C 
BRANCH  19  21
ATOM     21  C   UNL     1       4.013   2.837  20.121  0.00  0.00    +0.000 C 
ATOM     22  C   UNL     1       2.836   2.922  21.096  0.00  0.00    +0.000 C 
ENDBRANCH  19  21
ENDBRANCH  11  19
ENDBRANCH   8  11
ENDBRANCH   4   7
BRANCH   1  23
ATOM     23  S   UNL     1       0.446  11.255  20.068  0.00  0.00    +0.000 S 
ATOM     24  O   UNL     1       1.519  12.209  20.300  0.00  0.00    +0.000 OA
ATOM     25  O   UNL     1      -0.466  10.913  21.130  0.00  0.00    +0.000 OA
BRANCH  23  29
ATOM     26  N   UNL     1      -2.071  11.688  17.112  0.00  0.00    +0.000 N 
ATOM     27  C   UNL     1      -1.460  11.119  18.191  0.00  0.00    +0.000 C 
ATOM     28  O   UNL     1      -1.808  10.043  18.627  0.00  0.00    +0.000 OA
ATOM     29  N   UNL     1      -0.402  11.840  18.739  0.00  0.00    +0.000 N 
ATOM     30  H   UNL     1      -1.768  12.574  16.750  0.00  0.00    +0.000 HD
ATOM     31  H   UNL     1      -0.115  12.753  18.427  0.00  0.00    +0.000 HD
BRANCH  26  32
ATOM     32  C   UNL     1      -3.176  10.982  16.469  0.00  0.00    +0.000 C 
BRANCH  32  33
ATOM     33  C   UNL     1      -4.529  11.661  16.676  0.00  0.00    +0.000 C 
BRANCH  33  35
ATOM     34  C   UNL     1      -6.411  11.008  18.221  0.00  0.00    +0.000 C 
ATOM     35  C   UNL     1      -5.007  11.585  18.126  0.00  0.00    +0.000 C 
ENDBRANCH  33  35
ENDBRANCH  32  33
ENDBRANCH  26  32
ENDBRANCH  23  29
ENDBRANCH   1  23
TORSDOF 10
ENDMDL
MODEL 8
REMARK VINA RESULT:      -7.3      1.083      1.456
REMARK  Name = 
REMARK  13 active torsions:
REMARK  status: ('A' for Active; 'I' for Inactive)
REMARK    1  A    between atoms: C_1  and  C_2
REMARK    2  A    between atoms: C_2  and  C_3
REMARK    3  A    between atoms: C_3  and  C_4
REMARK    4  A    between atoms: C_4  and  N_5
REMARK    5  A    between atoms: N_8  and  S_9
REMARK    6  A    between atoms: S_9  and  C_12
REMARK    7  A    between atoms: C_15  and  N_16
REMARK    8  A    between atoms: C_17  and  C_19
REMARK    9  A    between atoms: C_19  and  N_20
REMARK   10  A    between atoms: C_19  and  C_24
REMARK   11  A    between atoms: C_24  and  C_25
REMARK   12  A    between atoms: C_24  and  C_26
REMARK   13  A    between atoms: C_26  and  C_27
REMARK                            x       y       z     vdW  Elec       q    Type
REMARK                         _______ _______ _______ _____ _____    ______ ____
ROOT
ATOM      1  C   UNL     1       1.211   9.649  19.400  0.00  0.00    +0.000 A 
ATOM      2  C   UNL     1       1.767   9.458  18.140  0.00  0.00    +0.000 A 
ATOM      3  C   UNL     1       2.412   8.252  17.848  0.00  0.00    +0.000 A 
ATOM      4  C   UNL     1       2.527   7.226  18.797  0.00  0.00    +0.000 A 
ATOM      5  C   UNL     1       1.945   7.420  20.054  0.00  0.00    +0.000 A 
ATOM      6  C   UNL     1       1.325   8.644  20.367  0.00  0.00    +0.000 A 
ENDROOT
BRANCH   4   7
ATOM      7  N   UNL     1       3.204   6.012  18.502  0.00  0.00    +0.000 N 
ATOM      8  C   UNL     1       2.615   4.932  17.845  0.00  0.00    +0.000 C 
ATOM      9  O   UNL     1       1.418   4.861  17.560  0.00  0.00    +0.000 OA
ATOM     10  H   UNL     1       4.192   5.946  18.737  0.00  0.00    +0.000 HD
BRANCH   8  11
ATOM     11  C   UNL     1       3.554   3.751  17.469  0.00  0.00    +0.000 C 
BRANCH  11  12
ATOM     12  N   UNL     1       4.935   4.259  17.512  0.00  0.00    +0.000 N 
ATOM     13  C   UNL     1       5.747   4.321  16.428  0.00  0.00    +0.000 C 
ATOM     14  N   UNL     1       6.984   4.792  16.708  0.00  0.00    +0.000 N 
ATOM     15  O   UNL     1       5.434   3.939  15.301  0.00  0.00    +0.000 OA
ATOM     16  H   UNL     1       5.235   4.727  18.355  0.00  0.00    +0.000 HD
ATOM     17  H   UNL     1       7.086   5.552  17.363  0.00  0.00    +0.000 HD
ATOM     18  H   UNL     1       7.609   4.839  15.916  0.00  0.00    +0.000 HD
ENDBRANCH  11  12
BRANCH  11  19
ATOM     19  C   UNL     1       3.344   2.593  18.501  0.00  0.00    +0.000 C 
ATOM     20  C   UNL     1       4.113   2.887  19.807  0.00  0.00    +0.000 C 
BRANCH  19  21
ATOM     21  C   UNL     1       1.859   2.305  18.825  0.00  0.00    +0.000 C 
ATOM     22  C   UNL     1       1.507   2.541  20.296  0.00  0.00    +0.000 C 
ENDBRANCH  19  21
ENDBRANCH  11  19
ENDBRANCH   8  11
ENDBRANCH   4   7
BRANCH   1  23
ATOM     23  S   UNL     1       0.360  11.169  19.787  0.00  0.00    +0.000 S 
ATOM     24  O   UNL     1       1.366  12.151  20.157  0.00  0.00    +0.000 OA
ATOM     25  O   UNL     1      -0.735  10.879  20.677  0.00  0.00    +0.000 OA
BRANCH  23  29
ATOM     26  N   UNL     1      -1.830  11.680  16.593  0.00  0.00    +0.000 N 
ATOM     27  C   UNL     1      -1.462  11.223  17.824  0.00  0.00    +0.000 C 
ATOM     28  O   UNL     1      -2.164  10.467  18.459  0.00  0.00    +0.000 OA
ATOM     29  N   UNL     1      -0.224  11.659  18.288  0.00  0.00    +0.000 N 
ATOM     30  H   UNL     1      -1.237  12.297  16.068  0.00  0.00    +0.000 HD
ATOM     31  H   UNL     1       0.364  12.318  17.804  0.00  0.00    +0.000 HD
BRANCH  26  32
ATOM     32  C   UNL     1      -3.107  11.249  16.029  0.00  0.00    +0.000 C 
BRANCH  32  33
ATOM     33  C   UNL     1      -3.047   9.864  15.386  0.00  0.00    +0.000 C 
BRANCH  33  35
ATOM     34  C   UNL     1      -2.864   9.587  12.888  0.00  0.00    +0.000 C 
ATOM     35  C   UNL     1      -3.807   9.799  14.062  0.00  0.00    +0.000 C 
ENDBRANCH  33  35
ENDBRANCH  32  33
ENDBRANCH  26  32
ENDBRANCH  23  29
ENDBRANCH   1  23
TORSDOF 10
ENDMDL
MODEL 9
REMARK VINA RESULT:      -7.3      2.483      3.695
REMARK  Name = 
REMARK  13 active torsions:
REMARK  status: ('A' for Active; 'I' for Inactive)
REMARK    1  A    between atoms: C_1  and  C_2
REMARK    2  A    between atoms: C_2  and  C_3
REMARK    3  A    between atoms: C_3  and  C_4
REMARK    4  A    between atoms: C_4  and  N_5
REMARK    5  A    between atoms: N_8  and  S_9
REMARK    6  A    between atoms: S_9  and  C_12
REMARK    7  A    between atoms: C_15  and  N_16
REMARK    8  A    between atoms: C_17  and  C_19
REMARK    9  A    between atoms: C_19  and  N_20
REMARK   10  A    between atoms: C_19  and  C_24
REMARK   11  A    between atoms: C_24  and  C_25
REMARK   12  A    between atoms: C_24  and  C_26
REMARK   13  A    between atoms: C_26  and  C_27
REMARK                            x       y       z     vdW  Elec       q    Type
REMARK                         _______ _______ _______ _____ _____    ______ ____
ROOT
ATOM      1  C   UNL     1       0.487   9.902  19.193  0.00  0.00    +0.000 A 
ATOM      2  C   UNL     1       1.142   9.659  17.990  0.00  0.00    +0.000 A 
ATOM      3  C   UNL     1       2.070   8.617  17.911  0.00  0.00    +0.000 A 
ATOM      4  C   UNL     1       2.372   7.809  19.016  0.00  0.00    +0.000 A 
ATOM      5  C   UNL     1       1.693   8.048  20.215  0.00  0.00    +0.000 A 
ATOM      6  C   UNL     1       0.783   9.118  20.313  0.00  0.00    +0.000 A 
ENDROOT
BRANCH   4   7
ATOM      7  N   UNL     1       3.334   6.765  18.936  0.00  0.00    +0.000 N 
ATOM      8  C   UNL     1       3.119   5.558  18.271  0.00  0.00    +0.000 C 
ATOM      9  O   UNL     1       2.037   5.212  17.791  0.00  0.00    +0.000 OA
ATOM     10  H   UNL     1       4.252   6.929  19.342  0.00  0.00    +0.000 HD
BRANCH   8  11
ATOM     11  C   UNL     1       4.339   4.602  18.153  0.00  0.00    +0.000 C 
BRANCH  11  12
ATOM     12  N   UNL     1       3.813   3.247  17.918  0.00  0.00    +0.000 N 
ATOM     13  C   UNL     1       3.782   2.278  18.865  0.00  0.00    +0.000 C 
ATOM     14  N   UNL     1       3.285   1.102  18.416  0.00  0.00    +0.000 N 
ATOM     15  O   UNL     1       4.211   2.411  20.011  0.00  0.00    +0.000 OA
ATOM     16  H   UNL     1       3.309   3.084  17.057  0.00  0.00    +0.000 HD
ATOM     17  H   UNL     1       2.500   1.108  17.785  0.00  0.00    +0.000 HD
ATOM     18  H   UNL     1       3.261   0.363  19.104  0.00  0.00    +0.000 HD
ENDBRANCH  11  12
BRANCH  11  19
ATOM     19  C   UNL     1       5.236   5.076  16.962  0.00  0.00    +0.000 C 
ATOM     20  C   UNL     1       6.729   4.868  17.294  0.00  0.00    +0.000 C 
BRANCH  19  21
ATOM     21  C   UNL     1       4.902   4.391  15.615  0.00  0.00    +0.000 C 
ATOM     22  C   UNL     1       6.144   3.914  14.858  0.00  0.00    +0.000 C 
ENDBRANCH  19  21
ENDBRANCH  11  19
ENDBRANCH   8  11
ENDBRANCH   4   7
BRANCH   1  23
ATOM     23  S   UNL     1      -0.720  11.211  19.311  0.00  0.00    +0.000 S 
ATOM     24  O   UNL     1      -0.238  12.324  18.510  0.00  0.00    +0.000 OA
ATOM     25  O   UNL     1      -1.063  11.407  20.697  0.00  0.00    +0.000 OA
BRANCH  23  29
ATOM     26  N   UNL     1      -4.264  10.616  17.778  0.00  0.00    +0.000 N 
ATOM     27  C   UNL     1      -3.270  11.221  18.491  0.00  0.00    +0.000 C 
ATOM     28  O   UNL     1      -3.464  12.240  19.118  0.00  0.00    +0.000 OA
ATOM     29  N   UNL     1      -2.034  10.582  18.471  0.00  0.00    +0.000 N 
ATOM     30  H   UNL     1      -4.097   9.766  17.272  0.00  0.00    +0.000 HD
ATOM     31  H   UNL     1      -1.829   9.758  17.929  0.00  0.00    +0.000 HD
BRANCH  26  32
ATOM     32  C   UNL     1      -5.596  11.216  17.769  0.00  0.00    +0.000 C 
BRANCH  32  33
ATOM     33  C   UNL     1      -6.612  10.446  18.610  0.00  0.00    +0.000 C 
BRANCH  33  35
ATOM     34  C   UNL     1      -6.967  12.796  19.450  0.00  0.00    +0.000 C 
ATOM     35  C   UNL     1      -7.283  11.324  19.667  0.00  0.00    +0.000 C 
ENDBRANCH  33  35
ENDBRANCH  32  33
ENDBRANCH  26  32
ENDBRANCH  23  29
ENDBRANCH   1  23
TORSDOF 10
ENDMDL
