MODEL 1
REMARK VINA RESULT:      -7.2      0.000      0.000
REMARK  Name = 
REMARK  9 active torsions:
REMARK  status: ('A' for Active; 'I' for Inactive)
REMARK    1  A    between atoms: N_1  and  S_2
REMARK    2  A    between atoms: S_2  and  C_5
REMARK    3  A    between atoms: C_8  and  C_9
REMARK    4  A    between atoms: N_11  and  C_12
REMARK    5  A    between atoms: C_14  and  C_15
REMARK    6  A    between atoms: C_15  and  O_16
REMARK    7  A    between atoms: C_17  and  O_18
REMARK    8  A    between atoms: C_19  and  O_20
REMARK    9  A    between atoms: C_21  and  O_22
REMARK                            x       y       z     vdW  Elec       q    Type
REMARK                         _______ _______ _______ _____ _____    ______ ____
ROOT
ATOM      1  C   UNL     1       2.384   7.595  18.706  0.00  0.00    +0.000 C 
ATOM      2  O   UNL     1       2.078   7.243  19.838  0.00  0.00    +0.000 OA
ATOM      3  N   UNL     1       1.890   8.723  18.101  0.00  0.00    +0.000 N 
ATOM      4  H   UNL     1       2.319   9.056  17.254  0.00  0.00    +0.000 HD
ENDROOT
BRANCH   1   8
ATOM      5  C   UNL     1       5.412   5.400  16.620  0.00  0.00    +0.000 A 
ATOM      6  C   UNL     1       5.350   6.788  16.459  0.00  0.00    +0.000 A 
ATOM      7  C   UNL     1       4.335   7.508  17.103  0.00  0.00    +0.000 A 
ATOM      8  C   UNL     1       3.394   6.843  17.902  0.00  0.00    +0.000 A 
ATOM      9  C   UNL     1       3.415   5.443  17.986  0.00  0.00    +0.000 A 
ATOM     10  C   UNL     1       4.425   4.723  17.350  0.00  0.00    +0.000 A 
BRANCH   5  11
ATOM     11  S   UNL     1       6.755   4.485  15.929  0.00  0.00    +0.000 S 
ATOM     12  O   UNL     1       6.237   3.349  15.202  0.00  0.00    +0.000 OA
ATOM     13  O   UNL     1       7.803   4.362  16.909  0.00  0.00    +0.000 OA
BRANCH  11  14
ATOM     14  N   UNL     1       7.316   5.561  14.778  0.00  0.00    +0.000 NA
ATOM     15  H   UNL     1       8.276   5.858  15.001  0.00  0.00    +0.000 HD
ATOM     16  H   UNL     1       6.668   6.338  14.650  0.00  0.00    +0.000 HD
ENDBRANCH  11  14
ENDBRANCH   5  11
ENDBRANCH   1   8
BRANCH   3  17
ATOM     17  C   UNL     1       0.968   9.626  18.734  0.00  0.00    +0.000 C 
ATOM     18  O   UNL     1      -0.095   9.708  17.784  0.00  0.00    +0.000 OA
ATOM     19  C   UNL     1      -1.150  10.594  18.178  0.00  0.00    +0.000 C 
ATOM     20  C   UNL     1      -0.598  12.024  18.210  0.00  0.00    +0.000 C 
ATOM     21  C   UNL     1       0.498  12.071  19.295  0.00  0.00    +0.000 C 
ATOM     22  C   UNL     1       1.593  11.027  19.005  0.00  0.00    +0.000 C 
BRANCH  20  23
ATOM     23  O   UNL     1      -1.635  12.980  18.433  0.00  0.00    +0.000 OA
ATOM     24  H   UNL     1      -1.551  13.322  19.341  0.00  0.00    +0.000 HD
ENDBRANCH  20  23
BRANCH  21  25
ATOM     25  O   UNL     1       1.059  13.386  19.353  0.00  0.00    +0.000 OA
ATOM     26  H   UNL     1       0.311  14.009  19.250  0.00  0.00    +0.000 HD
ENDBRANCH  21  25
BRANCH  22  27
ATOM     27  O   UNL     1       2.342  11.511  17.862  0.00  0.00    +0.000 OA
ATOM     28  H   UNL     1       2.042  12.418  17.675  0.00  0.00    +0.000 HD
ENDBRANCH  22  27
BRANCH  19  29
ATOM     29  C   UNL     1      -2.320  10.429  17.197  0.00  0.00    +0.000 C 
BRANCH  29  30
ATOM     30  O   UNL     1      -2.297  11.379  16.139  0.00  0.00    +0.000 OA
ATOM     31  H   UNL     1      -2.134  12.256  16.549  0.00  0.00    +0.000 HD
ENDBRANCH  29  30
ENDBRANCH  19  29
ENDBRANCH   3  17
TORSDOF 9
ENDMDL
MODEL 2
REMARK VINA RESULT:      -7.2      0.862      1.352
REMARK  Name = 
REMARK  9 active torsions:
REMARK  status: ('A' for Active; 'I' for Inactive)
REMARK    1  A    between atoms: N_1  and  S_2
REMARK    2  A    between atoms: S_2  and  C_5
REMARK    3  A    between atoms: C_8  and  C_9
REMARK    4  A    between atoms: N_11  and  C_12
REMARK    5  A    between atoms: C_14  and  C_15
REMARK    6  A    between atoms: C_15  and  O_16
REMARK    7  A    between atoms: C_17  and  O_18
REMARK    8  A    between atoms: C_19  and  O_20
REMARK    9  A    between atoms: C_21  and  O_22
REMARK                            x       y       z     vdW  Elec       q    Type
REMARK                         _______ _______ _______ _____ _____    ______ ____
ROOT
ATOM      1  C   UNL     1       2.414   7.608  18.861  0.00  0.00    +0.000 C 
ATOM      2  O   UNL     1       1.931   7.186  19.904  0.00  0.00    +0.000 OA
ATOM      3  N   UNL     1       1.990   8.752  18.235  0.00  0.00    +0.000 N 
ATOM      4  H   UNL     1       2.546   9.142  17.493  0.00  0.00    +0.000 HD
ENDROOT
BRANCH   1   8
ATOM      5  C   UNL     1       5.579   5.558  16.832  0.00  0.00    +0.000 A 
ATOM      6  C   UNL     1       5.192   5.117  18.101  0.00  0.00    +0.000 A 
ATOM      7  C   UNL     1       4.187   5.809  18.790  0.00  0.00    +0.000 A 
ATOM      8  C   UNL     1       3.576   6.930  18.211  0.00  0.00    +0.000 A 
ATOM      9  C   UNL     1       4.033   7.414  16.976  0.00  0.00    +0.000 A 
ATOM     10  C   UNL     1       5.029   6.727  16.285  0.00  0.00    +0.000 A 
BRANCH   5  11
ATOM     11  S   UNL     1       6.746   4.629  15.886  0.00  0.00    +0.000 S 
ATOM     12  O   UNL     1       7.450   5.516  14.989  0.00  0.00    +0.000 OA
ATOM     13  O   UNL     1       6.132   3.405  15.439  0.00  0.00    +0.000 OA
BRANCH  11  14
ATOM     14  N   UNL     1       7.843   4.194  17.072  0.00  0.00    +0.000 NA
ATOM     15  H   UNL     1       8.101   5.013  17.640  0.00  0.00    +0.000 HD
ATOM     16  H   UNL     1       8.644   3.705  16.675  0.00  0.00    +0.000 HD
ENDBRANCH  11  14
ENDBRANCH   5  11
ENDBRANCH   1   8
BRANCH   3  17
ATOM     17  C   UNL     1       0.939   9.593  18.740  0.00  0.00    +0.000 C 
ATOM     18  O   UNL     1      -0.057   9.498  17.721  0.00  0.00    +0.000 OA
ATOM     19  C   UNL     1      -1.222  10.291  17.981  0.00  0.00    +0.000 C 
ATOM     20  C   UNL     1      -0.821  11.771  17.942  0.00  0.00    +0.000 C 
ATOM     21  C   UNL     1       0.185  12.006  19.087  0.00  0.00    +0.000 C 
ATOM     22  C   UNL     1       1.398  11.067  18.945  0.00  0.00    +0.000 C 
BRANCH  20  23
ATOM     23  O   UNL     1      -1.963  12.624  18.028  0.00  0.00    +0.000 OA
ATOM     24  H   UNL     1      -1.861  13.345  17.381  0.00  0.00    +0.000 HD
ENDBRANCH  20  23
BRANCH  21  25
ATOM     25  O   UNL     1       0.605  13.374  19.083  0.00  0.00    +0.000 OA
ATOM     26  H   UNL     1       1.581  13.362  19.153  0.00  0.00    +0.000 HD
ENDBRANCH  21  25
BRANCH  22  27
ATOM     27  O   UNL     1       2.173  11.551  17.819  0.00  0.00    +0.000 OA
ATOM     28  H   UNL     1       3.009  11.908  18.166  0.00  0.00    +0.000 HD
ENDBRANCH  22  27
BRANCH  19  29
ATOM     29  C   UNL     1      -2.297   9.937  16.943  0.00  0.00    +0.000 C 
BRANCH  29  30
ATOM     30  O   UNL     1      -2.330  10.841  15.846  0.00  0.00    +0.000 OA
ATOM     31  H   UNL     1      -2.358  11.747  16.226  0.00  0.00    +0.000 HD
ENDBRANCH  29  30
ENDBRANCH  19  29
ENDBRANCH   3  17
TORSDOF 9
ENDMDL
MODEL 3
REMARK VINA RESULT:      -7.1      2.378      3.002
REMARK  Name = 
REMARK  9 active torsions:
REMARK  status: ('A' for Active; 'I' for Inactive)
REMARK    1  A    between atoms: N_1  and  S_2
REMARK    2  A    between atoms: S_2  and  C_5
REMARK    3  A    between atoms: C_8  and  C_9
REMARK    4  A    between atoms: N_11  and  C_12
REMARK    5  A    between atoms: C_14  and  C_15
REMARK    6  A    between atoms: C_15  and  O_16
REMARK    7  A    between atoms: C_17  and  O_18
REMARK    8  A    between atoms: C_19  and  O_20
REMARK    9  A    between atoms: C_21  and  O_22
REMARK                            x       y       z     vdW  Elec       q    Type
REMARK                         _______ _______ _______ _____ _____    ______ ____
ROOT
ATOM      1  C   UNL     1       2.260   6.600  19.772  0.00  0.00    +0.000 C 
ATOM      2  O   UNL     1       1.613   5.762  20.387  0.00  0.00    +0.000 OA
ATOM      3  N   UNL     1       1.937   7.932  19.733  0.00  0.00    +0.000 N 
ATOM      4  H   UNL     1       2.606   8.591  19.372  0.00  0.00    +0.000 HD
ENDROOT
BRANCH   1   8
ATOM      5  C   UNL     1       5.731   5.423  17.557  0.00  0.00    +0.000 A 
ATOM      6  C   UNL     1       5.523   4.878  18.827  0.00  0.00    +0.000 A 
ATOM      7  C   UNL     1       4.412   5.291  19.576  0.00  0.00    +0.000 A 
ATOM      8  C   UNL     1       3.521   6.239  19.056  0.00  0.00    +0.000 A 
ATOM      9  C   UNL     1       3.788   6.842  17.817  0.00  0.00    +0.000 A 
ATOM     10  C   UNL     1       4.888   6.432  17.067  0.00  0.00    +0.000 A 
BRANCH   5  11
ATOM     11  S   UNL     1       7.044   4.825  16.538  0.00  0.00    +0.000 S 
ATOM     12  O   UNL     1       8.064   4.231  17.371  0.00  0.00    +0.000 OA
ATOM     13  O   UNL     1       7.346   5.803  15.526  0.00  0.00    +0.000 OA
BRANCH  11  14
ATOM     14  N   UNL     1       6.286   3.558  15.752  0.00  0.00    +0.000 NA
ATOM     15  H   UNL     1       6.209   2.743  16.375  0.00  0.00    +0.000 HD
ATOM     16  H   UNL     1       6.737   3.350  14.862  0.00  0.00    +0.000 HD
ENDBRANCH  11  14
ENDBRANCH   5  11
ENDBRANCH   1   8
BRANCH   3  17
ATOM     17  C   UNL     1       0.808   8.497  20.422  0.00  0.00    +0.000 C 
ATOM     18  O   UNL     1       0.704   9.798  19.840  0.00  0.00    +0.000 OA
ATOM     19  C   UNL     1      -0.353  10.591  20.394  0.00  0.00    +0.000 C 
ATOM     20  C   UNL     1      -0.020  10.889  21.861  0.00  0.00    +0.000 C 
ATOM     21  C   UNL     1       0.011   9.540  22.609  0.00  0.00    +0.000 C 
ATOM     22  C   UNL     1       1.029   8.583  21.961  0.00  0.00    +0.000 C 
BRANCH  20  23
ATOM     23  O   UNL     1      -0.947  11.814  22.430  0.00  0.00    +0.000 OA
ATOM     24  H   UNL     1      -1.672  11.957  21.794  0.00  0.00    +0.000 HD
ENDBRANCH  20  23
BRANCH  21  25
ATOM     25  O   UNL     1       0.335   9.763  23.985  0.00  0.00    +0.000 OA
ATOM     26  H   UNL     1       1.038   9.119  24.210  0.00  0.00    +0.000 HD
ENDBRANCH  21  25
BRANCH  22  27
ATOM     27  O   UNL     1       2.347   9.088  22.289  0.00  0.00    +0.000 OA
ATOM     28  H   UNL     1       2.242   9.999  22.616  0.00  0.00    +0.000 HD
ENDBRANCH  22  27
BRANCH  19  29
ATOM     29  C   UNL     1      -0.505  11.863  19.548  0.00  0.00    +0.000 C 
BRANCH  29  30
ATOM     30  O   UNL     1      -0.168  11.666  18.181  0.00  0.00    +0.000 OA
ATOM     31  H   UNL     1      -0.036  10.700  18.058  0.00  0.00    +0.000 HD
ENDBRANCH  29  30
ENDBRANCH  19  29
ENDBRANCH   3  17
TORSDOF 9
ENDMDL
MODEL 4
REMARK VINA RESULT:      -7.0      1.088      1.252
REMARK  Name = 
REMARK  9 active torsions:
REMARK  status: ('A' for Active; 'I' for Inactive)
REMARK    1  A    between atoms: N_1  and  S_2
REMARK    2  A    between atoms: S_2  and  C_5
REMARK    3  A    between atoms: C_8  and  C_9
REMARK    4  A    between atoms: N_11  and  C_12
REMARK    5  A    between atoms: C_14  and  C_15
REMARK    6  A    between atoms: C_15  and  O_16
REMARK    7  A    between atoms: C_17  and  O_18
REMARK    8  A    between atoms: C_19  and  O_20
REMARK    9  A    between atoms: C_21  and  O_22
REMARK                            x       y       z     vdW  Elec       q    Type
REMARK                         _______ _______ _______ _____ _____    ______ ____
ROOT
ATOM      1  C   UNL     1       2.072   7.815  19.342  0.00  0.00    +0.000 C 
ATOM      2  O   UNL     1       1.733   7.494  20.475  0.00  0.00    +0.000 OA
ATOM      3  N   UNL     1       1.596   8.925  18.692  0.00  0.00    +0.000 N 
ATOM      4  H   UNL     1       2.050   9.235  17.849  0.00  0.00    +0.000 HD
ENDROOT
BRANCH   1   8
ATOM      5  C   UNL     1       5.212   5.697  17.344  0.00  0.00    +0.000 A 
ATOM      6  C   UNL     1       4.619   6.789  16.703  0.00  0.00    +0.000 A 
ATOM      7  C   UNL     1       3.561   7.461  17.332  0.00  0.00    +0.000 A 
ATOM      8  C   UNL     1       3.105   7.042  18.590  0.00  0.00    +0.000 A 
ATOM      9  C   UNL     1       3.651   5.892  19.182  0.00  0.00    +0.000 A 
ATOM     10  C   UNL     1       4.705   5.224  18.563  0.00  0.00    +0.000 A 
BRANCH   5  11
ATOM     11  S   UNL     1       6.630   4.916  16.637  0.00  0.00    +0.000 S 
ATOM     12  O   UNL     1       7.513   5.925  16.098  0.00  0.00    +0.000 OA
ATOM     13  O   UNL     1       6.212   3.768  15.876  0.00  0.00    +0.000 OA
BRANCH  11  14
ATOM     14  N   UNL     1       7.382   4.320  18.007  0.00  0.00    +0.000 NA
ATOM     15  H   UNL     1       7.831   3.417  17.806  0.00  0.00    +0.000 HD
ATOM     16  H   UNL     1       6.740   4.289  18.799  0.00  0.00    +0.000 HD
ENDBRANCH  11  14
ENDBRANCH   5  11
ENDBRANCH   1   8
BRANCH   3  17
ATOM     17  C   UNL     1       0.657   9.845  19.273  0.00  0.00    +0.000 C 
ATOM     18  O   UNL     1      -0.309  10.006  18.233  0.00  0.00    +0.000 OA
ATOM     19  C   UNL     1      -1.360  10.923  18.563  0.00  0.00    +0.000 C 
ATOM     20  C   UNL     1      -0.756  12.326  18.700  0.00  0.00    +0.000 C 
ATOM     21  C   UNL     1       0.235  12.287  19.881  0.00  0.00    +0.000 C 
ATOM     22  C   UNL     1       1.310  11.207  19.652  0.00  0.00    +0.000 C 
BRANCH  20  23
ATOM     23  O   UNL     1      -1.771  13.318  18.864  0.00  0.00    +0.000 OA
ATOM     24  H   UNL     1      -1.614  14.031  18.218  0.00  0.00    +0.000 HD
ENDBRANCH  20  23
BRANCH  21  25
ATOM     25  O   UNL     1       0.841  13.574  20.041  0.00  0.00    +0.000 OA
ATOM     26  H   UNL     1       1.654  13.565  19.495  0.00  0.00    +0.000 HD
ENDBRANCH  21  25
BRANCH  22  27
ATOM     27  O   UNL     1       2.180  11.698  18.602  0.00  0.00    +0.000 OA
ATOM     28  H   UNL     1       3.098  11.511  18.867  0.00  0.00    +0.000 HD
ENDBRANCH  22  27
BRANCH  19  29
ATOM     29  C   UNL     1      -2.440  10.843  17.474  0.00  0.00    +0.000 C 
BRANCH  29  30
ATOM     30  O   UNL     1      -2.154  11.661  16.346  0.00  0.00    +0.000 OA
ATOM     31  H   UNL     1      -1.790  11.070  15.652  0.00  0.00    +0.000 HD
ENDBRANCH  29  30
ENDBRANCH  19  29
ENDBRANCH   3  17
TORSDOF 9
ENDMDL
MODEL 5
REMARK VINA RESULT:      -7.0      3.730      8.521
REMARK  Name = 
REMARK  9 active torsions:
REMARK  status: ('A' for Active; 'I' for Inactive)
REMARK    1  A    between atoms: N_1  and  S_2
REMARK    2  A    between atoms: S_2  and  C_5
REMARK    3  A    between atoms: C_8  and  C_9
REMARK    4  A    between atoms: N_11  and  C_12
REMARK    5  A    between atoms: C_14  and  C_15
REMARK    6  A    between atoms: C_15  and  O_16
REMARK    7  A    between atoms: C_17  and  O_18
REMARK    8  A    between atoms: C_19  and  O_20
REMARK    9  A    between atoms: C_21  and  O_22
REMARK                            x       y       z     vdW  Elec       q    Type
REMARK                         _______ _______ _______ _____ _____    ______ ____
ROOT
ATOM      1  C   UNL     1       2.189   8.007  18.243  0.00  0.00    +0.000 C 
ATOM      2  O   UNL     1       2.657   8.255  17.138  0.00  0.00    +0.000 OA
ATOM      3  N   UNL     1       2.178   6.755  18.801  0.00  0.00    +0.000 N 
ATOM      4  H   UNL     1       1.954   6.652  19.776  0.00  0.00    +0.000 HD
ENDROOT
BRANCH   1   8
ATOM      5  C   UNL     1       0.389  10.995  20.726  0.00  0.00    +0.000 A 
ATOM      6  C   UNL     1       0.770  11.338  19.425  0.00  0.00    +0.000 A 
ATOM      7  C   UNL     1       1.400  10.377  18.622  0.00  0.00    +0.000 A 
ATOM      8  C   UNL     1       1.642   9.089  19.117  0.00  0.00    +0.000 A 
ATOM      9  C   UNL     1       1.333   8.785  20.452  0.00  0.00    +0.000 A 
ATOM     10  C   UNL     1       0.704   9.734  21.254  0.00  0.00    +0.000 A 
BRANCH   5  11
ATOM     11  S   UNL     1      -0.523  12.140  21.714  0.00  0.00    +0.000 S 
ATOM     12  O   UNL     1      -1.851  12.295  21.166  0.00  0.00    +0.000 OA
ATOM     13  O   UNL     1       0.315  13.266  22.037  0.00  0.00    +0.000 OA
BRANCH  11  14
ATOM     14  N   UNL     1      -0.701  11.269  23.131  0.00  0.00    +0.000 NA
ATOM     15  H   UNL     1      -1.615  10.795  23.149  0.00  0.00    +0.000 HD
ATOM     16  H   UNL     1      -0.528  11.851  23.950  0.00  0.00    +0.000 HD
ENDBRANCH  11  14
ENDBRANCH   5  11
ENDBRANCH   1   8
BRANCH   3  17
ATOM     17  C   UNL     1       2.728   5.592  18.158  0.00  0.00    +0.000 C 
ATOM     18  O   UNL     1       1.924   4.534  18.680  0.00  0.00    +0.000 OA
ATOM     19  C   UNL     1       2.302   3.237  18.204  0.00  0.00    +0.000 C 
ATOM     20  C   UNL     1       3.702   2.911  18.740  0.00  0.00    +0.000 C 
ATOM     21  C   UNL     1       4.677   3.945  18.143  0.00  0.00    +0.000 C 
ATOM     22  C   UNL     1       4.233   5.378  18.497  0.00  0.00    +0.000 C 
BRANCH  20  23
ATOM     23  O   UNL     1       4.075   1.565  18.443  0.00  0.00    +0.000 OA
ATOM     24  H   UNL     1       4.187   1.480  17.479  0.00  0.00    +0.000 HD
ENDBRANCH  20  23
BRANCH  21  25
ATOM     25  O   UNL     1       5.999   3.694  18.628  0.00  0.00    +0.000 OA
ATOM     26  H   UNL     1       6.195   4.404  19.273  0.00  0.00    +0.000 HD
ENDBRANCH  21  25
BRANCH  22  27
ATOM     27  O   UNL     1       4.498   5.561  19.910  0.00  0.00    +0.000 OA
ATOM     28  H   UNL     1       4.103   6.409  20.178  0.00  0.00    +0.000 HD
ENDBRANCH  22  27
BRANCH  19  29
ATOM     29  C   UNL     1       1.241   2.221  18.651  0.00  0.00    +0.000 C 
BRANCH  29  30
ATOM     30  O   UNL     1       0.406   2.712  19.692  0.00  0.00    +0.000 OA
ATOM     31  H   UNL     1      -0.031   3.521  19.348  0.00  0.00    +0.000 HD
ENDBRANCH  29  30
ENDBRANCH  19  29
ENDBRANCH   3  17
TORSDOF 9
ENDMDL
MODEL 6
REMARK VINA RESULT:      -7.0      3.154      8.706
REMARK  Name = 
REMARK  9 active torsions:
REMARK  status: ('A' for Active; 'I' for Inactive)
REMARK    1  A    between atoms: N_1  and  S_2
REMARK    2  A    between atoms: S_2  and  C_5
REMARK    3  A    between atoms: C_8  and  C_9
REMARK    4  A    between atoms: N_11  and  C_12
REMARK    5  A    between atoms: C_14  and  C_15
REMARK    6  A    between atoms: C_15  and  O_16
REMARK    7  A    between atoms: C_17  and  O_18
REMARK    8  A    between atoms: C_19  and  O_20
REMARK    9  A    between atoms: C_21  and  O_22
REMARK                            x       y       z     vdW  Elec       q    Type
REMARK                         _______ _______ _______ _____ _____    ______ ____
ROOT
ATOM      1  C   UNL     1       2.634   6.864  19.312  0.00  0.00    +0.000 C 
ATOM      2  O   UNL     1       2.377   5.972  20.110  0.00  0.00    +0.000 OA
ATOM      3  N   UNL     1       3.639   6.786  18.382  0.00  0.00    +0.000 N 
ATOM      4  H   UNL     1       3.677   7.464  17.639  0.00  0.00    +0.000 HD
ENDROOT
BRANCH   1   8
ATOM      5  C   UNL     1       0.063  10.284  19.136  0.00  0.00    +0.000 A 
ATOM      6  C   UNL     1       0.707   9.862  17.969  0.00  0.00    +0.000 A 
ATOM      7  C   UNL     1       1.584   8.770  18.028  0.00  0.00    +0.000 A 
ATOM      8  C   UNL     1       1.810   8.109  19.243  0.00  0.00    +0.000 A 
ATOM      9  C   UNL     1       1.226   8.596  20.422  0.00  0.00    +0.000 A 
ATOM     10  C   UNL     1       0.350   9.678  20.368  0.00  0.00    +0.000 A 
BRANCH   5  11
ATOM     11  S   UNL     1      -1.146  11.569  19.067  0.00  0.00    +0.000 S 
ATOM     12  O   UNL     1      -0.697  12.602  18.162  0.00  0.00    +0.000 OA
ATOM     13  O   UNL     1      -1.613  11.858  20.399  0.00  0.00    +0.000 OA
BRANCH  11  14
ATOM     14  N   UNL     1      -2.404  10.784  18.293  0.00  0.00    +0.000 NA
ATOM     15  H   UNL     1      -3.121  10.497  18.972  0.00  0.00    +0.000 HD
ATOM     16  H   UNL     1      -2.062  10.017  17.713  0.00  0.00    +0.000 HD
ENDBRANCH  11  14
ENDBRANCH   5  11
ENDBRANCH   1   8
BRANCH   3  17
ATOM     17  C   UNL     1       4.494   5.640  18.229  0.00  0.00    +0.000 C 
ATOM     18  O   UNL     1       5.746   6.115  18.727  0.00  0.00    +0.000 OA
ATOM     19  C   UNL     1       6.798   5.145  18.652  0.00  0.00    +0.000 C 
ATOM     20  C   UNL     1       7.094   4.860  17.175  0.00  0.00    +0.000 C 
ATOM     21  C   UNL     1       5.822   4.238  16.562  0.00  0.00    +0.000 C 
ATOM     22  C   UNL     1       4.615   5.177  16.747  0.00  0.00    +0.000 C 
BRANCH  20  23
ATOM     23  O   UNL     1       8.244   4.027  17.023  0.00  0.00    +0.000 OA
ATOM     24  H   UNL     1       8.044   3.152  17.401  0.00  0.00    +0.000 HD
ENDBRANCH  20  23
BRANCH  21  25
ATOM     25  O   UNL     1       6.042   3.968  15.174  0.00  0.00    +0.000 OA
ATOM     26  H   UNL     1       6.103   2.995  15.089  0.00  0.00    +0.000 HD
ENDBRANCH  21  25
BRANCH  22  27
ATOM     27  O   UNL     1       4.812   6.296  15.847  0.00  0.00    +0.000 OA
ATOM     28  H   UNL     1       5.766   6.490  15.820  0.00  0.00    +0.000 HD
ENDBRANCH  22  27
BRANCH  19  29
ATOM     29  C   UNL     1       8.019   5.686  19.411  0.00  0.00    +0.000 C 
BRANCH  29  30
ATOM     30  O   UNL     1       8.038   5.302  20.779  0.00  0.00    +0.000 OA
ATOM     31  H   UNL     1       8.293   4.354  20.805  0.00  0.00    +0.000 HD
ENDBRANCH  29  30
ENDBRANCH  19  29
ENDBRANCH   3  17
TORSDOF 9
ENDMDL
MODEL 7
REMARK VINA RESULT:      -6.9      3.124      8.662
REMARK  Name = 
REMARK  9 active torsions:
REMARK  status: ('A' for Active; 'I' for Inactive)
REMARK    1  A    between atoms: N_1  and  S_2
REMARK    2  A    between atoms: S_2  and  C_5
REMARK    3  A    between atoms: C_8  and  C_9
REMARK    4  A    between atoms: N_11  and  C_12
REMARK    5  A    between atoms: C_14  and  C_15
REMARK    6  A    between atoms: C_15  and  O_16
REMARK    7  A    between atoms: C_17  and  O_18
REMARK    8  A    between atoms: C_19  and  O_20
REMARK    9  A    between atoms: C_21  and  O_22
REMARK                            x       y       z     vdW  Elec       q    Type
REMARK                         _______ _______ _______ _____ _____    ______ ____
ROOT
ATOM      1  C   UNL     1       2.594   6.869  19.327  0.00  0.00    +0.000 C 
ATOM      2  O   UNL     1       2.296   5.958  20.090  0.00  0.00    +0.000 OA
ATOM      3  N   UNL     1       3.636   6.806  18.438  0.00  0.00    +0.000 N 
ATOM      4  H   UNL     1       3.711   7.503  17.716  0.00  0.00    +0.000 HD
ENDROOT
BRANCH   1   8
ATOM      5  C   UNL     1       0.492  10.592  19.093  0.00  0.00    +0.000 A 
ATOM      6  C   UNL     1       0.600   9.953  20.332  0.00  0.00    +0.000 A 
ATOM      7  C   UNL     1       1.248   8.713  20.409  0.00  0.00    +0.000 A 
ATOM      8  C   UNL     1       1.784   8.122  19.257  0.00  0.00    +0.000 A 
ATOM      9  C   UNL     1       1.593   8.732  18.007  0.00  0.00    +0.000 A 
ATOM     10  C   UNL     1       0.953   9.966  17.926  0.00  0.00    +0.000 A 
BRANCH   5  11
ATOM     11  S   UNL     1      -0.201  12.213  18.988  0.00  0.00    +0.000 S 
ATOM     12  O   UNL     1       0.839  13.158  18.649  0.00  0.00    +0.000 OA
ATOM     13  O   UNL     1      -1.102  12.420  20.092  0.00  0.00    +0.000 OA
BRANCH  11  14
ATOM     14  N   UNL     1      -1.159  12.063  17.625  0.00  0.00    +0.000 NA
ATOM     15  H   UNL     1      -1.035  11.135  17.199  0.00  0.00    +0.000 HD
ATOM     16  H   UNL     1      -1.004  12.833  16.975  0.00  0.00    +0.000 HD
ENDBRANCH  11  14
ENDBRANCH   5  11
ENDBRANCH   1   8
BRANCH   3  17
ATOM     17  C   UNL     1       4.488   5.657  18.291  0.00  0.00    +0.000 C 
ATOM     18  O   UNL     1       5.744   6.133  18.779  0.00  0.00    +0.000 OA
ATOM     19  C   UNL     1       6.793   5.159  18.707  0.00  0.00    +0.000 C 
ATOM     20  C   UNL     1       7.081   4.862  17.231  0.00  0.00    +0.000 C 
ATOM     21  C   UNL     1       5.805   4.237  16.630  0.00  0.00    +0.000 C 
ATOM     22  C   UNL     1       4.601   5.180  16.813  0.00  0.00    +0.000 C 
BRANCH  20  23
ATOM     23  O   UNL     1       8.228   4.025  17.080  0.00  0.00    +0.000 OA
ATOM     24  H   UNL     1       8.515   3.731  17.964  0.00  0.00    +0.000 HD
ENDBRANCH  20  23
BRANCH  21  25
ATOM     25  O   UNL     1       6.017   3.955  15.243  0.00  0.00    +0.000 OA
ATOM     26  H   UNL     1       6.089   2.982  15.168  0.00  0.00    +0.000 HD
ENDBRANCH  21  25
BRANCH  22  27
ATOM     27  O   UNL     1       4.796   6.291  15.902  0.00  0.00    +0.000 OA
ATOM     28  H   UNL     1       4.176   6.997  16.158  0.00  0.00    +0.000 HD
ENDBRANCH  22  27
BRANCH  19  29
ATOM     29  C   UNL     1       8.019   5.705  19.455  0.00  0.00    +0.000 C 
BRANCH  29  30
ATOM     30  O   UNL     1       8.086   5.267  20.806  0.00  0.00    +0.000 OA
ATOM     31  H   UNL     1       7.742   6.001  21.360  0.00  0.00    +0.000 HD
ENDBRANCH  29  30
ENDBRANCH  19  29
ENDBRANCH   3  17
TORSDOF 9
ENDMDL
MODEL 8
REMARK VINA RESULT:      -6.9      3.818      8.628
REMARK  Name = 
REMARK  9 active torsions:
REMARK  status: ('A' for Active; 'I' for Inactive)
REMARK    1  A    between atoms: N_1  and  S_2
REMARK    2  A    between atoms: S_2  and  C_5
REMARK    3  A    between atoms: C_8  and  C_9
REMARK    4  A    between atoms: N_11  and  C_12
REMARK    5  A    between atoms: C_14  and  C_15
REMARK    6  A    between atoms: C_15  and  O_16
REMARK    7  A    between atoms: C_17  and  O_18
REMARK    8  A    between atoms: C_19  and  O_20
REMARK    9  A    between atoms: C_21  and  O_22
REMARK                            x       y       z     vdW  Elec       q    Type
REMARK                         _______ _______ _______ _____ _____    ______ ____
ROOT
ATOM      1  C   UNL     1       2.139   8.136  18.346  0.00  0.00    +0.000 C 
ATOM      2  O   UNL     1       2.495   8.471  17.223  0.00  0.00    +0.000 OA
ATOM      3  N   UNL     1       2.281   6.865  18.841  0.00  0.00    +0.000 N 
ATOM      4  H   UNL     1       2.145   6.702  19.824  0.00  0.00    +0.000 HD
ENDROOT
BRANCH   1   8
ATOM      5  C   UNL     1       0.287  10.848  21.094  0.00  0.00    +0.000 A 
ATOM      6  C   UNL     1       0.578  11.291  19.800  0.00  0.00    +0.000 A 
ATOM      7  C   UNL     1       1.224  10.423  18.909  0.00  0.00    +0.000 A 
ATOM      8  C   UNL     1       1.572   9.126  19.310  0.00  0.00    +0.000 A 
ATOM      9  C   UNL     1       1.352   8.725  20.637  0.00  0.00    +0.000 A 
ATOM     10  C   UNL     1       0.707   9.581  21.526  0.00  0.00    +0.000 A 
BRANCH   5  11
ATOM     11  S   UNL     1      -0.642  11.871  22.194  0.00  0.00    +0.000 S 
ATOM     12  O   UNL     1       0.005  13.157  22.314  0.00  0.00    +0.000 OA
ATOM     13  O   UNL     1      -1.044  11.097  23.340  0.00  0.00    +0.000 OA
BRANCH  11  14
ATOM     14  N   UNL     1      -2.030  12.127  21.295  0.00  0.00    +0.000 NA
ATOM     15  H   UNL     1      -1.927  11.725  20.354  0.00  0.00    +0.000 HD
ATOM     16  H   UNL     1      -2.292  13.112  21.291  0.00  0.00    +0.000 HD
ENDBRANCH  11  14
ENDBRANCH   5  11
ENDBRANCH   1   8
BRANCH   3  17
ATOM     17  C   UNL     1       2.877   5.786  18.102  0.00  0.00    +0.000 C 
ATOM     18  O   UNL     1       2.075   4.666  18.479  0.00  0.00    +0.000 OA
ATOM     19  C   UNL     1       2.496   3.432  17.885  0.00  0.00    +0.000 C 
ATOM     20  C   UNL     1       3.880   3.073  18.439  0.00  0.00    +0.000 C 
ATOM     21  C   UNL     1       4.857   4.180  17.990  0.00  0.00    +0.000 C 
ATOM     22  C   UNL     1       4.373   5.560  18.474  0.00  0.00    +0.000 C 
BRANCH  20  23
ATOM     23  O   UNL     1       4.290   1.772  18.017  0.00  0.00    +0.000 OA
ATOM     24  H   UNL     1       5.224   1.646  18.265  0.00  0.00    +0.000 HD
ENDBRANCH  20  23
BRANCH  21  25
ATOM     25  O   UNL     1       6.165   3.899  18.498  0.00  0.00    +0.000 OA
ATOM     26  H   UNL     1       6.399   4.648  19.084  0.00  0.00    +0.000 HD
ENDBRANCH  21  25
BRANCH  22  27
ATOM     27  O   UNL     1       4.582   5.598  19.908  0.00  0.00    +0.000 OA
ATOM     28  H   UNL     1       3.959   4.970  20.315  0.00  0.00    +0.000 HD
ENDBRANCH  22  27
BRANCH  19  29
ATOM     29  C   UNL     1       1.439   2.359  18.183  0.00  0.00    +0.000 C 
BRANCH  29  30
ATOM     30  O   UNL     1       1.832   1.461  19.213  0.00  0.00    +0.000 OA
ATOM     31  H   UNL     1       1.120   0.789  19.290  0.00  0.00    +0.000 HD
ENDBRANCH  29  30
ENDBRANCH  19  29
ENDBRANCH   3  17
TORSDOF 9
ENDMDL
MODEL 9
REMARK VINA RESULT:      -6.9      2.390      2.676
REMARK  Name = 
REMARK  9 active torsions:
REMARK  status: ('A' for Active; 'I' for Inactive)
REMARK    1  A    between atoms: N_1  and  S_2
REMARK    2  A    between atoms: S_2  and  C_5
REMARK    3  A    between atoms: C_8  and  C_9
REMARK    4  A    between atoms: N_11  and  C_12
REMARK    5  A    between atoms: C_14  and  C_15
REMARK    6  A    between atoms: C_15  and  O_16
REMARK    7  A    between atoms: C_17  and  O_18
REMARK    8  A    between atoms: C_19  and  O_20
REMARK    9  A    between atoms: C_21  and  O_22
REMARK                            x       y       z     vdW  Elec       q    Type
REMARK                         _______ _______ _______ _____ _____    ______ ____
ROOT
ATOM      1  C   UNL     1       1.554   8.190  20.429  0.00  0.00    +0.000 C 
ATOM      2  O   UNL     1       1.522   8.471  21.621  0.00  0.00    +0.000 OA
ATOM      3  N   UNL     1       1.219   9.069  19.431  0.00  0.00    +0.000 N 
ATOM      4  H   UNL     1       1.445   8.841  18.478  0.00  0.00    +0.000 HD
ENDROOT
BRANCH   1   8
ATOM      5  C   UNL     1       3.124   4.383  19.256  0.00  0.00    +0.000 A 
ATOM      6  C   UNL     1       3.341   5.488  18.427  0.00  0.00    +0.000 A 
ATOM      7  C   UNL     1       2.793   6.728  18.783  0.00  0.00    +0.000 A 
ATOM      8  C   UNL     1       2.038   6.858  19.956  0.00  0.00    +0.000 A 
ATOM      9  C   UNL     1       1.755   5.724  20.732  0.00  0.00    +0.000 A 
ATOM     10  C   UNL     1       2.300   4.489  20.386  0.00  0.00    +0.000 A 
BRANCH   5  11
ATOM     11  S   UNL     1       3.910   2.841  18.904  0.00  0.00    +0.000 S 
ATOM     12  O   UNL     1       2.920   1.889  18.456  0.00  0.00    +0.000 OA
ATOM     13  O   UNL     1       4.857   2.539  19.946  0.00  0.00    +0.000 OA
BRANCH  11  14
ATOM     14  N   UNL     1       4.814   3.245  17.556  0.00  0.00    +0.000 NA
ATOM     15  H   UNL     1       5.031   2.404  17.004  0.00  0.00    +0.000 HD
ATOM     16  H   UNL     1       5.638   3.789  17.810  0.00  0.00    +0.000 HD
ENDBRANCH  11  14
ENDBRANCH   5  11
ENDBRANCH   1   8
BRANCH   3  17
ATOM     17  C   UNL     1       0.805  10.425  19.670  0.00  0.00    +0.000 C 
ATOM     18  O   UNL     1      -0.486  10.472  19.061  0.00  0.00    +0.000 OA
ATOM     19  C   UNL     1      -1.111  11.759  19.139  0.00  0.00    +0.000 C 
ATOM     20  C   UNL     1      -0.292  12.749  18.303  0.00  0.00    +0.000 C 
ATOM     21  C   UNL     1       1.104  12.854  18.949  0.00  0.00    +0.000 C 
ATOM     22  C   UNL     1       1.770  11.466  19.031  0.00  0.00    +0.000 C 
BRANCH  20  23
ATOM     23  O   UNL     1      -0.948  14.013  18.199  0.00  0.00    +0.000 OA
ATOM     24  H   UNL     1      -1.702  14.023  18.817  0.00  0.00    +0.000 HD
ENDBRANCH  20  23
BRANCH  21  25
ATOM     25  O   UNL     1       1.916  13.757  18.192  0.00  0.00    +0.000 OA
ATOM     26  H   UNL     1       1.385  14.015  17.411  0.00  0.00    +0.000 HD
ENDBRANCH  21  25
BRANCH  22  27
ATOM     27  O   UNL     1       2.140  11.099  17.678  0.00  0.00    +0.000 OA
ATOM     28  H   UNL     1       1.553  10.374  17.398  0.00  0.00    +0.000 HD
ENDBRANCH  22  27
BRANCH  19  29
ATOM     29  C   UNL     1      -2.563  11.628  18.656  0.00  0.00    +0.000 C 
BRANCH  29  30
ATOM     30  O   UNL     1      -2.726  11.970  17.285  0.00  0.00    +0.000 OA
ATOM     31  H   UNL     1      -2.828  11.126  16.793  0.00  0.00    +0.000 HD
ENDBRANCH  29  30
ENDBRANCH  19  29
ENDBRANCH   3  17
TORSDOF 9
ENDMDL
