MODEL 1
REMARK VINA RESULT:      -7.5      0.000      0.000
REMARK  Name = 
REMARK  11 active torsions:
REMARK  status: ('A' for Active; 'I' for Inactive)
REMARK    1  A    between atoms: C_1  and  N_2
REMARK    2  A    between atoms: N_2  and  C_3
REMARK    3  A    between atoms: N_2  and  S_24
REMARK    4  A    between atoms: C_6  and  O_7
REMARK    5  A    between atoms: O_7  and  C_8
REMARK    6  A    between atoms: C_8  and  C_9
REMARK    7  A    between atoms: C_9  and  O_11
REMARK    8  A    between atoms: O_11  and  C_12
REMARK    9  A    between atoms: C_12  and  C_13
REMARK   10  A    between atoms: N_15  and  C_16
REMARK   11  A    between atoms: S_24  and  C_27
REMARK                            x       y       z     vdW  Elec       q    Type
REMARK                         _______ _______ _______ _____ _____    ______ ____
ROOT
ATOM      1  C   UNL     1       0.713   9.646  19.726  0.00  0.00    +0.000 A 
ATOM      2  C   UNL     1       1.502   9.143  18.691  0.00  0.00    +0.000 A 
ATOM      3  C   UNL     1       2.122   7.892  18.818  0.00  0.00    +0.000 A 
ATOM      4  C   UNL     1       2.002   7.148  19.994  0.00  0.00    +0.000 A 
ATOM      5  C   UNL     1       1.221   7.654  21.033  0.00  0.00    +0.000 A 
ATOM      6  C   UNL     1       0.572   8.897  20.896  0.00  0.00    +0.000 A 
ENDROOT
BRANCH   1   8
ATOM      7  C   UNL     1      -0.523  11.285  18.282  0.00  0.00    +0.000 C 
ATOM      8  N   UNL     1       0.081  10.920  19.565  0.00  0.00    +0.000 N 
BRANCH   8   9
ATOM      9  S   UNL     1       0.449  12.183  20.634  0.00  0.00    +0.000 S 
ATOM     10  O   UNL     1       1.627  11.807  21.390  0.00  0.00    +0.000 OA
ATOM     11  O   UNL     1       0.408  13.440  19.907  0.00  0.00    +0.000 OA
BRANCH   9  12
ATOM     12  C   UNL     1      -0.832  12.372  21.870  0.00  0.00    +0.000 A 
ATOM     13  C   UNL     1      -1.372  11.476  22.778  0.00  0.00    +0.000 A 
ATOM     14  C   UNL     1      -2.509  12.002  23.457  0.00  0.00    +0.000 A 
ATOM     15  C   UNL     1      -2.760  13.308  23.101  0.00  0.00    +0.000 A 
ATOM     16  S   UNL     1      -1.644  13.878  21.935  0.00  0.00    +0.000 S 
ENDBRANCH   9  12
ENDBRANCH   8   9
ENDBRANCH   1   8
BRANCH   4  17
ATOM     17  O   UNL     1       2.637   5.935  19.975  0.00  0.00    +0.000 OA
BRANCH  17  18
ATOM     18  C   UNL     1       2.353   5.019  21.032  0.00  0.00    +0.000 C 
BRANCH  18  19
ATOM     19  C   UNL     1       1.473   3.869  20.531  0.00  0.00    +0.000 C 
ATOM     20  O   UNL     1       1.176   2.859  21.158  0.00  0.00    +0.000 OA
BRANCH  19  21
ATOM     21  O   UNL     1       1.099   4.090  19.232  0.00  0.00    +0.000 OA
BRANCH  21  22
ATOM     22  C   UNL     1       1.328   2.974  18.348  0.00  0.00    +0.000 C 
BRANCH  22  23
ATOM     23  C   UNL     1       2.824   2.932  18.032  0.00  0.00    +0.000 C 
ATOM     24  O   UNL     1       3.456   1.890  18.216  0.00  0.00    +0.000 OA
ATOM     25  N   UNL     1       3.368   4.134  17.595  0.00  0.00    +0.000 N 
ATOM     26  H   UNL     1       2.806   4.975  17.658  0.00  0.00    +0.000 HD
BRANCH  25  27
ATOM     27  C   UNL     1       4.721   4.299  17.194  0.00  0.00    +0.000 A 
ATOM     28  C   UNL     1       5.114   4.193  15.857  0.00  0.00    +0.000 A 
ATOM     29  C   UNL     1       6.449   4.338  15.481  0.00  0.00    +0.000 A 
ATOM     30  C   UNL     1       7.416   4.598  16.446  0.00  0.00    +0.000 A 
ATOM     31  C   UNL     1       7.040   4.724  17.779  0.00  0.00    +0.000 A 
ATOM     32  C   UNL     1       5.696   4.585  18.156  0.00  0.00    +0.000 A 
ENDBRANCH  25  27
ENDBRANCH  22  23
ENDBRANCH  21  22
ENDBRANCH  19  21
ENDBRANCH  18  19
ENDBRANCH  17  18
ENDBRANCH   4  17
TORSDOF 10
ENDMDL
MODEL 2
REMARK VINA RESULT:      -7.5      2.355      4.366
REMARK  Name = 
REMARK  11 active torsions:
REMARK  status: ('A' for Active; 'I' for Inactive)
REMARK    1  A    between atoms: C_1  and  N_2
REMARK    2  A    between atoms: N_2  and  C_3
REMARK    3  A    between atoms: N_2  and  S_24
REMARK    4  A    between atoms: C_6  and  O_7
REMARK    5  A    between atoms: O_7  and  C_8
REMARK    6  A    between atoms: C_8  and  C_9
REMARK    7  A    between atoms: C_9  and  O_11
REMARK    8  A    between atoms: O_11  and  C_12
REMARK    9  A    between atoms: C_12  and  C_13
REMARK   10  A    between atoms: N_15  and  C_16
REMARK   11  A    between atoms: S_24  and  C_27
REMARK                            x       y       z     vdW  Elec       q    Type
REMARK                         _______ _______ _______ _____ _____    ______ ____
ROOT
ATOM      1  C   UNL     1       0.735   9.469  19.409  0.00  0.00    +0.000 A 
ATOM      2  C   UNL     1       1.297   9.564  18.136  0.00  0.00    +0.000 A 
ATOM      3  C   UNL     1       2.262   8.638  17.717  0.00  0.00    +0.000 A 
ATOM      4  C   UNL     1       2.712   7.633  18.576  0.00  0.00    +0.000 A 
ATOM      5  C   UNL     1       2.158   7.542  19.853  0.00  0.00    +0.000 A 
ATOM      6  C   UNL     1       1.165   8.453  20.265  0.00  0.00    +0.000 A 
ENDROOT
BRANCH   1   8
ATOM      7  C   UNL     1      -1.434  10.651  18.965  0.00  0.00    +0.000 C 
ATOM      8  N   UNL     1      -0.258  10.420  19.806  0.00  0.00    +0.000 N 
BRANCH   8   9
ATOM      9  S   UNL     1       0.132  11.620  20.938  0.00  0.00    +0.000 S 
ATOM     10  O   UNL     1      -1.059  11.920  21.707  0.00  0.00    +0.000 OA
ATOM     11  O   UNL     1       1.368  11.251  21.607  0.00  0.00    +0.000 OA
BRANCH   9  12
ATOM     12  C   UNL     1       0.539  13.162  20.125  0.00  0.00    +0.000 A 
ATOM     13  C   UNL     1      -0.207  14.307  19.900  0.00  0.00    +0.000 A 
ATOM     14  C   UNL     1       0.457  15.234  19.046  0.00  0.00    +0.000 A 
ATOM     15  C   UNL     1       1.718  14.804  18.703  0.00  0.00    +0.000 A 
ATOM     16  S   UNL     1       2.080  13.277  19.388  0.00  0.00    +0.000 S 
ENDBRANCH   9  12
ENDBRANCH   8   9
ENDBRANCH   1   8
BRANCH   4  17
ATOM     17  O   UNL     1       3.637   6.783  18.032  0.00  0.00    +0.000 OA
BRANCH  17  18
ATOM     18  C   UNL     1       4.277   7.181  16.821  0.00  0.00    +0.000 C 
BRANCH  18  19
ATOM     19  C   UNL     1       5.718   6.664  16.772  0.00  0.00    +0.000 C 
ATOM     20  O   UNL     1       6.733   7.338  16.895  0.00  0.00    +0.000 OA
BRANCH  19  21
ATOM     21  O   UNL     1       5.729   5.320  16.505  0.00  0.00    +0.000 OA
BRANCH  21  22
ATOM     22  C   UNL     1       6.417   4.524  17.491  0.00  0.00    +0.000 C 
BRANCH  22  23
ATOM     23  C   UNL     1       5.483   4.361  18.690  0.00  0.00    +0.000 C 
ATOM     24  O   UNL     1       5.824   4.796  19.792  0.00  0.00    +0.000 OA
ATOM     25  N   UNL     1       4.307   3.665  18.432  0.00  0.00    +0.000 N 
ATOM     26  H   UNL     1       4.209   3.188  17.542  0.00  0.00    +0.000 HD
BRANCH  25  27
ATOM     27  C   UNL     1       3.279   3.452  19.389  0.00  0.00    +0.000 A 
ATOM     28  C   UNL     1       3.504   2.736  20.568  0.00  0.00    +0.000 A 
ATOM     29  C   UNL     1       2.480   2.518  21.489  0.00  0.00    +0.000 A 
ATOM     30  C   UNL     1       1.208   3.024  21.242  0.00  0.00    +0.000 A 
ATOM     31  C   UNL     1       0.972   3.754  20.083  0.00  0.00    +0.000 A 
ATOM     32  C   UNL     1       2.003   3.979  19.160  0.00  0.00    +0.000 A 
ENDBRANCH  25  27
ENDBRANCH  22  23
ENDBRANCH  21  22
ENDBRANCH  19  21
ENDBRANCH  18  19
ENDBRANCH  17  18
ENDBRANCH   4  17
TORSDOF 10
ENDMDL
MODEL 3
REMARK VINA RESULT:      -7.4      1.452      1.817
REMARK  Name = 
REMARK  11 active torsions:
REMARK  status: ('A' for Active; 'I' for Inactive)
REMARK    1  A    between atoms: C_1  and  N_2
REMARK    2  A    between atoms: N_2  and  C_3
REMARK    3  A    between atoms: N_2  and  S_24
REMARK    4  A    between atoms: C_6  and  O_7
REMARK    5  A    between atoms: O_7  and  C_8
REMARK    6  A    between atoms: C_8  and  C_9
REMARK    7  A    between atoms: C_9  and  O_11
REMARK    8  A    between atoms: O_11  and  C_12
REMARK    9  A    between atoms: C_12  and  C_13
REMARK   10  A    between atoms: N_15  and  C_16
REMARK   11  A    between atoms: S_24  and  C_27
REMARK                            x       y       z     vdW  Elec       q    Type
REMARK                         _______ _______ _______ _____ _____    ______ ____
ROOT
ATOM      1  C   UNL     1       1.462   9.462  18.883  0.00  0.00    +0.000 A 
ATOM      2  C   UNL     1       1.329   8.934  20.168  0.00  0.00    +0.000 A 
ATOM      3  C   UNL     1       1.733   7.620  20.438  0.00  0.00    +0.000 A 
ATOM      4  C   UNL     1       2.232   6.800  19.424  0.00  0.00    +0.000 A 
ATOM      5  C   UNL     1       2.358   7.323  18.136  0.00  0.00    +0.000 A 
ATOM      6  C   UNL     1       1.981   8.654  17.869  0.00  0.00    +0.000 A 
ENDROOT
BRANCH   1   8
ATOM      7  C   UNL     1       2.048  11.886  18.597  0.00  0.00    +0.000 C 
ATOM      8  N   UNL     1       1.054  10.811  18.638  0.00  0.00    +0.000 N 
BRANCH   8   9
ATOM      9  S   UNL     1      -0.561  11.261  18.894  0.00  0.00    +0.000 S 
ATOM     10  O   UNL     1      -0.852  12.400  18.047  0.00  0.00    +0.000 OA
ATOM     11  O   UNL     1      -1.393  10.072  18.843  0.00  0.00    +0.000 OA
BRANCH   9  12
ATOM     12  C   UNL     1      -0.803  11.870  20.560  0.00  0.00    +0.000 A 
ATOM     13  C   UNL     1      -0.708  11.241  21.790  0.00  0.00    +0.000 A 
ATOM     14  C   UNL     1      -1.164  12.062  22.862  0.00  0.00    +0.000 A 
ATOM     15  C   UNL     1      -1.525  13.317  22.428  0.00  0.00    +0.000 A 
ATOM     16  S   UNL     1      -1.339  13.486  20.735  0.00  0.00    +0.000 S 
ENDBRANCH   9  12
ENDBRANCH   8   9
ENDBRANCH   1   8
BRANCH   4  17
ATOM     17  O   UNL     1       2.612   5.548  19.829  0.00  0.00    +0.000 OA
BRANCH  17  18
ATOM     18  C   UNL     1       2.044   5.038  21.034  0.00  0.00    +0.000 C 
BRANCH  18  19
ATOM     19  C   UNL     1       1.396   3.671  20.792  0.00  0.00    +0.000 C 
ATOM     20  O   UNL     1       1.189   2.808  21.636  0.00  0.00    +0.000 OA
BRANCH  19  21
ATOM     21  O   UNL     1       1.125   3.506  19.459  0.00  0.00    +0.000 OA
BRANCH  21  22
ATOM     22  C   UNL     1       1.923   2.495  18.810  0.00  0.00    +0.000 C 
BRANCH  22  23
ATOM     23  C   UNL     1       2.718   3.176  17.695  0.00  0.00    +0.000 C 
ATOM     24  O   UNL     1       2.180   3.391  16.608  0.00  0.00    +0.000 OA
ATOM     25  N   UNL     1       4.044   3.458  18.005  0.00  0.00    +0.000 N 
ATOM     26  H   UNL     1       4.438   3.073  18.855  0.00  0.00    +0.000 HD
BRANCH  25  27
ATOM     27  C   UNL     1       4.939   4.138  17.135  0.00  0.00    +0.000 A 
ATOM     28  C   UNL     1       5.442   3.539  15.976  0.00  0.00    +0.000 A 
ATOM     29  C   UNL     1       6.334   4.212  15.143  0.00  0.00    +0.000 A 
ATOM     30  C   UNL     1       6.735   5.505  15.459  0.00  0.00    +0.000 A 
ATOM     31  C   UNL     1       6.231   6.123  16.597  0.00  0.00    +0.000 A 
ATOM     32  C   UNL     1       5.328   5.449  17.432  0.00  0.00    +0.000 A 
ENDBRANCH  25  27
ENDBRANCH  22  23
ENDBRANCH  21  22
ENDBRANCH  19  21
ENDBRANCH  18  19
ENDBRANCH  17  18
ENDBRANCH   4  17
TORSDOF 10
ENDMDL
MODEL 4
REMARK VINA RESULT:      -7.4      1.787      3.717
REMARK  Name = 
REMARK  11 active torsions:
REMARK  status: ('A' for Active; 'I' for Inactive)
REMARK    1  A    between atoms: C_1  and  N_2
REMARK    2  A    between atoms: N_2  and  C_3
REMARK    3  A    between atoms: N_2  and  S_24
REMARK    4  A    between atoms: C_6  and  O_7
REMARK    5  A    between atoms: O_7  and  C_8
REMARK    6  A    between atoms: C_8  and  C_9
REMARK    7  A    between atoms: C_9  and  O_11
REMARK    8  A    between atoms: O_11  and  C_12
REMARK    9  A    between atoms: C_12  and  C_13
REMARK   10  A    between atoms: N_15  and  C_16
REMARK   11  A    between atoms: S_24  and  C_27
REMARK                            x       y       z     vdW  Elec       q    Type
REMARK                         _______ _______ _______ _____ _____    ______ ____
ROOT
ATOM      1  C   UNL     1       0.801   9.496  19.355  0.00  0.00    +0.000 A 
ATOM      2  C   UNL     1       1.362   9.592  18.081  0.00  0.00    +0.000 A 
ATOM      3  C   UNL     1       2.295   8.642  17.645  0.00  0.00    +0.000 A 
ATOM      4  C   UNL     1       2.716   7.610  18.488  0.00  0.00    +0.000 A 
ATOM      5  C   UNL     1       2.163   7.518  19.766  0.00  0.00    +0.000 A 
ATOM      6  C   UNL     1       1.201   8.454  20.195  0.00  0.00    +0.000 A 
ENDROOT
BRANCH   1   8
ATOM      7  C   UNL     1      -1.436  10.596  19.063  0.00  0.00    +0.000 C 
ATOM      8  N   UNL     1      -0.159  10.473  19.770  0.00  0.00    +0.000 N 
BRANCH   8   9
ATOM      9  S   UNL     1       0.337  11.795  20.708  0.00  0.00    +0.000 S 
ATOM     10  O   UNL     1       1.439  11.366  21.546  0.00  0.00    +0.000 OA
ATOM     11  O   UNL     1       0.473  12.957  19.847  0.00  0.00    +0.000 OA
BRANCH   9  12
ATOM     12  C   UNL     1      -0.942  12.278  21.864  0.00  0.00    +0.000 A 
ATOM     13  C   UNL     1      -1.663  11.548  22.794  0.00  0.00    +0.000 A 
ATOM     14  C   UNL     1      -2.720  12.300  23.382  0.00  0.00    +0.000 A 
ATOM     15  C   UNL     1      -2.730  13.603  22.937  0.00  0.00    +0.000 A 
ATOM     16  S   UNL     1      -1.487  13.899  21.798  0.00  0.00    +0.000 S 
ENDBRANCH   9  12
ENDBRANCH   8   9
ENDBRANCH   1   8
BRANCH   4  17
ATOM     17  O   UNL     1       3.611   6.738  17.929  0.00  0.00    +0.000 OA
BRANCH  17  18
ATOM     18  C   UNL     1       4.735   7.287  17.242  0.00  0.00    +0.000 C 
BRANCH  18  19
ATOM     19  C   UNL     1       5.315   6.272  16.253  0.00  0.00    +0.000 C 
ATOM     20  O   UNL     1       5.392   6.408  15.038  0.00  0.00    +0.000 OA
BRANCH  19  21
ATOM     21  O   UNL     1       5.695   5.133  16.913  0.00  0.00    +0.000 OA
BRANCH  21  22
ATOM     22  C   UNL     1       5.142   3.918  16.367  0.00  0.00    +0.000 C 
BRANCH  22  23
ATOM     23  C   UNL     1       3.977   3.494  17.262  0.00  0.00    +0.000 C 
ATOM     24  O   UNL     1       3.031   2.872  16.777  0.00  0.00    +0.000 OA
ATOM     25  N   UNL     1       4.072   3.907  18.587  0.00  0.00    +0.000 N 
ATOM     26  H   UNL     1       4.795   4.570  18.840  0.00  0.00    +0.000 HD
BRANCH  25  27
ATOM     27  C   UNL     1       3.129   3.572  19.596  0.00  0.00    +0.000 A 
ATOM     28  C   UNL     1       3.442   2.695  20.638  0.00  0.00    +0.000 A 
ATOM     29  C   UNL     1       2.500   2.361  21.611  0.00  0.00    +0.000 A 
ATOM     30  C   UNL     1       1.223   2.909  21.555  0.00  0.00    +0.000 A 
ATOM     31  C   UNL     1       0.901   3.798  20.536  0.00  0.00    +0.000 A 
ATOM     32  C   UNL     1       1.850   4.139  19.562  0.00  0.00    +0.000 A 
ENDBRANCH  25  27
ENDBRANCH  22  23
ENDBRANCH  21  22
ENDBRANCH  19  21
ENDBRANCH  18  19
ENDBRANCH  17  18
ENDBRANCH   4  17
TORSDOF 10
ENDMDL
MODEL 5
REMARK VINA RESULT:      -7.3      3.714     10.056
REMARK  Name = 
REMARK  11 active torsions:
REMARK  status: ('A' for Active; 'I' for Inactive)
REMARK    1  A    between atoms: C_1  and  N_2
REMARK    2  A    between atoms: N_2  and  C_3
REMARK    3  A    between atoms: N_2  and  S_24
REMARK    4  A    between atoms: C_6  and  O_7
REMARK    5  A    between atoms: O_7  and  C_8
REMARK    6  A    between atoms: C_8  and  C_9
REMARK    7  A    between atoms: C_9  and  O_11
REMARK    8  A    between atoms: O_11  and  C_12
REMARK    9  A    between atoms: C_12  and  C_13
REMARK   10  A    between atoms: N_15  and  C_16
REMARK   11  A    between atoms: S_24  and  C_27
REMARK                            x       y       z     vdW  Elec       q    Type
REMARK                         _______ _______ _______ _____ _____    ______ ____
ROOT
ATOM      1  C   UNL     1       2.703   6.686  18.445  0.00  0.00    +0.000 A 
ATOM      2  C   UNL     1       2.506   7.810  17.643  0.00  0.00    +0.000 A 
ATOM      3  C   UNL     1       1.923   8.967  18.177  0.00  0.00    +0.000 A 
ATOM      4  C   UNL     1       1.486   9.004  19.503  0.00  0.00    +0.000 A 
ATOM      5  C   UNL     1       1.673   7.877  20.304  0.00  0.00    +0.000 A 
ATOM      6  C   UNL     1       2.288   6.724  19.778  0.00  0.00    +0.000 A 
ENDROOT
BRANCH   1   8
ATOM      7  C   UNL     1       4.487   5.654  17.012  0.00  0.00    +0.000 C 
ATOM      8  N   UNL     1       3.313   5.523  17.877  0.00  0.00    +0.000 N 
BRANCH   8   9
ATOM      9  S   UNL     1       2.432   4.078  17.771  0.00  0.00    +0.000 S 
ATOM     10  O   UNL     1       1.102   4.393  17.289  0.00  0.00    +0.000 OA
ATOM     11  O   UNL     1       3.245   3.081  17.096  0.00  0.00    +0.000 OA
BRANCH   9  12
ATOM     12  C   UNL     1       2.162   3.369  19.393  0.00  0.00    +0.000 A 
ATOM     13  C   UNL     1       1.022   3.268  20.173  0.00  0.00    +0.000 A 
ATOM     14  C   UNL     1       1.297   2.789  21.486  0.00  0.00    +0.000 A 
ATOM     15  C   UNL     1       2.626   2.469  21.647  0.00  0.00    +0.000 A 
ATOM     16  S   UNL     1       3.533   2.775  20.228  0.00  0.00    +0.000 S 
ENDBRANCH   9  12
ENDBRANCH   8   9
ENDBRANCH   1   8
BRANCH   4  17
ATOM     17  O   UNL     1       0.958  10.202  19.902  0.00  0.00    +0.000 OA
BRANCH  17  18
ATOM     18  C   UNL     1       0.774  11.212  18.911  0.00  0.00    +0.000 C 
BRANCH  18  19
ATOM     19  C   UNL     1      -0.709  11.366  18.562  0.00  0.00    +0.000 C 
ATOM     20  O   UNL     1      -1.497  10.458  18.331  0.00  0.00    +0.000 OA
BRANCH  19  21
ATOM     21  O   UNL     1      -1.040  12.694  18.478  0.00  0.00    +0.000 OA
BRANCH  21  22
ATOM     22  C   UNL     1      -1.323  13.317  19.747  0.00  0.00    +0.000 C 
BRANCH  22  23
ATOM     23  C   UNL     1      -2.634  12.729  20.271  0.00  0.00    +0.000 C 
ATOM     24  O   UNL     1      -2.697  12.319  21.431  0.00  0.00    +0.000 OA
ATOM     25  N   UNL     1      -3.664  12.661  19.339  0.00  0.00    +0.000 N 
ATOM     26  H   UNL     1      -3.453  12.849  18.365  0.00  0.00    +0.000 HD
BRANCH  25  27
ATOM     27  C   UNL     1      -4.976  12.203  19.632  0.00  0.00    +0.000 A 
ATOM     28  C   UNL     1      -5.682  12.650  20.752  0.00  0.00    +0.000 A 
ATOM     29  C   UNL     1      -6.963  12.177  21.037  0.00  0.00    +0.000 A 
ATOM     30  C   UNL     1      -7.560  11.247  20.194  0.00  0.00    +0.000 A 
ATOM     31  C   UNL     1      -6.880  10.806  19.065  0.00  0.00    +0.000 A 
ATOM     32  C   UNL     1      -5.595  11.286  18.775  0.00  0.00    +0.000 A 
ENDBRANCH  25  27
ENDBRANCH  22  23
ENDBRANCH  21  22
ENDBRANCH  19  21
ENDBRANCH  18  19
ENDBRANCH  17  18
ENDBRANCH   4  17
TORSDOF 10
ENDMDL
MODEL 6
REMARK VINA RESULT:      -7.3      3.209      8.949
REMARK  Name = 
REMARK  11 active torsions:
REMARK  status: ('A' for Active; 'I' for Inactive)
REMARK    1  A    between atoms: C_1  and  N_2
REMARK    2  A    between atoms: N_2  and  C_3
REMARK    3  A    between atoms: N_2  and  S_24
REMARK    4  A    between atoms: C_6  and  O_7
REMARK    5  A    between atoms: O_7  and  C_8
REMARK    6  A    between atoms: C_8  and  C_9
REMARK    7  A    between atoms: C_9  and  O_11
REMARK    8  A    between atoms: O_11  and  C_12
REMARK    9  A    between atoms: C_12  and  C_13
REMARK   10  A    between atoms: N_15  and  C_16
REMARK   11  A    between atoms: S_24  and  C_27
REMARK                            x       y       z     vdW  Elec       q    Type
REMARK                         _______ _______ _______ _____ _____    ______ ____
ROOT
ATOM      1  C   UNL     1       3.000   6.429  18.265  0.00  0.00    +0.000 A 
ATOM      2  C   UNL     1       2.640   6.400  19.612  0.00  0.00    +0.000 A 
ATOM      3  C   UNL     1       1.951   7.479  20.184  0.00  0.00    +0.000 A 
ATOM      4  C   UNL     1       1.654   8.619  19.434  0.00  0.00    +0.000 A 
ATOM      5  C   UNL     1       2.022   8.654  18.089  0.00  0.00    +0.000 A 
ATOM      6  C   UNL     1       2.686   7.558  17.504  0.00  0.00    +0.000 A 
ENDROOT
BRANCH   1   8
ATOM      7  C   UNL     1       4.730   5.515  16.693  0.00  0.00    +0.000 C 
ATOM      8  N   UNL     1       3.690   5.309  17.704  0.00  0.00    +0.000 N 
BRANCH   8   9
ATOM      9  S   UNL     1       3.003   3.762  17.801  0.00  0.00    +0.000 S 
ATOM     10  O   UNL     1       1.730   3.788  17.109  0.00  0.00    +0.000 OA
ATOM     11  O   UNL     1       4.012   2.777  17.454  0.00  0.00    +0.000 OA
BRANCH   9  12
ATOM     12  C   UNL     1       2.583   3.352  19.493  0.00  0.00    +0.000 A 
ATOM     13  C   UNL     1       3.363   2.932  20.557  0.00  0.00    +0.000 A 
ATOM     14  C   UNL     1       2.586   2.540  21.685  0.00  0.00    +0.000 A 
ATOM     15  C   UNL     1       1.240   2.739  21.475  0.00  0.00    +0.000 A 
ATOM     16  S   UNL     1       0.924   3.369  19.915  0.00  0.00    +0.000 S 
ENDBRANCH   9  12
ENDBRANCH   8   9
ENDBRANCH   1   8
BRANCH   4  17
ATOM     17  O   UNL     1       0.957   9.586  20.108  0.00  0.00    +0.000 OA
BRANCH  17  18
ATOM     18  C   UNL     1       0.939   9.522  21.533  0.00  0.00    +0.000 C 
BRANCH  18  19
ATOM     19  C   UNL     1       0.013  10.596  22.113  0.00  0.00    +0.000 C 
ATOM     20  O   UNL     1      -0.971  10.401  22.814  0.00  0.00    +0.000 OA
BRANCH  19  21
ATOM     21  O   UNL     1       0.403  11.838  21.685  0.00  0.00    +0.000 OA
BRANCH  21  22
ATOM     22  C   UNL     1      -0.683  12.694  21.278  0.00  0.00    +0.000 C 
BRANCH  22  23
ATOM     23  C   UNL     1      -1.007  12.373  19.819  0.00  0.00    +0.000 C 
ATOM     24  O   UNL     1      -0.233  12.730  18.929  0.00  0.00    +0.000 OA
ATOM     25  N   UNL     1      -2.220  11.723  19.614  0.00  0.00    +0.000 N 
ATOM     26  H   UNL     1      -2.867  11.642  20.390  0.00  0.00    +0.000 HD
BRANCH  25  27
ATOM     27  C   UNL     1      -2.684  11.283  18.346  0.00  0.00    +0.000 A 
ATOM     28  C   UNL     1      -1.944  10.403  17.551  0.00  0.00    +0.000 A 
ATOM     29  C   UNL     1      -2.405   9.994  16.300  0.00  0.00    +0.000 A 
ATOM     30  C   UNL     1      -3.626  10.462  15.826  0.00  0.00    +0.000 A 
ATOM     31  C   UNL     1      -4.384  11.323  16.611  0.00  0.00    +0.000 A 
ATOM     32  C   UNL     1      -3.924  11.728  17.872  0.00  0.00    +0.000 A 
ENDBRANCH  25  27
ENDBRANCH  22  23
ENDBRANCH  21  22
ENDBRANCH  19  21
ENDBRANCH  18  19
ENDBRANCH  17  18
ENDBRANCH   4  17
TORSDOF 10
ENDMDL
MODEL 7
REMARK VINA RESULT:      -7.3      3.276      8.905
REMARK  Name = 
REMARK  11 active torsions:
REMARK  status: ('A' for Active; 'I' for Inactive)
REMARK    1  A    between atoms: C_1  and  N_2
REMARK    2  A    between atoms: N_2  and  C_3
REMARK    3  A    between atoms: N_2  and  S_24
REMARK    4  A    between atoms: C_6  and  O_7
REMARK    5  A    between atoms: O_7  and  C_8
REMARK    6  A    between atoms: C_8  and  C_9
REMARK    7  A    between atoms: C_9  and  O_11
REMARK    8  A    between atoms: O_11  and  C_12
REMARK    9  A    between atoms: C_12  and  C_13
REMARK   10  A    between atoms: N_15  and  C_16
REMARK   11  A    between atoms: S_24  and  C_27
REMARK                            x       y       z     vdW  Elec       q    Type
REMARK                         _______ _______ _______ _____ _____    ______ ____
ROOT
ATOM      1  C   UNL     1       2.694   6.921  18.434  0.00  0.00    +0.000 A 
ATOM      2  C   UNL     1       2.377   6.892  19.792  0.00  0.00    +0.000 A 
ATOM      3  C   UNL     1       1.700   7.967  20.383  0.00  0.00    +0.000 A 
ATOM      4  C   UNL     1       1.370   9.103  19.641  0.00  0.00    +0.000 A 
ATOM      5  C   UNL     1       1.695   9.137  18.284  0.00  0.00    +0.000 A 
ATOM      6  C   UNL     1       2.348   8.045  17.680  0.00  0.00    +0.000 A 
ENDROOT
BRANCH   1   8
ATOM      7  C   UNL     1       4.486   6.020  16.924  0.00  0.00    +0.000 C 
ATOM      8  N   UNL     1       3.374   5.804  17.853  0.00  0.00    +0.000 N 
BRANCH   8   9
ATOM      9  S   UNL     1       2.620   4.285  17.817  0.00  0.00    +0.000 S 
ATOM     10  O   UNL     1       1.263   4.466  17.343  0.00  0.00    +0.000 OA
ATOM     11  O   UNL     1       3.508   3.336  17.170  0.00  0.00    +0.000 OA
BRANCH   9  12
ATOM     12  C   UNL     1       2.431   3.623  19.470  0.00  0.00    +0.000 A 
ATOM     13  C   UNL     1       3.356   3.118  20.368  0.00  0.00    +0.000 A 
ATOM     14  C   UNL     1       2.743   2.525  21.510  0.00  0.00    +0.000 A 
ATOM     15  C   UNL     1       1.373   2.659  21.485  0.00  0.00    +0.000 A 
ATOM     16  S   UNL     1       0.837   3.470  20.076  0.00  0.00    +0.000 S 
ENDBRANCH   9  12
ENDBRANCH   8   9
ENDBRANCH   1   8
BRANCH   4  17
ATOM     17  O   UNL     1       0.689  10.067  20.334  0.00  0.00    +0.000 OA
BRANCH  17  18
ATOM     18  C   UNL     1      -0.424   9.656  21.127  0.00  0.00    +0.000 C 
BRANCH  18  19
ATOM     19  C   UNL     1      -0.640  10.618  22.299  0.00  0.00    +0.000 C 
ATOM     20  O   UNL     1      -0.210  10.480  23.437  0.00  0.00    +0.000 OA
BRANCH  19  21
ATOM     21  O   UNL     1      -1.452  11.654  21.917  0.00  0.00    +0.000 OA
BRANCH  21  22
ATOM     22  C   UNL     1      -1.143  12.914  22.545  0.00  0.00    +0.000 C 
BRANCH  22  23
ATOM     23  C   UNL     1       0.042  13.527  21.799  0.00  0.00    +0.000 C 
ATOM     24  O   UNL     1       0.912  14.131  22.430  0.00  0.00    +0.000 OA
ATOM     25  N   UNL     1       0.006  13.385  20.416  0.00  0.00    +0.000 N 
ATOM     26  H   UNL     1      -0.843  13.038  19.985  0.00  0.00    +0.000 HD
BRANCH  25  27
ATOM     27  C   UNL     1       1.033  13.829  19.542  0.00  0.00    +0.000 A 
ATOM     28  C   UNL     1       1.955  12.944  18.974  0.00  0.00    +0.000 A 
ATOM     29  C   UNL     1       2.970  13.398  18.132  0.00  0.00    +0.000 A 
ATOM     30  C   UNL     1       3.073  14.753  17.840  0.00  0.00    +0.000 A 
ATOM     31  C   UNL     1       2.153  15.645  18.381  0.00  0.00    +0.000 A 
ATOM     32  C   UNL     1       1.129  15.188  19.222  0.00  0.00    +0.000 A 
ENDBRANCH  25  27
ENDBRANCH  22  23
ENDBRANCH  21  22
ENDBRANCH  19  21
ENDBRANCH  18  19
ENDBRANCH  17  18
ENDBRANCH   4  17
TORSDOF 10
ENDMDL
MODEL 8
REMARK VINA RESULT:      -7.3      2.272      4.268
REMARK  Name = 
REMARK  11 active torsions:
REMARK  status: ('A' for Active; 'I' for Inactive)
REMARK    1  A    between atoms: C_1  and  N_2
REMARK    2  A    between atoms: N_2  and  C_3
REMARK    3  A    between atoms: N_2  and  S_24
REMARK    4  A    between atoms: C_6  and  O_7
REMARK    5  A    between atoms: O_7  and  C_8
REMARK    6  A    between atoms: C_8  and  C_9
REMARK    7  A    between atoms: C_9  and  O_11
REMARK    8  A    between atoms: O_11  and  C_12
REMARK    9  A    between atoms: C_12  and  C_13
REMARK   10  A    between atoms: N_15  and  C_16
REMARK   11  A    between atoms: S_24  and  C_27
REMARK                            x       y       z     vdW  Elec       q    Type
REMARK                         _______ _______ _______ _____ _____    ______ ____
ROOT
ATOM      1  C   UNL     1       0.721   9.767  19.409  0.00  0.00    +0.000 A 
ATOM      2  C   UNL     1       1.112   8.684  20.196  0.00  0.00    +0.000 A 
ATOM      3  C   UNL     1       2.068   7.774  19.725  0.00  0.00    +0.000 A 
ATOM      4  C   UNL     1       2.614   7.905  18.446  0.00  0.00    +0.000 A 
ATOM      5  C   UNL     1       2.218   8.983  17.653  0.00  0.00    +0.000 A 
ATOM      6  C   UNL     1       1.280   9.917  18.137  0.00  0.00    +0.000 A 
ENDROOT
BRANCH   1   8
ATOM      7  C   UNL     1      -1.552  10.822  19.270  0.00  0.00    +0.000 C 
ATOM      8  N   UNL     1      -0.247  10.688  19.920  0.00  0.00    +0.000 N 
BRANCH   8   9
ATOM      9  S   UNL     1       0.251  11.960  20.925  0.00  0.00    +0.000 S 
ATOM     10  O   UNL     1      -0.564  11.935  22.123  0.00  0.00    +0.000 OA
ATOM     11  O   UNL     1       1.700  11.946  21.017  0.00  0.00    +0.000 OA
BRANCH   9  12
ATOM     12  C   UNL     1      -0.105  13.547  20.176  0.00  0.00    +0.000 A 
ATOM     13  C   UNL     1       0.519  14.240  19.153  0.00  0.00    +0.000 A 
ATOM     14  C   UNL     1       0.011  15.562  18.997  0.00  0.00    +0.000 A 
ATOM     15  C   UNL     1      -1.034  15.814  19.856  0.00  0.00    +0.000 A 
ATOM     16  S   UNL     1      -1.374  14.470  20.860  0.00  0.00    +0.000 S 
ENDBRANCH   9  12
ENDBRANCH   8   9
ENDBRANCH   1   8
BRANCH   4  17
ATOM     17  O   UNL     1       3.553   6.964  18.121  0.00  0.00    +0.000 OA
BRANCH  17  18
ATOM     18  C   UNL     1       4.109   7.005  16.807  0.00  0.00    +0.000 C 
BRANCH  18  19
ATOM     19  C   UNL     1       5.599   6.649  16.837  0.00  0.00    +0.000 C 
ATOM     20  O   UNL     1       6.522   7.420  17.069  0.00  0.00    +0.000 OA
BRANCH  19  21
ATOM     21  O   UNL     1       5.778   5.333  16.502  0.00  0.00    +0.000 OA
BRANCH  21  22
ATOM     22  C   UNL     1       6.488   4.559  17.490  0.00  0.00    +0.000 C 
BRANCH  22  23
ATOM     23  C   UNL     1       5.567   4.392  18.699  0.00  0.00    +0.000 C 
ATOM     24  O   UNL     1       5.938   4.785  19.807  0.00  0.00    +0.000 OA
ATOM     25  N   UNL     1       4.366   3.740  18.439  0.00  0.00    +0.000 N 
ATOM     26  H   UNL     1       4.240   3.292  17.539  0.00  0.00    +0.000 HD
BRANCH  25  27
ATOM     27  C   UNL     1       3.346   3.532  19.406  0.00  0.00    +0.000 A 
ATOM     28  C   UNL     1       3.532   2.695  20.509  0.00  0.00    +0.000 A 
ATOM     29  C   UNL     1       2.515   2.486  21.440  0.00  0.00    +0.000 A 
ATOM     30  C   UNL     1       1.288   3.122  21.278  0.00  0.00    +0.000 A 
ATOM     31  C   UNL     1       1.092   3.973  20.197  0.00  0.00    +0.000 A 
ATOM     32  C   UNL     1       2.118   4.188  19.265  0.00  0.00    +0.000 A 
ENDBRANCH  25  27
ENDBRANCH  22  23
ENDBRANCH  21  22
ENDBRANCH  19  21
ENDBRANCH  18  19
ENDBRANCH  17  18
ENDBRANCH   4  17
TORSDOF 10
ENDMDL
MODEL 9
REMARK VINA RESULT:      -7.3      3.234      9.069
REMARK  Name = 
REMARK  11 active torsions:
REMARK  status: ('A' for Active; 'I' for Inactive)
REMARK    1  A    between atoms: C_1  and  N_2
REMARK    2  A    between atoms: N_2  and  C_3
REMARK    3  A    between atoms: N_2  and  S_24
REMARK    4  A    between atoms: C_6  and  O_7
REMARK    5  A    between atoms: O_7  and  C_8
REMARK    6  A    between atoms: C_8  and  C_9
REMARK    7  A    between atoms: C_9  and  O_11
REMARK    8  A    between atoms: O_11  and  C_12
REMARK    9  A    between atoms: C_12  and  C_13
REMARK   10  A    between atoms: N_15  and  C_16
REMARK   11  A    between atoms: S_24  and  C_27
REMARK                            x       y       z     vdW  Elec       q    Type
REMARK                         _______ _______ _______ _____ _____    ______ ____
ROOT
ATOM      1  C   UNL     1       2.662   7.118  18.612  0.00  0.00    +0.000 A 
ATOM      2  C   UNL     1       2.264   7.144  19.949  0.00  0.00    +0.000 A 
ATOM      3  C   UNL     1       1.470   8.194  20.431  0.00  0.00    +0.000 A 
ATOM      4  C   UNL     1       1.100   9.253  19.600  0.00  0.00    +0.000 A 
ATOM      5  C   UNL     1       1.504   9.233  18.264  0.00  0.00    +0.000 A 
ATOM      6  C   UNL     1       2.276   8.164  17.770  0.00  0.00    +0.000 A 
ENDROOT
BRANCH   1   8
ATOM      7  C   UNL     1       4.705   6.287  17.414  0.00  0.00    +0.000 C 
ATOM      8  N   UNL     1       3.461   6.028  18.143  0.00  0.00    +0.000 N 
BRANCH   8   9
ATOM      9  S   UNL     1       2.768   4.490  17.970  0.00  0.00    +0.000 S 
ATOM     10  O   UNL     1       1.422   4.656  17.458  0.00  0.00    +0.000 OA
ATOM     11  O   UNL     1       3.715   3.623  17.290  0.00  0.00    +0.000 OA
BRANCH   9  12
ATOM     12  C   UNL     1       2.547   3.702  19.562  0.00  0.00    +0.000 A 
ATOM     13  C   UNL     1       3.425   2.998  20.368  0.00  0.00    +0.000 A 
ATOM     14  C   UNL     1       2.777   2.382  21.477  0.00  0.00    +0.000 A 
ATOM     15  C   UNL     1       1.437   2.694  21.526  0.00  0.00    +0.000 A 
ATOM     16  S   UNL     1       0.968   3.699  20.223  0.00  0.00    +0.000 S 
ENDBRANCH   9  12
ENDBRANCH   8   9
ENDBRANCH   1   8
BRANCH   4  17
ATOM     17  O   UNL     1       0.304  10.198  20.190  0.00  0.00    +0.000 OA
BRANCH  17  18
ATOM     18  C   UNL     1       0.943  11.245  20.918  0.00  0.00    +0.000 C 
BRANCH  18  19
ATOM     19  C   UNL     1      -0.090  12.099  21.660  0.00  0.00    +0.000 C 
ATOM     20  O   UNL     1      -0.969  11.686  22.406  0.00  0.00    +0.000 OA
BRANCH  19  21
ATOM     21  O   UNL     1       0.060  13.420  21.326  0.00  0.00    +0.000 OA
BRANCH  21  22
ATOM     22  C   UNL     1      -1.099  14.011  20.706  0.00  0.00    +0.000 C 
BRANCH  22  23
ATOM     23  C   UNL     1      -1.316  13.311  19.364  0.00  0.00    +0.000 C 
ATOM     24  O   UNL     1      -0.594  13.593  18.406  0.00  0.00    +0.000 OA
ATOM     25  N   UNL     1      -2.383  12.420  19.330  0.00  0.00    +0.000 N 
ATOM     26  H   UNL     1      -3.027  12.401  20.113  0.00  0.00    +0.000 HD
BRANCH  25  27
ATOM     27  C   UNL     1      -2.723  11.624  18.203  0.00  0.00    +0.000 A 
ATOM     28  C   UNL     1      -3.937  11.778  17.528  0.00  0.00    +0.000 A 
ATOM     29  C   UNL     1      -4.265  10.977  16.435  0.00  0.00    +0.000 A 
ATOM     30  C   UNL     1      -3.371  10.006  15.997  0.00  0.00    +0.000 A 
ATOM     31  C   UNL     1      -2.151   9.852  16.644  0.00  0.00    +0.000 A 
ATOM     32  C   UNL     1      -1.819  10.662  17.739  0.00  0.00    +0.000 A 
ENDBRANCH  25  27
ENDBRANCH  22  23
ENDBRANCH  21  22
ENDBRANCH  19  21
ENDBRANCH  18  19
ENDBRANCH  17  18
ENDBRANCH   4  17
TORSDOF 10
ENDMDL
