MODEL 1
REMARK VINA RESULT:      -8.2      0.000      0.000
REMARK  Name = 
REMARK  6 active torsions:
REMARK  status: ('A' for Active; 'I' for Inactive)
REMARK    1  A    between atoms: N_3  and  C_4
REMARK    2  A    between atoms: C_4  and  C_5
REMARK    3  A    between atoms: C_14  and  C_15
REMARK    4  A    between atoms: C_17  and  C_18
REMARK    5  A    between atoms: C_18  and  C_19
REMARK    6  A    between atoms: C_19  and  N_20
REMARK                            x       y       z     vdW  Elec       q    Type
REMARK                         _______ _______ _______ _____ _____    ______ ____
ROOT
ATOM      1  O   UNL     1       2.818   7.388  17.818  0.00  0.00    +0.000 OA
ATOM      2  C   UNL     1       2.375   7.613  18.939  0.00  0.00    +0.000 C 
ATOM      3  N   UNL     1       2.675   6.789  19.989  0.00  0.00    +0.000 N 
ATOM      4  N   UNL     1       1.539   8.673  19.231  0.00  0.00    +0.000 N 
ATOM      5  C   UNL     1       1.210   9.157  20.571  0.00  0.00    +0.000 C 
ATOM      6  C   UNL     1      -0.267   9.538  20.652  0.00  0.00    +0.000 C 
ATOM      7  C   UNL     1      -0.654  10.550  19.567  0.00  0.00    +0.000 C 
ATOM      8  C   UNL     1      -0.240  10.017  18.186  0.00  0.00    +0.000 C 
ATOM      9  C   UNL     1       1.231   9.603  18.146  0.00  0.00    +0.000 C 
ATOM     10  H   UNL     1       1.942   6.680  20.667  0.00  0.00    +0.000 HD
ENDROOT
BRANCH   7  11
ATOM     11  C   UNL     1      -0.084  11.906  19.853  0.00  0.00    +0.000 A 
ATOM     12  N   UNL     1       0.772  12.290  20.775  0.00  0.00    +0.000 NA
ATOM     13  C   UNL     1       0.904  13.638  20.525  0.00  0.00    +0.000 A 
ATOM     14  N   UNL     1       0.173  14.081  19.492  0.00  0.00    +0.000 NA
ATOM     15  O   UNL     1      -0.478  12.929  19.037  0.00  0.00    +0.000 OA
BRANCH  13  16
ATOM     16  C   UNL     1       1.839  14.516  21.301  0.00  0.00    +0.000 C 
BRANCH  16  17
ATOM     17  C   UNL     1       3.290  14.174  20.950  0.00  0.00    +0.000 C 
BRANCH  17  18
ATOM     18  N   UNL     1       4.113  15.122  20.155  0.00  0.00    +0.000 NA
ATOM     19  C   UNL     1       3.975  14.664  18.749  0.00  0.00    +0.000 C 
ATOM     20  C   UNL     1       4.998  15.251  17.810  0.00  0.00    +0.000 C 
ATOM     21  C   UNL     1       6.300  14.706  18.289  0.00  0.00    +0.000 A 
ATOM     22  C   UNL     1       7.103  13.862  17.529  0.00  0.00    +0.000 A 
ATOM     23  C   UNL     1       8.381  13.558  17.978  0.00  0.00    +0.000 A 
ATOM     24  C   UNL     1       8.866  14.179  19.128  0.00  0.00    +0.000 A 
ATOM     25  C   UNL     1       7.992  14.890  19.961  0.00  0.00    +0.000 A 
ATOM     26  C   UNL     1       6.645  15.007  19.606  0.00  0.00    +0.000 A 
ATOM     27  C   UNL     1       5.531  15.301  20.614  0.00  0.00    +0.000 C 
ENDBRANCH  17  18
ENDBRANCH  16  17
ENDBRANCH  13  16
ENDBRANCH   7  11
BRANCH   3  28
ATOM     28  C   UNL     1       3.455   5.589  19.755  0.00  0.00    +0.000 C 
BRANCH  28  29
ATOM     29  C   UNL     1       2.553   4.417  19.456  0.00  0.00    +0.000 A 
ATOM     30  C   UNL     1       1.544   4.042  20.359  0.00  0.00    +0.000 A 
ATOM     31  C   UNL     1       0.737   2.935  20.074  0.00  0.00    +0.000 A 
ATOM     32  C   UNL     1       0.917   2.213  18.896  0.00  0.00    +0.000 A 
ATOM     33  C   UNL     1       1.919   2.578  18.001  0.00  0.00    +0.000 A 
ATOM     34  C   UNL     1       2.737   3.677  18.280  0.00  0.00    +0.000 A 
ENDBRANCH  28  29
ENDBRANCH   3  28
TORSDOF 6
ENDMDL
MODEL 2
REMARK VINA RESULT:      -8.2      1.315      1.837
REMARK  Name = 
REMARK  6 active torsions:
REMARK  status: ('A' for Active; 'I' for Inactive)
REMARK    1  A    between atoms: N_3  and  C_4
REMARK    2  A    between atoms: C_4  and  C_5
REMARK    3  A    between atoms: C_14  and  C_15
REMARK    4  A    between atoms: C_17  and  C_18
REMARK    5  A    between atoms: C_18  and  C_19
REMARK    6  A    between atoms: C_19  and  N_20
REMARK                            x       y       z     vdW  Elec       q    Type
REMARK                         _______ _______ _______ _____ _____    ______ ____
ROOT
ATOM      1  O   UNL     1       2.691   7.781  17.798  0.00  0.00    +0.000 OA
ATOM      2  C   UNL     1       2.324   7.841  18.967  0.00  0.00    +0.000 C 
ATOM      3  N   UNL     1       2.695   6.881  19.868  0.00  0.00    +0.000 N 
ATOM      4  N   UNL     1       1.507   8.840  19.460  0.00  0.00    +0.000 N 
ATOM      5  C   UNL     1       1.268   9.127  20.874  0.00  0.00    +0.000 C 
ATOM      6  C   UNL     1      -0.202   9.475  21.107  0.00  0.00    +0.000 C 
ATOM      7  C   UNL     1      -0.663  10.625  20.204  0.00  0.00    +0.000 C 
ATOM      8  C   UNL     1      -0.341  10.297  18.736  0.00  0.00    +0.000 C 
ATOM      9  C   UNL     1       1.124   9.910  18.541  0.00  0.00    +0.000 C 
ATOM     10  H   UNL     1       2.010   6.670  20.571  0.00  0.00    +0.000 HD
ENDROOT
BRANCH   7  11
ATOM     11  C   UNL     1      -0.077  11.934  20.640  0.00  0.00    +0.000 A 
ATOM     12  N   UNL     1       0.415  12.924  19.926  0.00  0.00    +0.000 NA
ATOM     13  C   UNL     1       0.785  13.837  20.888  0.00  0.00    +0.000 A 
ATOM     14  N   UNL     1       0.533  13.446  22.146  0.00  0.00    +0.000 NA
ATOM     15  O   UNL     1      -0.050  12.185  21.983  0.00  0.00    +0.000 OA
BRANCH  13  16
ATOM     16  C   UNL     1       1.358  15.180  20.549  0.00  0.00    +0.000 C 
BRANCH  16  17
ATOM     17  C   UNL     1       1.384  15.367  19.029  0.00  0.00    +0.000 C 
BRANCH  17  18
ATOM     18  N   UNL     1       2.639  15.774  18.345  0.00  0.00    +0.000 NA
ATOM     19  C   UNL     1       3.450  14.532  18.262  0.00  0.00    +0.000 C 
ATOM     20  C   UNL     1       4.901  14.769  17.931  0.00  0.00    +0.000 C 
ATOM     21  C   UNL     1       5.433  15.526  19.100  0.00  0.00    +0.000 A 
ATOM     22  C   UNL     1       6.423  15.032  19.945  0.00  0.00    +0.000 A 
ATOM     23  C   UNL     1       6.988  15.877  20.890  0.00  0.00    +0.000 A 
ATOM     24  C   UNL     1       6.622  17.223  20.909  0.00  0.00    +0.000 A 
ATOM     25  C   UNL     1       5.515  17.657  20.168  0.00  0.00    +0.000 A 
ATOM     26  C   UNL     1       4.811  16.742  19.381  0.00  0.00    +0.000 A 
ATOM     27  C   UNL     1       3.359  16.948  18.942  0.00  0.00    +0.000 C 
ENDBRANCH  17  18
ENDBRANCH  16  17
ENDBRANCH  13  16
ENDBRANCH   7  11
BRANCH   3  28
ATOM     28  C   UNL     1       3.460   5.735  19.415  0.00  0.00    +0.000 C 
BRANCH  28  29
ATOM     29  C   UNL     1       2.562   4.538  19.223  0.00  0.00    +0.000 A 
ATOM     30  C   UNL     1       1.529   4.265  20.135  0.00  0.00    +0.000 A 
ATOM     31  C   UNL     1       0.727   3.134  19.952  0.00  0.00    +0.000 A 
ATOM     32  C   UNL     1       0.935   2.286  18.865  0.00  0.00    +0.000 A 
ATOM     33  C   UNL     1       1.961   2.550  17.962  0.00  0.00    +0.000 A 
ATOM     34  C   UNL     1       2.775   3.673  18.140  0.00  0.00    +0.000 A 
ENDBRANCH  28  29
ENDBRANCH   3  28
TORSDOF 6
ENDMDL
MODEL 3
REMARK VINA RESULT:      -8.1      1.287      1.501
REMARK  Name = 
REMARK  6 active torsions:
REMARK  status: ('A' for Active; 'I' for Inactive)
REMARK    1  A    between atoms: N_3  and  C_4
REMARK    2  A    between atoms: C_4  and  C_5
REMARK    3  A    between atoms: C_14  and  C_15
REMARK    4  A    between atoms: C_17  and  C_18
REMARK    5  A    between atoms: C_18  and  C_19
REMARK    6  A    between atoms: C_19  and  N_20
REMARK                            x       y       z     vdW  Elec       q    Type
REMARK                         _______ _______ _______ _____ _____    ______ ____
ROOT
ATOM      1  O   UNL     1       2.489   8.381  17.631  0.00  0.00    +0.000 OA
ATOM      2  C   UNL     1       2.084   8.326  18.788  0.00  0.00    +0.000 C 
ATOM      3  N   UNL     1       2.432   7.284  19.602  0.00  0.00    +0.000 N 
ATOM      4  N   UNL     1       1.245   9.269  19.349  0.00  0.00    +0.000 N 
ATOM      5  C   UNL     1       0.960   9.416  20.775  0.00  0.00    +0.000 C 
ATOM      6  C   UNL     1      -0.519   9.736  20.992  0.00  0.00    +0.000 C 
ATOM      7  C   UNL     1      -0.958  10.967  20.191  0.00  0.00    +0.000 C 
ATOM      8  C   UNL     1      -0.587  10.784  18.710  0.00  0.00    +0.000 C 
ATOM      9  C   UNL     1       0.886  10.423  18.526  0.00  0.00    +0.000 C 
ATOM     10  H   UNL     1       1.727   7.003  20.259  0.00  0.00    +0.000 HD
ENDROOT
BRANCH   7  11
ATOM     11  C   UNL     1      -0.395  12.229  20.771  0.00  0.00    +0.000 A 
ATOM     12  N   UNL     1      -0.111  13.376  20.193  0.00  0.00    +0.000 NA
ATOM     13  C   UNL     1       0.364  14.134  21.240  0.00  0.00    +0.000 A 
ATOM     14  N   UNL     1       0.373  13.500  22.421  0.00  0.00    +0.000 NA
ATOM     15  O   UNL     1      -0.141  12.235  22.114  0.00  0.00    +0.000 OA
BRANCH  13  16
ATOM     16  C   UNL     1       0.772  15.568  21.079  0.00  0.00    +0.000 C 
BRANCH  16  17
ATOM     17  C   UNL     1       2.282  15.657  20.837  0.00  0.00    +0.000 C 
BRANCH  17  18
ATOM     18  N   UNL     1       2.805  16.180  19.548  0.00  0.00    +0.000 NA
ATOM     19  C   UNL     1       2.918  14.988  18.670  0.00  0.00    +0.000 C 
ATOM     20  C   UNL     1       3.758  15.213  17.438  0.00  0.00    +0.000 C 
ATOM     21  C   UNL     1       5.131  15.464  17.962  0.00  0.00    +0.000 A 
ATOM     22  C   UNL     1       6.214  14.629  17.703  0.00  0.00    +0.000 A 
ATOM     23  C   UNL     1       7.487  15.040  18.072  0.00  0.00    +0.000 A 
ATOM     24  C   UNL     1       7.666  16.316  18.605  0.00  0.00    +0.000 A 
ATOM     25  C   UNL     1       6.555  17.068  19.006  0.00  0.00    +0.000 A 
ATOM     26  C   UNL     1       5.270  16.548  18.829  0.00  0.00    +0.000 A 
ATOM     27  C   UNL     1       4.054  17.008  19.637  0.00  0.00    +0.000 C 
ENDBRANCH  17  18
ENDBRANCH  16  17
ENDBRANCH  13  16
ENDBRANCH   7  11
BRANCH   3  28
ATOM     28  C   UNL     1       3.219   6.189  19.066  0.00  0.00    +0.000 C 
BRANCH  28  29
ATOM     29  C   UNL     1       2.416   4.912  19.057  0.00  0.00    +0.000 A 
ATOM     30  C   UNL     1       1.588   4.579  20.143  0.00  0.00    +0.000 A 
ATOM     31  C   UNL     1       0.876   3.376  20.125  0.00  0.00    +0.000 A 
ATOM     32  C   UNL     1       0.969   2.514  19.034  0.00  0.00    +0.000 A 
ATOM     33  C   UNL     1       1.793   2.836  17.959  0.00  0.00    +0.000 A 
ATOM     34  C   UNL     1       2.516   4.033  17.970  0.00  0.00    +0.000 A 
ENDBRANCH  28  29
ENDBRANCH   3  28
TORSDOF 6
ENDMDL
MODEL 4
REMARK VINA RESULT:      -8.1      2.277      3.528
REMARK  Name = 
REMARK  6 active torsions:
REMARK  status: ('A' for Active; 'I' for Inactive)
REMARK    1  A    between atoms: N_3  and  C_4
REMARK    2  A    between atoms: C_4  and  C_5
REMARK    3  A    between atoms: C_14  and  C_15
REMARK    4  A    between atoms: C_17  and  C_18
REMARK    5  A    between atoms: C_18  and  C_19
REMARK    6  A    between atoms: C_19  and  N_20
REMARK                            x       y       z     vdW  Elec       q    Type
REMARK                         _______ _______ _______ _____ _____    ______ ____
ROOT
ATOM      1  O   UNL     1       2.861   7.617  17.772  0.00  0.00    +0.000 OA
ATOM      2  C   UNL     1       2.352   7.750  18.880  0.00  0.00    +0.000 C 
ATOM      3  N   UNL     1       2.636   6.875  19.891  0.00  0.00    +0.000 N 
ATOM      4  N   UNL     1       1.453   8.752  19.192  0.00  0.00    +0.000 N 
ATOM      5  C   UNL     1       1.034   9.134  20.539  0.00  0.00    +0.000 C 
ATOM      6  C   UNL     1      -0.462   9.444  20.565  0.00  0.00    +0.000 C 
ATOM      7  C   UNL     1      -0.841  10.505  19.526  0.00  0.00    +0.000 C 
ATOM      8  C   UNL     1      -0.332  10.081  18.138  0.00  0.00    +0.000 C 
ATOM      9  C   UNL     1       1.156   9.735  18.152  0.00  0.00    +0.000 C 
ATOM     10  H   UNL     1       1.876   6.691  20.522  0.00  0.00    +0.000 HD
ENDROOT
BRANCH   7  11
ATOM     11  C   UNL     1      -0.350  11.864  19.925  0.00  0.00    +0.000 A 
ATOM     12  N   UNL     1       0.045  12.314  21.095  0.00  0.00    +0.000 NA
ATOM     13  C   UNL     1       0.376  13.623  20.823  0.00  0.00    +0.000 A 
ATOM     14  N   UNL     1       0.203  13.979  19.542  0.00  0.00    +0.000 NA
ATOM     15  O   UNL     1      -0.270  12.809  18.940  0.00  0.00    +0.000 OA
BRANCH  13  16
ATOM     16  C   UNL     1       0.943  14.545  21.859  0.00  0.00    +0.000 C 
BRANCH  16  17
ATOM     17  C   UNL     1       2.436  14.769  21.598  0.00  0.00    +0.000 C 
BRANCH  17  18
ATOM     18  N   UNL     1       2.923  16.082  21.101  0.00  0.00    +0.000 NA
ATOM     19  C   UNL     1       1.904  17.063  21.553  0.00  0.00    +0.000 C 
ATOM     20  C   UNL     1       1.997  18.403  20.866  0.00  0.00    +0.000 C 
ATOM     21  C   UNL     1       1.679  18.113  19.439  0.00  0.00    +0.000 A 
ATOM     22  C   UNL     1       0.566  18.631  18.783  0.00  0.00    +0.000 A 
ATOM     23  C   UNL     1       0.451  18.463  17.410  0.00  0.00    +0.000 A 
ATOM     24  C   UNL     1       1.496  17.865  16.705  0.00  0.00    +0.000 A 
ATOM     25  C   UNL     1       2.523  17.210  17.398  0.00  0.00    +0.000 A 
ATOM     26  C   UNL     1       2.511  17.198  18.796  0.00  0.00    +0.000 A 
ATOM     27  C   UNL     1       3.244  16.149  19.636  0.00  0.00    +0.000 C 
ENDBRANCH  17  18
ENDBRANCH  16  17
ENDBRANCH  13  16
ENDBRANCH   7  11
BRANCH   3  28
ATOM     28  C   UNL     1       3.483   5.727  19.626  0.00  0.00    +0.000 C 
BRANCH  28  29
ATOM     29  C   UNL     1       2.647   4.508  19.325  0.00  0.00    +0.000 A 
ATOM     30  C   UNL     1       2.914   3.720  18.192  0.00  0.00    +0.000 A 
ATOM     31  C   UNL     1       2.108   2.611  17.917  0.00  0.00    +0.000 A 
ATOM     32  C   UNL     1       1.054   2.273  18.764  0.00  0.00    +0.000 A 
ATOM     33  C   UNL     1       0.783   3.054  19.884  0.00  0.00    +0.000 A 
ATOM     34  C   UNL     1       1.577   4.170  20.164  0.00  0.00    +0.000 A 
ENDBRANCH  28  29
ENDBRANCH   3  28
TORSDOF 6
ENDMDL
MODEL 5
REMARK VINA RESULT:      -8.1      0.921      1.286
REMARK  Name = 
REMARK  6 active torsions:
REMARK  status: ('A' for Active; 'I' for Inactive)
REMARK    1  A    between atoms: N_3  and  C_4
REMARK    2  A    between atoms: C_4  and  C_5
REMARK    3  A    between atoms: C_14  and  C_15
REMARK    4  A    between atoms: C_17  and  C_18
REMARK    5  A    between atoms: C_18  and  C_19
REMARK    6  A    between atoms: C_19  and  N_20
REMARK                            x       y       z     vdW  Elec       q    Type
REMARK                         _______ _______ _______ _____ _____    ______ ____
ROOT
ATOM      1  O   UNL     1       2.331   7.696  18.039  0.00  0.00    +0.000 OA
ATOM      2  C   UNL     1       2.159   7.797  19.250  0.00  0.00    +0.000 C 
ATOM      3  N   UNL     1       2.678   6.870  20.110  0.00  0.00    +0.000 N 
ATOM      4  N   UNL     1       1.427   8.812  19.835  0.00  0.00    +0.000 N 
ATOM      5  C   UNL     1       1.421   9.148  21.258  0.00  0.00    +0.000 C 
ATOM      6  C   UNL     1       0.006   9.504  21.715  0.00  0.00    +0.000 C 
ATOM      7  C   UNL     1      -0.603  10.621  20.860  0.00  0.00    +0.000 C 
ATOM      8  C   UNL     1      -0.523  10.241  19.373  0.00  0.00    +0.000 C 
ATOM      9  C   UNL     1       0.893   9.849  18.954  0.00  0.00    +0.000 C 
ATOM     10  H   UNL     1       2.119   6.683  20.923  0.00  0.00    +0.000 HD
ENDROOT
BRANCH   7  11
ATOM     11  C   UNL     1       0.037  11.945  21.149  0.00  0.00    +0.000 A 
ATOM     12  N   UNL     1       0.862  12.666  20.421  0.00  0.00    +0.000 NA
ATOM     13  C   UNL     1       1.087  13.767  21.217  0.00  0.00    +0.000 A 
ATOM     14  N   UNL     1       0.432  13.745  22.387  0.00  0.00    +0.000 NA
ATOM     15  O   UNL     1      -0.276  12.539  22.340  0.00  0.00    +0.000 OA
BRANCH  13  16
ATOM     16  C   UNL     1       1.940  14.919  20.780  0.00  0.00    +0.000 C 
BRANCH  16  17
ATOM     17  C   UNL     1       3.407  14.485  20.707  0.00  0.00    +0.000 C 
BRANCH  17  18
ATOM     18  N   UNL     1       4.396  15.303  19.958  0.00  0.00    +0.000 NA
ATOM     19  C   UNL     1       4.259  14.869  18.545  0.00  0.00    +0.000 C 
ATOM     20  C   UNL     1       5.400  15.300  17.658  0.00  0.00    +0.000 C 
ATOM     21  C   UNL     1       6.586  14.572  18.195  0.00  0.00    +0.000 A 
ATOM     22  C   UNL     1       7.292  13.620  17.467  0.00  0.00    +0.000 A 
ATOM     23  C   UNL     1       8.490  13.133  17.974  0.00  0.00    +0.000 A 
ATOM     24  C   UNL     1       9.005  13.678  19.150  0.00  0.00    +0.000 A 
ATOM     25  C   UNL     1       8.205  14.510  19.945  0.00  0.00    +0.000 A 
ATOM     26  C   UNL     1       6.908  14.821  19.528  0.00  0.00    +0.000 A 
ATOM     27  C   UNL     1       5.801  15.275  20.484  0.00  0.00    +0.000 C 
ENDBRANCH  17  18
ENDBRANCH  16  17
ENDBRANCH  13  16
ENDBRANCH   7  11
BRANCH   3  28
ATOM     28  C   UNL     1       3.367   5.709  19.579  0.00  0.00    +0.000 C 
BRANCH  28  29
ATOM     29  C   UNL     1       2.446   4.514  19.543  0.00  0.00    +0.000 A 
ATOM     30  C   UNL     1       2.105   3.910  18.322  0.00  0.00    +0.000 A 
ATOM     31  C   UNL     1       1.227   2.821  18.310  0.00  0.00    +0.000 A 
ATOM     32  C   UNL     1       0.700   2.324  19.501  0.00  0.00    +0.000 A 
ATOM     33  C   UNL     1       1.031   2.923  20.713  0.00  0.00    +0.000 A 
ATOM     34  C   UNL     1       1.901   4.017  20.735  0.00  0.00    +0.000 A 
ENDBRANCH  28  29
ENDBRANCH   3  28
TORSDOF 6
ENDMDL
MODEL 6
REMARK VINA RESULT:      -8.0      4.397      8.383
REMARK  Name = 
REMARK  6 active torsions:
REMARK  status: ('A' for Active; 'I' for Inactive)
REMARK    1  A    between atoms: N_3  and  C_4
REMARK    2  A    between atoms: C_4  and  C_5
REMARK    3  A    between atoms: C_14  and  C_15
REMARK    4  A    between atoms: C_17  and  C_18
REMARK    5  A    between atoms: C_18  and  C_19
REMARK    6  A    between atoms: C_19  and  N_20
REMARK                            x       y       z     vdW  Elec       q    Type
REMARK                         _______ _______ _______ _____ _____    ______ ____
ROOT
ATOM      1  O   UNL     1       2.055   7.205  21.081  0.00  0.00    +0.000 OA
ATOM      2  C   UNL     1       2.039   7.680  19.950  0.00  0.00    +0.000 C 
ATOM      3  N   UNL     1       2.661   7.041  18.914  0.00  0.00    +0.000 N 
ATOM      4  N   UNL     1       1.431   8.879  19.635  0.00  0.00    +0.000 N 
ATOM      5  C   UNL     1       1.132   9.356  18.285  0.00  0.00    +0.000 C 
ATOM      6  C   UNL     1       1.410  10.854  18.175  0.00  0.00    +0.000 C 
ATOM      7  C   UNL     1       0.655  11.652  19.243  0.00  0.00    +0.000 C 
ATOM      8  C   UNL     1       0.962  11.079  20.636  0.00  0.00    +0.000 C 
ATOM      9  C   UNL     1       0.717   9.572  20.705  0.00  0.00    +0.000 C 
ATOM     10  H   UNL     1       3.069   7.645  18.224  0.00  0.00    +0.000 HD
ENDROOT
BRANCH   7  11
ATOM     11  C   UNL     1      -0.815  11.702  18.955  0.00  0.00    +0.000 A 
ATOM     12  N   UNL     1      -1.472  11.429  17.849  0.00  0.00    +0.000 NA
ATOM     13  C   UNL     1      -2.782  11.654  18.211  0.00  0.00    +0.000 A 
ATOM     14  N   UNL     1      -2.943  12.045  19.483  0.00  0.00    +0.000 NA
ATOM     15  O   UNL     1      -1.637  12.068  19.984  0.00  0.00    +0.000 OA
BRANCH  13  16
ATOM     16  C   UNL     1      -3.930  11.417  17.277  0.00  0.00    +0.000 C 
BRANCH  16  17
ATOM     17  C   UNL     1      -4.955  10.488  17.935  0.00  0.00    +0.000 C 
BRANCH  17  18
ATOM     18  N   UNL     1      -6.362  10.931  18.116  0.00  0.00    +0.000 NA
ATOM     19  C   UNL     1      -6.364  12.366  17.735  0.00  0.00    +0.000 C 
ATOM     20  C   UNL     1      -7.596  13.116  18.175  0.00  0.00    +0.000 C 
ATOM     21  C   UNL     1      -7.537  13.089  19.665  0.00  0.00    +0.000 A 
ATOM     22  C   UNL     1      -7.407  14.233  20.446  0.00  0.00    +0.000 A 
ATOM     23  C   UNL     1      -7.551  14.132  21.823  0.00  0.00    +0.000 A 
ATOM     24  C   UNL     1      -7.917  12.909  22.383  0.00  0.00    +0.000 A 
ATOM     25  C   UNL     1      -7.881  11.744  21.605  0.00  0.00    +0.000 A 
ATOM     26  C   UNL     1      -7.519  11.827  20.257  0.00  0.00    +0.000 A 
ATOM     27  C   UNL     1      -6.972  10.642  19.456  0.00  0.00    +0.000 C 
ENDBRANCH  17  18
ENDBRANCH  16  17
ENDBRANCH  13  16
ENDBRANCH   7  11
BRANCH   3  28
ATOM     28  C   UNL     1       3.420   5.831  19.172  0.00  0.00    +0.000 C 
BRANCH  28  29
ATOM     29  C   UNL     1       2.545   4.612  19.019  0.00  0.00    +0.000 A 
ATOM     30  C   UNL     1       2.732   3.727  17.943  0.00  0.00    +0.000 A 
ATOM     31  C   UNL     1       1.891   2.619  17.805  0.00  0.00    +0.000 A 
ATOM     32  C   UNL     1       0.880   2.377  18.734  0.00  0.00    +0.000 A 
ATOM     33  C   UNL     1       0.687   3.254  19.798  0.00  0.00    +0.000 A 
ATOM     34  C   UNL     1       1.517   4.370  19.941  0.00  0.00    +0.000 A 
ENDBRANCH  28  29
ENDBRANCH   3  28
TORSDOF 6
ENDMDL
MODEL 7
REMARK VINA RESULT:      -8.0      1.077      1.251
REMARK  Name = 
REMARK  6 active torsions:
REMARK  status: ('A' for Active; 'I' for Inactive)
REMARK    1  A    between atoms: N_3  and  C_4
REMARK    2  A    between atoms: C_4  and  C_5
REMARK    3  A    between atoms: C_14  and  C_15
REMARK    4  A    between atoms: C_17  and  C_18
REMARK    5  A    between atoms: C_18  and  C_19
REMARK    6  A    between atoms: C_19  and  N_20
REMARK                            x       y       z     vdW  Elec       q    Type
REMARK                         _______ _______ _______ _____ _____    ______ ____
ROOT
ATOM      1  O   UNL     1       3.289   6.736  17.978  0.00  0.00    +0.000 OA
ATOM      2  C   UNL     1       2.837   7.026  19.081  0.00  0.00    +0.000 C 
ATOM      3  N   UNL     1       2.988   6.180  20.145  0.00  0.00    +0.000 N 
ATOM      4  N   UNL     1       2.134   8.188  19.336  0.00  0.00    +0.000 N 
ATOM      5  C   UNL     1       1.821   8.722  20.661  0.00  0.00    +0.000 C 
ATOM      6  C   UNL     1       0.403   9.291  20.684  0.00  0.00    +0.000 C 
ATOM      7  C   UNL     1       0.191  10.334  19.581  0.00  0.00    +0.000 C 
ATOM      8  C   UNL     1       0.584   9.740  18.219  0.00  0.00    +0.000 C 
ATOM      9  C   UNL     1       1.990   9.140  18.237  0.00  0.00    +0.000 C 
ATOM     10  H   UNL     1       2.223   6.173  20.795  0.00  0.00    +0.000 HD
ENDROOT
BRANCH   7  11
ATOM     11  C   UNL     1       0.920  11.609  19.883  0.00  0.00    +0.000 A 
ATOM     12  N   UNL     1       1.593  12.411  19.086  0.00  0.00    +0.000 NA
ATOM     13  C   UNL     1       2.018  13.402  19.943  0.00  0.00    +0.000 A 
ATOM     14  N   UNL     1       1.628  13.237  21.215  0.00  0.00    +0.000 NA
ATOM     15  O   UNL     1       0.889  12.050  21.176  0.00  0.00    +0.000 OA
BRANCH  13  16
ATOM     16  C   UNL     1       2.794  14.596  19.474  0.00  0.00    +0.000 C 
BRANCH  16  17
ATOM     17  C   UNL     1       4.079  14.739  20.295  0.00  0.00    +0.000 C 
BRANCH  17  18
ATOM     18  N   UNL     1       5.298  15.332  19.685  0.00  0.00    +0.000 NA
ATOM     19  C   UNL     1       5.267  14.894  18.267  0.00  0.00    +0.000 C 
ATOM     20  C   UNL     1       6.577  15.074  17.541  0.00  0.00    +0.000 C 
ATOM     21  C   UNL     1       7.518  14.147  18.234  0.00  0.00    +0.000 A 
ATOM     22  C   UNL     1       8.116  13.058  17.609  0.00  0.00    +0.000 A 
ATOM     23  C   UNL     1       9.119  12.365  18.273  0.00  0.00    +0.000 A 
ATOM     24  C   UNL     1       9.570  12.832  19.507  0.00  0.00    +0.000 A 
ATOM     25  C   UNL     1       8.849  13.823  20.186  0.00  0.00    +0.000 A 
ATOM     26  C   UNL     1       7.703  14.365  19.598  0.00  0.00    +0.000 A 
ATOM     27  C   UNL     1       6.589  15.049  20.396  0.00  0.00    +0.000 C 
ENDBRANCH  17  18
ENDBRANCH  16  17
ENDBRANCH  13  16
ENDBRANCH   7  11
BRANCH   3  28
ATOM     28  C   UNL     1       3.615   4.887  19.946  0.00  0.00    +0.000 C 
BRANCH  28  29
ATOM     29  C   UNL     1       2.602   3.870  19.485  0.00  0.00    +0.000 A 
ATOM     30  C   UNL     1       1.386   3.708  20.171  0.00  0.00    +0.000 A 
ATOM     31  C   UNL     1       0.474   2.739  19.742  0.00  0.00    +0.000 A 
ATOM     32  C   UNL     1       0.754   1.944  18.632  0.00  0.00    +0.000 A 
ATOM     33  C   UNL     1       1.960   2.097  17.952  0.00  0.00    +0.000 A 
ATOM     34  C   UNL     1       2.883   3.058  18.377  0.00  0.00    +0.000 A 
ENDBRANCH  28  29
ENDBRANCH   3  28
TORSDOF 6
ENDMDL
MODEL 8
REMARK VINA RESULT:      -7.9      3.815      5.993
REMARK  Name = 
REMARK  6 active torsions:
REMARK  status: ('A' for Active; 'I' for Inactive)
REMARK    1  A    between atoms: N_3  and  C_4
REMARK    2  A    between atoms: C_4  and  C_5
REMARK    3  A    between atoms: C_14  and  C_15
REMARK    4  A    between atoms: C_17  and  C_18
REMARK    5  A    between atoms: C_18  and  C_19
REMARK    6  A    between atoms: C_19  and  N_20
REMARK                            x       y       z     vdW  Elec       q    Type
REMARK                         _______ _______ _______ _____ _____    ______ ____
ROOT
ATOM      1  O   UNL     1       1.727   8.747  17.424  0.00  0.00    +0.000 OA
ATOM      2  C   UNL     1       1.643   8.777  18.648  0.00  0.00    +0.000 C 
ATOM      3  N   UNL     1       2.239   7.813  19.414  0.00  0.00    +0.000 N 
ATOM      4  N   UNL     1       0.941   9.742  19.342  0.00  0.00    +0.000 N 
ATOM      5  C   UNL     1       1.034   9.999  20.778  0.00  0.00    +0.000 C 
ATOM      6  C   UNL     1      -0.348  10.300  21.357  0.00  0.00    +0.000 C 
ATOM      7  C   UNL     1      -1.036  11.450  20.614  0.00  0.00    +0.000 C 
ATOM      8  C   UNL     1      -1.061  11.157  19.105  0.00  0.00    +0.000 C 
ATOM      9  C   UNL     1       0.327  10.816  18.563  0.00  0.00    +0.000 C 
ATOM     10  H   UNL     1       1.745   7.570  20.253  0.00  0.00    +0.000 HD
ENDROOT
BRANCH   7  11
ATOM     11  C   UNL     1      -0.397  12.769  20.931  0.00  0.00    +0.000 A 
ATOM     12  N   UNL     1      -0.452  13.915  20.288  0.00  0.00    +0.000 NA
ATOM     13  C   UNL     1       0.327  14.740  21.069  0.00  0.00    +0.000 A 
ATOM     14  N   UNL     1       0.842  14.145  22.155  0.00  0.00    +0.000 NA
ATOM     15  O   UNL     1       0.354  12.837  22.071  0.00  0.00    +0.000 OA
BRANCH  13  16
ATOM     16  C   UNL     1       0.523  16.194  20.763  0.00  0.00    +0.000 C 
BRANCH  16  17
ATOM     17  C   UNL     1       0.162  17.039  21.988  0.00  0.00    +0.000 C 
BRANCH  17  18
ATOM     18  N   UNL     1      -1.222  17.025  22.528  0.00  0.00    +0.000 NA
ATOM     19  C   UNL     1      -1.105  16.388  23.864  0.00  0.00    +0.000 C 
ATOM     20  C   UNL     1      -2.422  15.944  24.449  0.00  0.00    +0.000 C 
ATOM     21  C   UNL     1      -2.897  14.872  23.527  0.00  0.00    +0.000 A 
ATOM     22  C   UNL     1      -3.067  13.547  23.917  0.00  0.00    +0.000 A 
ATOM     23  C   UNL     1      -3.690  12.661  23.048  0.00  0.00    +0.000 A 
ATOM     24  C   UNL     1      -4.217  13.138  21.848  0.00  0.00    +0.000 A 
ATOM     25  C   UNL     1      -3.892  14.427  21.405  0.00  0.00    +0.000 A 
ATOM     26  C   UNL     1      -3.076  15.241  22.194  0.00  0.00    +0.000 A 
ATOM     27  C   UNL     1      -2.266  16.415  21.638  0.00  0.00    +0.000 C 
ENDBRANCH  17  18
ENDBRANCH  16  17
ENDBRANCH  13  16
ENDBRANCH   7  11
BRANCH   3  28
ATOM     28  C   UNL     1       2.905   6.697  18.768  0.00  0.00    +0.000 C 
BRANCH  28  29
ATOM     29  C   UNL     1       2.193   5.404  19.075  0.00  0.00    +0.000 A 
ATOM     30  C   UNL     1       1.784   5.104  20.386  0.00  0.00    +0.000 A 
ATOM     31  C   UNL     1       1.151   3.886  20.652  0.00  0.00    +0.000 A 
ATOM     32  C   UNL     1       0.909   2.975  19.625  0.00  0.00    +0.000 A 
ATOM     33  C   UNL     1       1.317   3.265  18.326  0.00  0.00    +0.000 A 
ATOM     34  C   UNL     1       1.958   4.476  18.050  0.00  0.00    +0.000 A 
ENDBRANCH  28  29
ENDBRANCH   3  28
TORSDOF 6
ENDMDL
MODEL 9
REMARK VINA RESULT:      -7.9      3.550      5.933
REMARK  Name = 
REMARK  6 active torsions:
REMARK  status: ('A' for Active; 'I' for Inactive)
REMARK    1  A    between atoms: N_3  and  C_4
REMARK    2  A    between atoms: C_4  and  C_5
REMARK    3  A    between atoms: C_14  and  C_15
REMARK    4  A    between atoms: C_17  and  C_18
REMARK    5  A    between atoms: C_18  and  C_19
REMARK    6  A    between atoms: C_19  and  N_20
REMARK                            x       y       z     vdW  Elec       q    Type
REMARK                         _______ _______ _______ _____ _____    ______ ____
ROOT
ATOM      1  O   UNL     1       2.831   7.587  17.821  0.00  0.00    +0.000 OA
ATOM      2  C   UNL     1       2.354   7.744  18.940  0.00  0.00    +0.000 C 
ATOM      3  N   UNL     1       2.641   6.871  19.952  0.00  0.00    +0.000 N 
ATOM      4  N   UNL     1       1.491   8.772  19.265  0.00  0.00    +0.000 N 
ATOM      5  C   UNL     1       1.118   9.178  20.619  0.00  0.00    +0.000 C 
ATOM      6  C   UNL     1      -0.368   9.529  20.680  0.00  0.00    +0.000 C 
ATOM      7  C   UNL     1      -0.745  10.590  19.640  0.00  0.00    +0.000 C 
ATOM      8  C   UNL     1      -0.284  10.140  18.245  0.00  0.00    +0.000 C 
ATOM      9  C   UNL     1       1.194   9.754  18.223  0.00  0.00    +0.000 C 
ATOM     10  H   UNL     1       1.893   6.713  20.604  0.00  0.00    +0.000 HD
ENDROOT
BRANCH   7  11
ATOM     11  C   UNL     1      -0.208  11.939  20.013  0.00  0.00    +0.000 A 
ATOM     12  N   UNL     1       0.039  12.456  21.197  0.00  0.00    +0.000 NA
ATOM     13  C   UNL     1       0.518  13.710  20.887  0.00  0.00    +0.000 A 
ATOM     14  N   UNL     1       0.576  13.968  19.573  0.00  0.00    +0.000 NA
ATOM     15  O   UNL     1       0.103  12.788  18.989  0.00  0.00    +0.000 OA
BRANCH  13  16
ATOM     16  C   UNL     1       0.995  14.674  21.931  0.00  0.00    +0.000 C 
BRANCH  16  17
ATOM     17  C   UNL     1       0.354  16.047  21.707  0.00  0.00    +0.000 C 
BRANCH  17  18
ATOM     18  N   UNL     1      -0.950  16.379  22.337  0.00  0.00    +0.000 NA
ATOM     19  C   UNL     1      -0.834  15.890  23.735  0.00  0.00    +0.000 C 
ATOM     20  C   UNL     1      -2.152  15.795  24.462  0.00  0.00    +0.000 C 
ATOM     21  C   UNL     1      -2.910  14.744  23.724  0.00  0.00    +0.000 A 
ATOM     22  C   UNL     1      -3.296  13.536  24.297  0.00  0.00    +0.000 A 
ATOM     23  C   UNL     1      -4.158  12.702  23.598  0.00  0.00    +0.000 A 
ATOM     24  C   UNL     1      -4.692  13.134  22.384  0.00  0.00    +0.000 A 
ATOM     25  C   UNL     1      -4.167  14.269  21.753  0.00  0.00    +0.000 A 
ATOM     26  C   UNL     1      -3.137  14.985  22.370  0.00  0.00    +0.000 A 
ATOM     27  C   UNL     1      -2.171  15.896  21.609  0.00  0.00    +0.000 C 
ENDBRANCH  17  18
ENDBRANCH  16  17
ENDBRANCH  13  16
ENDBRANCH   7  11
BRANCH   3  28
ATOM     28  C   UNL     1       3.450   5.698  19.677  0.00  0.00    +0.000 C 
BRANCH  28  29
ATOM     29  C   UNL     1       2.574   4.509  19.369  0.00  0.00    +0.000 A 
ATOM     30  C   UNL     1       1.534   4.141  20.238  0.00  0.00    +0.000 A 
ATOM     31  C   UNL     1       0.753   3.018  19.947  0.00  0.00    +0.000 A 
ATOM     32  C   UNL     1       0.990   2.271  18.794  0.00  0.00    +0.000 A 
ATOM     33  C   UNL     1       2.023   2.628  17.932  0.00  0.00    +0.000 A 
ATOM     34  C   UNL     1       2.815   3.744  18.219  0.00  0.00    +0.000 A 
ENDBRANCH  28  29
ENDBRANCH   3  28
TORSDOF 6
ENDMDL
