MODEL 1
REMARK VINA RESULT:      -8.1      0.000      0.000
REMARK  Name = 
REMARK  11 active torsions:
REMARK  status: ('A' for Active; 'I' for Inactive)
REMARK    1  A    between atoms: C_1  and  C_2
REMARK    2  A    between atoms: C_2  and  C_3
REMARK    3  A    between atoms: C_4  and  C_5
REMARK    4  A    between atoms: C_5  and  C_6
REMARK    5  A    between atoms: C_8  and  C_9
REMARK    6  A    between atoms: C_11  and  C_12
REMARK    7  A    between atoms: C_15  and  S_16
REMARK    8  A    between atoms: S_16  and  C_17
REMARK    9  A    between atoms: C_17  and  C_18
REMARK   10  A    between atoms: C_21  and  O_22
REMARK   11  A    between atoms: O_22  and  C_23
REMARK                            x       y       z     vdW  Elec       q    Type
REMARK                         _______ _______ _______ _____ _____    ______ ____
ROOT
ATOM      1  C   UNL     1       2.705   3.867  19.793  0.00  0.00    +0.000 A 
ATOM      2  C   UNL     1       2.762   4.807  18.823  0.00  0.00    +0.000 A 
ATOM      3  N   UNL     1       2.414   6.137  19.019  0.00  0.00    +0.000 NA
ATOM      4  C   UNL     1       2.031   6.477  20.202  0.00  0.00    +0.000 A 
ATOM      5  N   UNL     1       1.952   5.626  21.252  0.00  0.00    +0.000 N 
ATOM      6  C   UNL     1       2.277   4.313  21.145  0.00  0.00    +0.000 A 
ATOM      7  O   UNL     1       2.199   3.549  22.104  0.00  0.00    +0.000 OA
ATOM      8  H   UNL     1       1.653   5.970  22.151  0.00  0.00    +0.000 HD
ENDROOT
BRANCH   1  10
ATOM      9  C   UNL     1       4.523   2.128  19.904  0.00  0.00    +0.000 C 
ATOM     10  C   UNL     1       3.045   2.404  19.657  0.00  0.00    +0.000 C 
ENDBRANCH   1  10
BRANCH   2  11
ATOM     11  C   UNL     1       3.080   4.449  17.375  0.00  0.00    +0.000 C 
BRANCH  11  12
ATOM     12  C   UNL     1       4.514   4.641  16.920  0.00  0.00    +0.000 A 
ATOM     13  C   UNL     1       4.906   4.247  15.627  0.00  0.00    +0.000 A 
ATOM     14  C   UNL     1       6.186   4.536  15.137  0.00  0.00    +0.000 A 
ATOM     15  C   UNL     1       6.602   4.121  13.756  0.00  0.00    +0.000 C 
ATOM     16  C   UNL     1       7.076   5.254  15.943  0.00  0.00    +0.000 A 
ATOM     17  C   UNL     1       6.714   5.646  17.239  0.00  0.00    +0.000 A 
ATOM     18  C   UNL     1       7.644   6.480  18.069  0.00  0.00    +0.000 C 
ATOM     19  C   UNL     1       5.439   5.320  17.724  0.00  0.00    +0.000 A 
ENDBRANCH  11  12
ENDBRANCH   2  11
BRANCH   4  20
ATOM     20  S   UNL     1       1.585   8.086  20.670  0.00  0.00    +0.000 S 
BRANCH  20  21
ATOM     21  C   UNL     1       1.529   8.948  19.072  0.00  0.00    +0.000 C 
BRANCH  21  22
ATOM     22  C   UNL     1       0.317   9.858  19.003  0.00  0.00    +0.000 A 
ATOM     23  C   UNL     1      -0.048  10.640  20.108  0.00  0.00    +0.000 A 
ATOM     24  C   UNL     1      -1.211  11.416  20.078  0.00  0.00    +0.000 A 
ATOM     25  C   UNL     1      -2.024  11.442  18.944  0.00  0.00    +0.000 A 
ATOM     26  C   UNL     1      -1.669  10.678  17.835  0.00  0.00    +0.000 A 
ATOM     27  C   UNL     1      -0.508   9.888  17.866  0.00  0.00    +0.000 A 
BRANCH  25  28
ATOM     28  O   UNL     1      -3.157  12.198  19.067  0.00  0.00    +0.000 OA
ATOM     29  C   UNL     1      -3.392  12.787  20.340  0.00  0.00    +0.000 C 
ENDBRANCH  25  28
ENDBRANCH  21  22
ENDBRANCH  20  21
ENDBRANCH   4  20
TORSDOF 7
ENDMDL
MODEL 2
REMARK VINA RESULT:      -8.1      1.724      1.989
REMARK  Name = 
REMARK  11 active torsions:
REMARK  status: ('A' for Active; 'I' for Inactive)
REMARK    1  A    between atoms: C_1  and  C_2
REMARK    2  A    between atoms: C_2  and  C_3
REMARK    3  A    between atoms: C_4  and  C_5
REMARK    4  A    between atoms: C_5  and  C_6
REMARK    5  A    between atoms: C_8  and  C_9
REMARK    6  A    between atoms: C_11  and  C_12
REMARK    7  A    between atoms: C_15  and  S_16
REMARK    8  A    between atoms: S_16  and  C_17
REMARK    9  A    between atoms: C_17  and  C_18
REMARK   10  A    between atoms: C_21  and  O_22
REMARK   11  A    between atoms: O_22  and  C_23
REMARK                            x       y       z     vdW  Elec       q    Type
REMARK                         _______ _______ _______ _____ _____    ______ ____
ROOT
ATOM      1  C   UNL     1       2.716   3.894  19.602  0.00  0.00    +0.000 A 
ATOM      2  C   UNL     1       2.851   4.688  18.515  0.00  0.00    +0.000 A 
ATOM      3  N   UNL     1       2.566   6.047  18.514  0.00  0.00    +0.000 NA
ATOM      4  C   UNL     1       2.165   6.565  19.625  0.00  0.00    +0.000 A 
ATOM      5  N   UNL     1       2.011   5.872  20.777  0.00  0.00    +0.000 N 
ATOM      6  C   UNL     1       2.272   4.544  20.863  0.00  0.00    +0.000 A 
ATOM      7  O   UNL     1       2.125   3.923  21.914  0.00  0.00    +0.000 OA
ATOM      8  H   UNL     1       1.704   6.351  21.609  0.00  0.00    +0.000 HD
ENDROOT
BRANCH   1  10
ATOM      9  C   UNL     1       4.423   2.105  20.072  0.00  0.00    +0.000 C 
ATOM     10  C   UNL     1       2.984   2.413  19.679  0.00  0.00    +0.000 C 
ENDBRANCH   1  10
BRANCH   2  11
ATOM     11  C   UNL     1       3.192   4.118  17.141  0.00  0.00    +0.000 C 
BRANCH  11  12
ATOM     12  C   UNL     1       4.646   4.185  16.714  0.00  0.00    +0.000 A 
ATOM     13  C   UNL     1       4.989   4.102  15.352  0.00  0.00    +0.000 A 
ATOM     14  C   UNL     1       6.308   4.296  14.922  0.00  0.00    +0.000 A 
ATOM     15  C   UNL     1       6.672   4.212  13.468  0.00  0.00    +0.000 C 
ATOM     16  C   UNL     1       7.292   4.607  15.867  0.00  0.00    +0.000 A 
ATOM     17  C   UNL     1       6.978   4.683  17.230  0.00  0.00    +0.000 A 
ATOM     18  C   UNL     1       8.021   5.091  18.229  0.00  0.00    +0.000 C 
ATOM     19  C   UNL     1       5.659   4.454  17.646  0.00  0.00    +0.000 A 
ENDBRANCH  11  12
ENDBRANCH   2  11
BRANCH   4  20
ATOM     20  S   UNL     1       1.789   8.243  19.851  0.00  0.00    +0.000 S 
BRANCH  20  21
ATOM     21  C   UNL     1       1.146   8.267  21.549  0.00  0.00    +0.000 C 
BRANCH  21  22
ATOM     22  C   UNL     1       0.441   9.580  21.830  0.00  0.00    +0.000 A 
ATOM     23  C   UNL     1      -0.455   9.690  22.902  0.00  0.00    +0.000 A 
ATOM     24  C   UNL     1      -1.169  10.873  23.116  0.00  0.00    +0.000 A 
ATOM     25  C   UNL     1      -0.995  11.974  22.277  0.00  0.00    +0.000 A 
ATOM     26  C   UNL     1      -0.100  11.884  21.213  0.00  0.00    +0.000 A 
ATOM     27  C   UNL     1       0.610  10.693  20.989  0.00  0.00    +0.000 A 
BRANCH  25  28
ATOM     28  O   UNL     1      -1.793  13.047  22.564  0.00  0.00    +0.000 OA
ATOM     29  C   UNL     1      -1.324  13.936  23.570  0.00  0.00    +0.000 C 
ENDBRANCH  25  28
ENDBRANCH  21  22
ENDBRANCH  20  21
ENDBRANCH   4  20
TORSDOF 7
ENDMDL
MODEL 3
REMARK VINA RESULT:      -8.1      3.294      7.561
REMARK  Name = 
REMARK  11 active torsions:
REMARK  status: ('A' for Active; 'I' for Inactive)
REMARK    1  A    between atoms: C_1  and  C_2
REMARK    2  A    between atoms: C_2  and  C_3
REMARK    3  A    between atoms: C_4  and  C_5
REMARK    4  A    between atoms: C_5  and  C_6
REMARK    5  A    between atoms: C_8  and  C_9
REMARK    6  A    between atoms: C_11  and  C_12
REMARK    7  A    between atoms: C_15  and  S_16
REMARK    8  A    between atoms: S_16  and  C_17
REMARK    9  A    between atoms: C_17  and  C_18
REMARK   10  A    between atoms: C_21  and  O_22
REMARK   11  A    between atoms: O_22  and  C_23
REMARK                            x       y       z     vdW  Elec       q    Type
REMARK                         _______ _______ _______ _____ _____    ______ ____
ROOT
ATOM      1  C   UNL     1       1.826   3.966  19.301  0.00  0.00    +0.000 A 
ATOM      2  C   UNL     1       2.669   5.022  19.235  0.00  0.00    +0.000 A 
ATOM      3  N   UNL     1       3.592   5.207  18.215  0.00  0.00    +0.000 NA
ATOM      4  C   UNL     1       3.622   4.319  17.280  0.00  0.00    +0.000 A 
ATOM      5  N   UNL     1       2.814   3.233  17.234  0.00  0.00    +0.000 N 
ATOM      6  C   UNL     1       1.884   2.982  18.189  0.00  0.00    +0.000 A 
ATOM      7  O   UNL     1       1.159   1.991  18.139  0.00  0.00    +0.000 OA
ATOM      8  H   UNL     1       2.890   2.589  16.463  0.00  0.00    +0.000 HD
ENDROOT
BRANCH   1  10
ATOM      9  C   UNL     1       1.376   2.795  21.484  0.00  0.00    +0.000 C 
ATOM     10  C   UNL     1       0.813   3.684  20.382  0.00  0.00    +0.000 C 
ENDBRANCH   1  10
BRANCH   2  11
ATOM     11  C   UNL     1       2.778   6.036  20.370  0.00  0.00    +0.000 C 
BRANCH  11  12
ATOM     12  C   UNL     1       1.913   7.277  20.265  0.00  0.00    +0.000 A 
ATOM     13  C   UNL     1       1.084   7.657  21.336  0.00  0.00    +0.000 A 
ATOM     14  C   UNL     1       0.381   8.869  21.316  0.00  0.00    +0.000 A 
ATOM     15  C   UNL     1      -0.499   9.275  22.462  0.00  0.00    +0.000 C 
ATOM     16  C   UNL     1       0.533   9.725  20.220  0.00  0.00    +0.000 A 
ATOM     17  C   UNL     1       1.343   9.364  19.136  0.00  0.00    +0.000 A 
ATOM     18  C   UNL     1       1.561  10.318  17.999  0.00  0.00    +0.000 C 
ATOM     19  C   UNL     1       2.014   8.133  19.158  0.00  0.00    +0.000 A 
ENDBRANCH  11  12
ENDBRANCH   2  11
BRANCH   4  20
ATOM     20  S   UNL     1       4.670   4.375  15.900  0.00  0.00    +0.000 S 
BRANCH  20  21
ATOM     21  C   UNL     1       6.276   3.926  16.620  0.00  0.00    +0.000 C 
BRANCH  21  22
ATOM     22  C   UNL     1       6.974   5.158  17.166  0.00  0.00    +0.000 A 
ATOM     23  C   UNL     1       7.559   5.136  18.439  0.00  0.00    +0.000 A 
ATOM     24  C   UNL     1       8.131   6.292  18.980  0.00  0.00    +0.000 A 
ATOM     25  C   UNL     1       8.146   7.486  18.260  0.00  0.00    +0.000 A 
ATOM     26  C   UNL     1       7.578   7.521  16.988  0.00  0.00    +0.000 A 
ATOM     27  C   UNL     1       6.993   6.364  16.447  0.00  0.00    +0.000 A 
BRANCH  25  28
ATOM     28  O   UNL     1       8.686   8.552  18.925  0.00  0.00    +0.000 OA
ATOM     29  C   UNL     1       8.469   9.835  18.350  0.00  0.00    +0.000 C 
ENDBRANCH  25  28
ENDBRANCH  21  22
ENDBRANCH  20  21
ENDBRANCH   4  20
TORSDOF 7
ENDMDL
MODEL 4
REMARK VINA RESULT:      -8.0      2.635      9.299
REMARK  Name = 
REMARK  11 active torsions:
REMARK  status: ('A' for Active; 'I' for Inactive)
REMARK    1  A    between atoms: C_1  and  C_2
REMARK    2  A    between atoms: C_2  and  C_3
REMARK    3  A    between atoms: C_4  and  C_5
REMARK    4  A    between atoms: C_5  and  C_6
REMARK    5  A    between atoms: C_8  and  C_9
REMARK    6  A    between atoms: C_11  and  C_12
REMARK    7  A    between atoms: C_15  and  S_16
REMARK    8  A    between atoms: S_16  and  C_17
REMARK    9  A    between atoms: C_17  and  C_18
REMARK   10  A    between atoms: C_21  and  O_22
REMARK   11  A    between atoms: O_22  and  C_23
REMARK                            x       y       z     vdW  Elec       q    Type
REMARK                         _______ _______ _______ _____ _____    ______ ____
ROOT
ATOM      1  C   UNL     1      -0.441  10.865  21.451  0.00  0.00    +0.000 A 
ATOM      2  C   UNL     1      -0.210  10.667  20.132  0.00  0.00    +0.000 A 
ATOM      3  N   UNL     1       0.564   9.628  19.634  0.00  0.00    +0.000 NA
ATOM      4  C   UNL     1       1.069   8.807  20.491  0.00  0.00    +0.000 A 
ATOM      5  N   UNL     1       0.890   8.898  21.830  0.00  0.00    +0.000 N 
ATOM      6  C   UNL     1       0.146   9.880  22.396  0.00  0.00    +0.000 A 
ATOM      7  O   UNL     1      -0.007   9.954  23.613  0.00  0.00    +0.000 OA
ATOM      8  H   UNL     1       1.310   8.210  22.435  0.00  0.00    +0.000 HD
ENDROOT
BRANCH   1  10
ATOM      9  C   UNL     1      -0.424  13.239  22.290  0.00  0.00    +0.000 C 
ATOM     10  C   UNL     1      -1.249  11.977  22.071  0.00  0.00    +0.000 C 
ENDBRANCH   1  10
BRANCH   2  11
ATOM     11  C   UNL     1      -0.667  11.671  19.078  0.00  0.00    +0.000 C 
BRANCH  11  12
ATOM     12  C   UNL     1      -1.957  11.356  18.346  0.00  0.00    +0.000 A 
ATOM     13  C   UNL     1      -3.187  11.823  18.845  0.00  0.00    +0.000 A 
ATOM     14  C   UNL     1      -4.374  11.661  18.119  0.00  0.00    +0.000 A 
ATOM     15  C   UNL     1      -5.685  12.165  18.650  0.00  0.00    +0.000 C 
ATOM     16  C   UNL     1      -4.324  11.049  16.862  0.00  0.00    +0.000 A 
ATOM     17  C   UNL     1      -3.114  10.565  16.348  0.00  0.00    +0.000 A 
ATOM     18  C   UNL     1      -3.053   9.978  14.969  0.00  0.00    +0.000 C 
ATOM     19  C   UNL     1      -1.941  10.707  17.103  0.00  0.00    +0.000 A 
ENDBRANCH  11  12
ENDBRANCH   2  11
BRANCH   4  20
ATOM     20  S   UNL     1       2.035   7.426  20.082  0.00  0.00    +0.000 S 
BRANCH  20  21
ATOM     21  C   UNL     1       2.494   7.775  18.360  0.00  0.00    +0.000 C 
BRANCH  21  22
ATOM     22  C   UNL     1       3.330   6.642  17.795  0.00  0.00    +0.000 A 
ATOM     23  C   UNL     1       4.502   6.915  17.077  0.00  0.00    +0.000 A 
ATOM     24  C   UNL     1       5.232   5.880  16.484  0.00  0.00    +0.000 A 
ATOM     25  C   UNL     1       4.819   4.553  16.607  0.00  0.00    +0.000 A 
ATOM     26  C   UNL     1       3.662   4.264  17.327  0.00  0.00    +0.000 A 
ATOM     27  C   UNL     1       2.920   5.304  17.914  0.00  0.00    +0.000 A 
BRANCH  25  28
ATOM     28  O   UNL     1       5.591   3.646  15.935  0.00  0.00    +0.000 OA
ATOM     29  C   UNL     1       6.601   4.178  15.087  0.00  0.00    +0.000 C 
ENDBRANCH  25  28
ENDBRANCH  21  22
ENDBRANCH  20  21
ENDBRANCH   4  20
TORSDOF 7
ENDMDL
MODEL 5
REMARK VINA RESULT:      -8.0      1.525      2.448
REMARK  Name = 
REMARK  11 active torsions:
REMARK  status: ('A' for Active; 'I' for Inactive)
REMARK    1  A    between atoms: C_1  and  C_2
REMARK    2  A    between atoms: C_2  and  C_3
REMARK    3  A    between atoms: C_4  and  C_5
REMARK    4  A    between atoms: C_5  and  C_6
REMARK    5  A    between atoms: C_8  and  C_9
REMARK    6  A    between atoms: C_11  and  C_12
REMARK    7  A    between atoms: C_15  and  S_16
REMARK    8  A    between atoms: S_16  and  C_17
REMARK    9  A    between atoms: C_17  and  C_18
REMARK   10  A    between atoms: C_21  and  O_22
REMARK   11  A    between atoms: O_22  and  C_23
REMARK                            x       y       z     vdW  Elec       q    Type
REMARK                         _______ _______ _______ _____ _____    ______ ____
ROOT
ATOM      1  C   UNL     1       2.841   3.803  19.742  0.00  0.00    +0.000 A 
ATOM      2  C   UNL     1       2.983   4.579  18.643  0.00  0.00    +0.000 A 
ATOM      3  N   UNL     1       2.655   5.928  18.606  0.00  0.00    +0.000 NA
ATOM      4  C   UNL     1       2.205   6.455  19.694  0.00  0.00    +0.000 A 
ATOM      5  N   UNL     1       2.038   5.779  20.855  0.00  0.00    +0.000 N 
ATOM      6  C   UNL     1       2.339   4.462  20.976  0.00  0.00    +0.000 A 
ATOM      7  O   UNL     1       2.180   3.858  22.034  0.00  0.00    +0.000 OA
ATOM      8  H   UNL     1       1.691   6.264  21.667  0.00  0.00    +0.000 HD
ENDROOT
BRANCH   1  10
ATOM      9  C   UNL     1       4.617   2.078  20.198  0.00  0.00    +0.000 C 
ATOM     10  C   UNL     1       3.154   2.333  19.857  0.00  0.00    +0.000 C 
ENDBRANCH   1  10
BRANCH   2  11
ATOM     11  C   UNL     1       3.384   3.994  17.292  0.00  0.00    +0.000 C 
BRANCH  11  12
ATOM     12  C   UNL     1       4.627   4.567  16.639  0.00  0.00    +0.000 A 
ATOM     13  C   UNL     1       5.486   5.411  17.367  0.00  0.00    +0.000 A 
ATOM     14  C   UNL     1       6.707   5.842  16.832  0.00  0.00    +0.000 A 
ATOM     15  C   UNL     1       7.624   6.739  17.612  0.00  0.00    +0.000 C 
ATOM     16  C   UNL     1       7.085   5.399  15.560  0.00  0.00    +0.000 A 
ATOM     17  C   UNL     1       6.243   4.568  14.810  0.00  0.00    +0.000 A 
ATOM     18  C   UNL     1       6.687   4.035  13.480  0.00  0.00    +0.000 C 
ATOM     19  C   UNL     1       5.010   4.172  15.349  0.00  0.00    +0.000 A 
ENDBRANCH  11  12
ENDBRANCH   2  11
BRANCH   4  20
ATOM     20  S   UNL     1       1.769   8.123  19.874  0.00  0.00    +0.000 S 
BRANCH  20  21
ATOM     21  C   UNL     1       1.176   8.182  21.589  0.00  0.00    +0.000 C 
BRANCH  21  22
ATOM     22  C   UNL     1       0.347   9.431  21.821  0.00  0.00    +0.000 A 
ATOM     23  C   UNL     1      -0.337   9.615  23.030  0.00  0.00    +0.000 A 
ATOM     24  C   UNL     1      -1.168  10.724  23.217  0.00  0.00    +0.000 A 
ATOM     25  C   UNL     1      -1.321  11.680  22.212  0.00  0.00    +0.000 A 
ATOM     26  C   UNL     1      -0.639  11.516  21.008  0.00  0.00    +0.000 A 
ATOM     27  C   UNL     1       0.187  10.397  20.814  0.00  0.00    +0.000 A 
BRANCH  25  28
ATOM     28  O   UNL     1      -2.203  12.684  22.503  0.00  0.00    +0.000 OA
ATOM     29  C   UNL     1      -3.212  12.384  23.460  0.00  0.00    +0.000 C 
ENDBRANCH  25  28
ENDBRANCH  21  22
ENDBRANCH  20  21
ENDBRANCH   4  20
TORSDOF 7
ENDMDL
MODEL 6
REMARK VINA RESULT:      -8.0      1.351      1.866
REMARK  Name = 
REMARK  11 active torsions:
REMARK  status: ('A' for Active; 'I' for Inactive)
REMARK    1  A    between atoms: C_1  and  C_2
REMARK    2  A    between atoms: C_2  and  C_3
REMARK    3  A    between atoms: C_4  and  C_5
REMARK    4  A    between atoms: C_5  and  C_6
REMARK    5  A    between atoms: C_8  and  C_9
REMARK    6  A    between atoms: C_11  and  C_12
REMARK    7  A    between atoms: C_15  and  S_16
REMARK    8  A    between atoms: S_16  and  C_17
REMARK    9  A    between atoms: C_17  and  C_18
REMARK   10  A    between atoms: C_21  and  O_22
REMARK   11  A    between atoms: O_22  and  C_23
REMARK                            x       y       z     vdW  Elec       q    Type
REMARK                         _______ _______ _______ _____ _____    ______ ____
ROOT
ATOM      1  C   UNL     1       2.833   3.764  19.760  0.00  0.00    +0.000 A 
ATOM      2  C   UNL     1       2.967   4.529  18.652  0.00  0.00    +0.000 A 
ATOM      3  N   UNL     1       2.648   5.879  18.606  0.00  0.00    +0.000 NA
ATOM      4  C   UNL     1       2.216   6.419  19.695  0.00  0.00    +0.000 A 
ATOM      5  N   UNL     1       2.059   5.756  20.864  0.00  0.00    +0.000 N 
ATOM      6  C   UNL     1       2.351   4.438  20.994  0.00  0.00    +0.000 A 
ATOM      7  O   UNL     1       2.202   3.845  22.060  0.00  0.00    +0.000 OA
ATOM      8  H   UNL     1       1.726   6.251  21.676  0.00  0.00    +0.000 HD
ENDROOT
BRANCH   1  10
ATOM      9  C   UNL     1       4.612   2.028  20.163  0.00  0.00    +0.000 C 
ATOM     10  C   UNL     1       3.137   2.293  19.885  0.00  0.00    +0.000 C 
ENDBRANCH   1  10
BRANCH   2  11
ATOM     11  C   UNL     1       3.347   3.928  17.302  0.00  0.00    +0.000 C 
BRANCH  11  12
ATOM     12  C   UNL     1       4.703   4.309  16.740  0.00  0.00    +0.000 A 
ATOM     13  C   UNL     1       5.052   3.949  15.425  0.00  0.00    +0.000 A 
ATOM     14  C   UNL     1       6.240   4.405  14.838  0.00  0.00    +0.000 A 
ATOM     15  C   UNL     1       6.608   4.025  13.433  0.00  0.00    +0.000 C 
ATOM     16  C   UNL     1       7.076   5.255  15.569  0.00  0.00    +0.000 A 
ATOM     17  C   UNL     1       6.757   5.617  16.884  0.00  0.00    +0.000 A 
ATOM     18  C   UNL     1       7.619   6.589  17.636  0.00  0.00    +0.000 C 
ATOM     19  C   UNL     1       5.580   5.127  17.467  0.00  0.00    +0.000 A 
ENDBRANCH  11  12
ENDBRANCH   2  11
BRANCH   4  20
ATOM     20  S   UNL     1       1.794   8.093  19.865  0.00  0.00    +0.000 S 
BRANCH  20  21
ATOM     21  C   UNL     1       1.134   8.152  21.556  0.00  0.00    +0.000 C 
BRANCH  21  22
ATOM     22  C   UNL     1       0.208   9.342  21.721  0.00  0.00    +0.000 A 
ATOM     23  C   UNL     1      -0.048  10.198  20.641  0.00  0.00    +0.000 A 
ATOM     24  C   UNL     1      -0.834  11.342  20.810  0.00  0.00    +0.000 A 
ATOM     25  C   UNL     1      -1.394  11.648  22.050  0.00  0.00    +0.000 A 
ATOM     26  C   UNL     1      -1.157  10.802  23.131  0.00  0.00    +0.000 A 
ATOM     27  C   UNL     1      -0.358   9.658  22.967  0.00  0.00    +0.000 A 
BRANCH  25  28
ATOM     28  O   UNL     1      -2.095  12.822  22.091  0.00  0.00    +0.000 OA
ATOM     29  C   UNL     1      -1.976  13.671  20.956  0.00  0.00    +0.000 C 
ENDBRANCH  25  28
ENDBRANCH  21  22
ENDBRANCH  20  21
ENDBRANCH   4  20
TORSDOF 7
ENDMDL
MODEL 7
REMARK VINA RESULT:      -8.0      0.451      1.666
REMARK  Name = 
REMARK  11 active torsions:
REMARK  status: ('A' for Active; 'I' for Inactive)
REMARK    1  A    between atoms: C_1  and  C_2
REMARK    2  A    between atoms: C_2  and  C_3
REMARK    3  A    between atoms: C_4  and  C_5
REMARK    4  A    between atoms: C_5  and  C_6
REMARK    5  A    between atoms: C_8  and  C_9
REMARK    6  A    between atoms: C_11  and  C_12
REMARK    7  A    between atoms: C_15  and  S_16
REMARK    8  A    between atoms: S_16  and  C_17
REMARK    9  A    between atoms: C_17  and  C_18
REMARK   10  A    between atoms: C_21  and  O_22
REMARK   11  A    between atoms: O_22  and  C_23
REMARK                            x       y       z     vdW  Elec       q    Type
REMARK                         _______ _______ _______ _____ _____    ______ ____
ROOT
ATOM      1  C   UNL     1       2.635   3.850  19.810  0.00  0.00    +0.000 A 
ATOM      2  C   UNL     1       2.702   4.806  18.855  0.00  0.00    +0.000 A 
ATOM      3  N   UNL     1       2.371   6.137  19.074  0.00  0.00    +0.000 NA
ATOM      4  C   UNL     1       1.996   6.462  20.264  0.00  0.00    +0.000 A 
ATOM      5  N   UNL     1       1.909   5.595  21.300  0.00  0.00    +0.000 N 
ATOM      6  C   UNL     1       2.217   4.280  21.170  0.00  0.00    +0.000 A 
ATOM      7  O   UNL     1       2.131   3.500  22.117  0.00  0.00    +0.000 OA
ATOM      8  H   UNL     1       1.618   5.928  22.205  0.00  0.00    +0.000 HD
ENDROOT
BRANCH   1  10
ATOM      9  C   UNL     1       4.423   2.081  19.921  0.00  0.00    +0.000 C 
ATOM     10  C   UNL     1       2.955   2.386  19.648  0.00  0.00    +0.000 C 
ENDBRANCH   1  10
BRANCH   2  11
ATOM     11  C   UNL     1       3.010   4.468  17.400  0.00  0.00    +0.000 C 
BRANCH  11  12
ATOM     12  C   UNL     1       4.443   4.656  16.942  0.00  0.00    +0.000 A 
ATOM     13  C   UNL     1       5.452   4.962  17.874  0.00  0.00    +0.000 A 
ATOM     14  C   UNL     1       6.800   5.007  17.497  0.00  0.00    +0.000 A 
ATOM     15  C   UNL     1       7.875   5.327  18.494  0.00  0.00    +0.000 C 
ATOM     16  C   UNL     1       7.146   4.714  16.174  0.00  0.00    +0.000 A 
ATOM     17  C   UNL     1       6.159   4.419  15.223  0.00  0.00    +0.000 A 
ATOM     18  C   UNL     1       6.542   4.032  13.825  0.00  0.00    +0.000 C 
ATOM     19  C   UNL     1       4.812   4.410  15.611  0.00  0.00    +0.000 A 
ENDBRANCH  11  12
ENDBRANCH   2  11
BRANCH   4  20
ATOM     20  S   UNL     1       1.573   8.069  20.760  0.00  0.00    +0.000 S 
BRANCH  20  21
ATOM     21  C   UNL     1       1.380   8.923  19.169  0.00  0.00    +0.000 C 
BRANCH  21  22
ATOM     22  C   UNL     1       0.259   9.942  19.247  0.00  0.00    +0.000 A 
ATOM     23  C   UNL     1      -0.018  10.602  20.452  0.00  0.00    +0.000 A 
ATOM     24  C   UNL     1      -1.101  11.481  20.551  0.00  0.00    +0.000 A 
ATOM     25  C   UNL     1      -1.921  11.731  19.450  0.00  0.00    +0.000 A 
ATOM     26  C   UNL     1      -1.653  11.090  18.242  0.00  0.00    +0.000 A 
ATOM     27  C   UNL     1      -0.571  10.199  18.143  0.00  0.00    +0.000 A 
BRANCH  25  28
ATOM     28  O   UNL     1      -2.975  12.566  19.696  0.00  0.00    +0.000 OA
ATOM     29  C   UNL     1      -2.780  13.556  20.699  0.00  0.00    +0.000 C 
ENDBRANCH  25  28
ENDBRANCH  21  22
ENDBRANCH  20  21
ENDBRANCH   4  20
TORSDOF 7
ENDMDL
MODEL 8
REMARK VINA RESULT:      -7.9      0.764      1.292
REMARK  Name = 
REMARK  11 active torsions:
REMARK  status: ('A' for Active; 'I' for Inactive)
REMARK    1  A    between atoms: C_1  and  C_2
REMARK    2  A    between atoms: C_2  and  C_3
REMARK    3  A    between atoms: C_4  and  C_5
REMARK    4  A    between atoms: C_5  and  C_6
REMARK    5  A    between atoms: C_8  and  C_9
REMARK    6  A    between atoms: C_11  and  C_12
REMARK    7  A    between atoms: C_15  and  S_16
REMARK    8  A    between atoms: S_16  and  C_17
REMARK    9  A    between atoms: C_17  and  C_18
REMARK   10  A    between atoms: C_21  and  O_22
REMARK   11  A    between atoms: O_22  and  C_23
REMARK                            x       y       z     vdW  Elec       q    Type
REMARK                         _______ _______ _______ _____ _____    ______ ____
ROOT
ATOM      1  C   UNL     1       2.686   4.326  19.648  0.00  0.00    +0.000 A 
ATOM      2  C   UNL     1       2.760   5.314  18.727  0.00  0.00    +0.000 A 
ATOM      3  N   UNL     1       2.363   6.622  18.969  0.00  0.00    +0.000 NA
ATOM      4  C   UNL     1       1.916   6.894  20.148  0.00  0.00    +0.000 A 
ATOM      5  N   UNL     1       1.815   5.990  21.151  0.00  0.00    +0.000 N 
ATOM      6  C   UNL     1       2.184   4.695  20.998  0.00  0.00    +0.000 A 
ATOM      7  O   UNL     1       2.085   3.882  21.915  0.00  0.00    +0.000 OA
ATOM      8  H   UNL     1       1.465   6.282  22.050  0.00  0.00    +0.000 HD
ENDROOT
BRANCH   1  10
ATOM      9  C   UNL     1       4.532   2.623  19.825  0.00  0.00    +0.000 C 
ATOM     10  C   UNL     1       3.076   2.882  19.459  0.00  0.00    +0.000 C 
ENDBRANCH   1  10
BRANCH   2  11
ATOM     11  C   UNL     1       3.154   5.036  17.280  0.00  0.00    +0.000 C 
BRANCH  11  12
ATOM     12  C   UNL     1       4.630   5.122  16.943  0.00  0.00    +0.000 A 
ATOM     13  C   UNL     1       5.097   4.690  15.688  0.00  0.00    +0.000 A 
ATOM     14  C   UNL     1       6.430   4.884  15.303  0.00  0.00    +0.000 A 
ATOM     15  C   UNL     1       6.926   4.428  13.961  0.00  0.00    +0.000 C 
ATOM     16  C   UNL     1       7.300   5.546  16.176  0.00  0.00    +0.000 A 
ATOM     17  C   UNL     1       6.862   5.975  17.436  0.00  0.00    +0.000 A 
ATOM     18  C   UNL     1       7.778   6.750  18.336  0.00  0.00    +0.000 C 
ATOM     19  C   UNL     1       5.533   5.743  17.817  0.00  0.00    +0.000 A 
ENDBRANCH  11  12
ENDBRANCH   2  11
BRANCH   4  20
ATOM     20  S   UNL     1       1.401   8.466  20.669  0.00  0.00    +0.000 S 
BRANCH  20  21
ATOM     21  C   UNL     1       1.369   9.396  19.110  0.00  0.00    +0.000 C 
BRANCH  21  22
ATOM     22  C   UNL     1      -0.004   9.998  18.881  0.00  0.00    +0.000 A 
ATOM     23  C   UNL     1      -0.777   9.603  17.780  0.00  0.00    +0.000 A 
ATOM     24  C   UNL     1      -2.007  10.214  17.517  0.00  0.00    +0.000 A 
ATOM     25  C   UNL     1      -2.500  11.217  18.353  0.00  0.00    +0.000 A 
ATOM     26  C   UNL     1      -1.748  11.613  19.457  0.00  0.00    +0.000 A 
ATOM     27  C   UNL     1      -0.506  11.008  19.716  0.00  0.00    +0.000 A 
BRANCH  25  28
ATOM     28  O   UNL     1      -3.686  11.767  17.953  0.00  0.00    +0.000 OA
ATOM     29  C   UNL     1      -4.163  11.382  16.670  0.00  0.00    +0.000 C 
ENDBRANCH  25  28
ENDBRANCH  21  22
ENDBRANCH  20  21
ENDBRANCH   4  20
TORSDOF 7
ENDMDL
MODEL 9
REMARK VINA RESULT:      -7.9      2.612      9.170
REMARK  Name = 
REMARK  11 active torsions:
REMARK  status: ('A' for Active; 'I' for Inactive)
REMARK    1  A    between atoms: C_1  and  C_2
REMARK    2  A    between atoms: C_2  and  C_3
REMARK    3  A    between atoms: C_4  and  C_5
REMARK    4  A    between atoms: C_5  and  C_6
REMARK    5  A    between atoms: C_8  and  C_9
REMARK    6  A    between atoms: C_11  and  C_12
REMARK    7  A    between atoms: C_15  and  S_16
REMARK    8  A    between atoms: S_16  and  C_17
REMARK    9  A    between atoms: C_17  and  C_18
REMARK   10  A    between atoms: C_21  and  O_22
REMARK   11  A    between atoms: O_22  and  C_23
REMARK                            x       y       z     vdW  Elec       q    Type
REMARK                         _______ _______ _______ _____ _____    ______ ____
ROOT
ATOM      1  C   UNL     1      -0.304  10.908  21.518  0.00  0.00    +0.000 A 
ATOM      2  C   UNL     1      -0.084  10.733  20.195  0.00  0.00    +0.000 A 
ATOM      3  N   UNL     1       0.632   9.668  19.667  0.00  0.00    +0.000 NA
ATOM      4  C   UNL     1       1.092   8.797  20.501  0.00  0.00    +0.000 A 
ATOM      5  N   UNL     1       0.918   8.861  21.842  0.00  0.00    +0.000 N 
ATOM      6  C   UNL     1       0.228   9.867  22.435  0.00  0.00    +0.000 A 
ATOM      7  O   UNL     1       0.079   9.916  23.655  0.00  0.00    +0.000 OA
ATOM      8  H   UNL     1       1.299   8.135  22.428  0.00  0.00    +0.000 HD
ENDROOT
BRANCH   1  10
ATOM      9  C   UNL     1      -0.217  13.318  22.241  0.00  0.00    +0.000 C 
ATOM     10  C   UNL     1      -1.050  12.044  22.169  0.00  0.00    +0.000 C 
ENDBRANCH   1  10
BRANCH   2  11
ATOM     11  C   UNL     1      -0.486  11.788  19.168  0.00  0.00    +0.000 C 
BRANCH  11  12
ATOM     12  C   UNL     1      -1.800  11.574  18.443  0.00  0.00    +0.000 A 
ATOM     13  C   UNL     1      -1.835  10.853  17.235  0.00  0.00    +0.000 A 
ATOM     14  C   UNL     1      -3.050  10.526  16.619  0.00  0.00    +0.000 A 
ATOM     15  C   UNL     1      -3.086   9.753  15.333  0.00  0.00    +0.000 C 
ATOM     16  C   UNL     1      -4.248  10.902  17.236  0.00  0.00    +0.000 A 
ATOM     17  C   UNL     1      -4.240  11.631  18.433  0.00  0.00    +0.000 A 
ATOM     18  C   UNL     1      -5.526  11.965  19.129  0.00  0.00    +0.000 C 
ATOM     19  C   UNL     1      -3.014  11.977  19.019  0.00  0.00    +0.000 A 
ENDBRANCH  11  12
ENDBRANCH   2  11
BRANCH   4  20
ATOM     20  S   UNL     1       1.981   7.377  20.054  0.00  0.00    +0.000 S 
BRANCH  20  21
ATOM     21  C   UNL     1       2.569   7.801  18.389  0.00  0.00    +0.000 C 
BRANCH  21  22
ATOM     22  C   UNL     1       3.394   6.665  17.814  0.00  0.00    +0.000 A 
ATOM     23  C   UNL     1       4.551   6.935  17.069  0.00  0.00    +0.000 A 
ATOM     24  C   UNL     1       5.269   5.897  16.468  0.00  0.00    +0.000 A 
ATOM     25  C   UNL     1       4.860   4.570  16.608  0.00  0.00    +0.000 A 
ATOM     26  C   UNL     1       3.718   4.285  17.353  0.00  0.00    +0.000 A 
ATOM     27  C   UNL     1       2.988   5.328  17.949  0.00  0.00    +0.000 A 
BRANCH  25  28
ATOM     28  O   UNL     1       5.618   3.660  15.925  0.00  0.00    +0.000 OA
ATOM     29  C   UNL     1       6.044   4.039  14.622  0.00  0.00    +0.000 C 
ENDBRANCH  25  28
ENDBRANCH  21  22
ENDBRANCH  20  21
ENDBRANCH   4  20
TORSDOF 7
ENDMDL
