MODEL 1
REMARK VINA RESULT:      -8.6      0.000      0.000
REMARK  Name = 
REMARK  6 active torsions:
REMARK  status: ('A' for Active; 'I' for Inactive)
REMARK    1  A    between atoms: C_1  and  O_2
REMARK    2  A    between atoms: O_2  and  C_3
REMARK    3  A    between atoms: C_5  and  C_6
REMARK    4  A    between atoms: C_7  and  S_8
REMARK    5  A    between atoms: S_8  and  N_11
REMARK    6  A    between atoms: C_25  and  C_26
REMARK                            x       y       z     vdW  Elec       q    Type
REMARK                         _______ _______ _______ _____ _____    ______ ____
ROOT
ATOM      1  S   UNL     1       3.021   3.335  18.393  0.00  0.00    +0.000 S 
ATOM      2  O   UNL     1       3.095   2.393  19.491  0.00  0.00    +0.000 OA
ATOM      3  O   UNL     1       2.040   3.102  17.352  0.00  0.00    +0.000 OA
ENDROOT
BRANCH   1   4
ATOM      4  N   UNL     1       4.556   3.553  17.659  0.00  0.00    +0.000 N 
ATOM      5  C   UNL     1       5.576   4.121  18.613  0.00  0.00    +0.000 C 
ATOM      6  C   UNL     1       5.885   5.525  18.110  0.00  0.00    +0.000 C 
ATOM      7  C   UNL     1       5.761   5.267  16.659  0.00  0.00    +0.000 A 
ATOM      8  C   UNL     1       6.672   5.708  15.730  0.00  0.00    +0.000 A 
ATOM      9  C   UNL     1       6.723   5.078  14.496  0.00  0.00    +0.000 A 
ATOM     10  C   UNL     1       7.784   5.384  13.637  0.00  0.00    +0.000 A 
ATOM     11  C   UNL     1       7.887   4.800  12.386  0.00  0.00    +0.000 A 
ATOM     12  C   UNL     1       6.874   3.945  11.997  0.00  0.00    +0.000 A 
ATOM     13  C   UNL     1       5.823   3.618  12.877  0.00  0.00    +0.000 A 
ATOM     14  C   UNL     1       5.705   4.112  14.197  0.00  0.00    +0.000 A 
ATOM     15  N   UNL     1       4.785   3.689  15.159  0.00  0.00    +0.000 NA
ATOM     16  C   UNL     1       4.820   4.255  16.392  0.00  0.00    +0.000 A 
ENDBRANCH   1   4
BRANCH   1  21
ATOM     17  C   UNL     1       1.805   7.553  20.052  0.00  0.00    +0.000 A 
ATOM     18  C   UNL     1       1.752   6.422  20.863  0.00  0.00    +0.000 A 
ATOM     19  C   UNL     1       2.103   5.137  20.376  0.00  0.00    +0.000 A 
ATOM     20  C   UNL     1       1.815   3.961  21.265  0.00  0.00    +0.000 C 
ATOM     21  C   UNL     1       2.572   4.998  19.058  0.00  0.00    +0.000 A 
ATOM     22  C   UNL     1       2.545   6.136  18.212  0.00  0.00    +0.000 A 
ATOM     23  C   UNL     1       2.149   7.415  18.698  0.00  0.00    +0.000 A 
ATOM     24  C   UNL     1       2.068   8.633  17.811  0.00  0.00    +0.000 C 
BRANCH  17  26
ATOM     25  C   UNL     1       1.192   8.979  21.863  0.00  0.00    +0.000 C 
ATOM     26  O   UNL     1       1.458   8.813  20.474  0.00  0.00    +0.000 OA
ENDBRANCH  17  26
ENDBRANCH   1  21
TORSDOF 3
ENDMDL
MODEL 2
REMARK VINA RESULT:      -7.7      2.442      7.648
REMARK  Name = 
REMARK  6 active torsions:
REMARK  status: ('A' for Active; 'I' for Inactive)
REMARK    1  A    between atoms: C_1  and  O_2
REMARK    2  A    between atoms: O_2  and  C_3
REMARK    3  A    between atoms: C_5  and  C_6
REMARK    4  A    between atoms: C_7  and  S_8
REMARK    5  A    between atoms: S_8  and  N_11
REMARK    6  A    between atoms: C_25  and  C_26
REMARK                            x       y       z     vdW  Elec       q    Type
REMARK                         _______ _______ _______ _____ _____    ______ ____
ROOT
ATOM      1  S   UNL     1       2.701   4.436  19.897  0.00  0.00    +0.000 S 
ATOM      2  O   UNL     1       1.973   3.210  19.640  0.00  0.00    +0.000 OA
ATOM      3  O   UNL     1       3.315   4.610  21.198  0.00  0.00    +0.000 OA
ENDROOT
BRANCH   1   4
ATOM      4  N   UNL     1       1.737   5.813  19.558  0.00  0.00    +0.000 N 
ATOM      5  C   UNL     1       1.748   6.179  18.095  0.00  0.00    +0.000 C 
ATOM      6  C   UNL     1       2.488   7.507  18.000  0.00  0.00    +0.000 C 
ATOM      7  C   UNL     1       2.033   8.099  19.278  0.00  0.00    +0.000 A 
ATOM      8  C   UNL     1       1.579   9.390  19.396  0.00  0.00    +0.000 A 
ATOM      9  C   UNL     1       0.789   9.720  20.486  0.00  0.00    +0.000 A 
ATOM     10  C   UNL     1       0.156  10.968  20.495  0.00  0.00    +0.000 A 
ATOM     11  C   UNL     1      -0.635  11.365  21.559  0.00  0.00    +0.000 A 
ATOM     12  C   UNL     1      -0.734  10.504  22.635  0.00  0.00    +0.000 A 
ATOM     13  C   UNL     1      -0.118   9.236  22.609  0.00  0.00    +0.000 A 
ATOM     14  C   UNL     1       0.633   8.737  21.520  0.00  0.00    +0.000 A 
ATOM     15  N   UNL     1       1.114   7.433  21.376  0.00  0.00    +0.000 NA
ATOM     16  C   UNL     1       1.802   7.110  20.252  0.00  0.00    +0.000 A 
ENDBRANCH   1   4
BRANCH   1  21
ATOM     17  C   UNL     1       6.346   4.659  16.949  0.00  0.00    +0.000 A 
ATOM     18  C   UNL     1       5.197   3.947  16.615  0.00  0.00    +0.000 A 
ATOM     19  C   UNL     1       4.091   3.856  17.498  0.00  0.00    +0.000 A 
ATOM     20  C   UNL     1       2.993   2.900  17.131  0.00  0.00    +0.000 C 
ATOM     21  C   UNL     1       4.121   4.548  18.721  0.00  0.00    +0.000 A 
ATOM     22  C   UNL     1       5.323   5.202  19.094  0.00  0.00    +0.000 A 
ATOM     23  C   UNL     1       6.445   5.251  18.218  0.00  0.00    +0.000 A 
ATOM     24  C   UNL     1       7.751   5.901  18.605  0.00  0.00    +0.000 C 
BRANCH  17  26
ATOM     25  C   UNL     1       7.212   4.785  14.731  0.00  0.00    +0.000 C 
ATOM     26  O   UNL     1       7.447   4.759  16.134  0.00  0.00    +0.000 OA
ENDBRANCH  17  26
ENDBRANCH   1  21
TORSDOF 3
ENDMDL
MODEL 3
REMARK VINA RESULT:      -7.7      6.198     10.512
REMARK  Name = 
REMARK  6 active torsions:
REMARK  status: ('A' for Active; 'I' for Inactive)
REMARK    1  A    between atoms: C_1  and  O_2
REMARK    2  A    between atoms: O_2  and  C_3
REMARK    3  A    between atoms: C_5  and  C_6
REMARK    4  A    between atoms: C_7  and  S_8
REMARK    5  A    between atoms: S_8  and  N_11
REMARK    6  A    between atoms: C_25  and  C_26
REMARK                            x       y       z     vdW  Elec       q    Type
REMARK                         _______ _______ _______ _____ _____    ______ ____
ROOT
ATOM      1  S   UNL     1       0.002  11.183  19.426  0.00  0.00    +0.000 S 
ATOM      2  O   UNL     1       0.081  11.855  20.707  0.00  0.00    +0.000 OA
ATOM      3  O   UNL     1       0.619  11.816  18.279  0.00  0.00    +0.000 OA
ENDROOT
BRANCH   1   4
ATOM      4  N   UNL     1      -1.621  10.793  19.030  0.00  0.00    +0.000 N 
ATOM      5  C   UNL     1      -1.716   9.798  17.901  0.00  0.00    +0.000 C 
ATOM      6  C   UNL     1      -2.317  10.554  16.723  0.00  0.00    +0.000 C 
ATOM      7  C   UNL     1      -3.222  11.448  17.480  0.00  0.00    +0.000 A 
ATOM      8  C   UNL     1      -4.531  11.673  17.132  0.00  0.00    +0.000 A 
ATOM      9  C   UNL     1      -5.404  12.152  18.097  0.00  0.00    +0.000 A 
ATOM     10  C   UNL     1      -6.771  12.178  17.802  0.00  0.00    +0.000 A 
ATOM     11  C   UNL     1      -7.694  12.657  18.717  0.00  0.00    +0.000 A 
ATOM     12  C   UNL     1      -7.208  13.156  19.909  0.00  0.00    +0.000 A 
ATOM     13  C   UNL     1      -5.833  13.101  20.213  0.00  0.00    +0.000 A 
ATOM     14  C   UNL     1      -4.850  12.549  19.360  0.00  0.00    +0.000 A 
ATOM     15  N   UNL     1      -3.511  12.316  19.683  0.00  0.00    +0.000 NA
ATOM     16  C   UNL     1      -2.700  11.755  18.751  0.00  0.00    +0.000 A 
ENDBRANCH   1   4
BRANCH   1  21
ATOM     17  C   UNL     1       2.264   7.085  19.763  0.00  0.00    +0.000 A 
ATOM     18  C   UNL     1       1.467   7.551  20.806  0.00  0.00    +0.000 A 
ATOM     19  C   UNL     1       0.786   8.793  20.728  0.00  0.00    +0.000 A 
ATOM     20  C   UNL     1       0.126   9.296  21.979  0.00  0.00    +0.000 C 
ATOM     21  C   UNL     1       0.865   9.555  19.549  0.00  0.00    +0.000 A 
ATOM     22  C   UNL     1       1.743   9.118  18.524  0.00  0.00    +0.000 A 
ATOM     23  C   UNL     1       2.456   7.889  18.629  0.00  0.00    +0.000 A 
ATOM     24  C   UNL     1       3.429   7.422  17.576  0.00  0.00    +0.000 C 
BRANCH  17  26
ATOM     25  C   UNL     1       2.192   4.712  19.993  0.00  0.00    +0.000 C 
ATOM     26  O   UNL     1       2.955   5.898  19.801  0.00  0.00    +0.000 OA
ENDBRANCH  17  26
ENDBRANCH   1  21
TORSDOF 3
ENDMDL
MODEL 4
REMARK VINA RESULT:      -7.7      5.543     10.896
REMARK  Name = 
REMARK  6 active torsions:
REMARK  status: ('A' for Active; 'I' for Inactive)
REMARK    1  A    between atoms: C_1  and  O_2
REMARK    2  A    between atoms: O_2  and  C_3
REMARK    3  A    between atoms: C_5  and  C_6
REMARK    4  A    between atoms: C_7  and  S_8
REMARK    5  A    between atoms: S_8  and  N_11
REMARK    6  A    between atoms: C_25  and  C_26
REMARK                            x       y       z     vdW  Elec       q    Type
REMARK                         _______ _______ _______ _____ _____    ______ ____
ROOT
ATOM      1  S   UNL     1       0.731  11.120  19.929  0.00  0.00    +0.000 S 
ATOM      2  O   UNL     1       1.386  11.766  21.048  0.00  0.00    +0.000 OA
ATOM      3  O   UNL     1       0.991  11.625  18.596  0.00  0.00    +0.000 OA
ENDROOT
BRANCH   1   4
ATOM      4  N   UNL     1      -0.966  11.044  20.164  0.00  0.00    +0.000 N 
ATOM      5  C   UNL     1      -1.716  10.802  18.879  0.00  0.00    +0.000 C 
ATOM      6  C   UNL     1      -2.490  12.084  18.596  0.00  0.00    +0.000 C 
ATOM      7  C   UNL     1      -2.796  12.463  19.994  0.00  0.00    +0.000 A 
ATOM      8  C   UNL     1      -4.038  12.873  20.413  0.00  0.00    +0.000 A 
ATOM      9  C   UNL     1      -4.346  12.789  21.762  0.00  0.00    +0.000 A 
ATOM     10  C   UNL     1      -5.672  13.003  22.156  0.00  0.00    +0.000 A 
ATOM     11  C   UNL     1      -6.043  12.948  23.489  0.00  0.00    +0.000 A 
ATOM     12  C   UNL     1      -5.046  12.725  24.419  0.00  0.00    +0.000 A 
ATOM     13  C   UNL     1      -3.718  12.481  24.015  0.00  0.00    +0.000 A 
ATOM     14  C   UNL     1      -3.289  12.440  22.668  0.00  0.00    +0.000 A 
ATOM     15  N   UNL     1      -2.032  12.036  22.213  0.00  0.00    +0.000 NA
ATOM     16  C   UNL     1      -1.788  12.035  20.878  0.00  0.00    +0.000 A 
ENDBRANCH   1   4
BRANCH   1  21
ATOM     17  C   UNL     1       2.201   6.667  19.747  0.00  0.00    +0.000 A 
ATOM     18  C   UNL     1       1.535   7.156  20.869  0.00  0.00    +0.000 A 
ATOM     19  C   UNL     1       1.095   8.503  20.948  0.00  0.00    +0.000 A 
ATOM     20  C   UNL     1       0.576   8.981  22.273  0.00  0.00    +0.000 C 
ATOM     21  C   UNL     1       1.280   9.359  19.848  0.00  0.00    +0.000 A 
ATOM     22  C   UNL     1       2.031   8.881  18.743  0.00  0.00    +0.000 A 
ATOM     23  C   UNL     1       2.506   7.540  18.691  0.00  0.00    +0.000 A 
ATOM     24  C   UNL     1       3.345   7.018  17.551  0.00  0.00    +0.000 C 
BRANCH  17  26
ATOM     25  C   UNL     1       2.499   4.532  20.767  0.00  0.00    +0.000 C 
ATOM     26  O   UNL     1       2.660   5.378  19.634  0.00  0.00    +0.000 OA
ENDBRANCH  17  26
ENDBRANCH   1  21
TORSDOF 3
ENDMDL
MODEL 5
REMARK VINA RESULT:      -7.3      5.278      8.125
REMARK  Name = 
REMARK  6 active torsions:
REMARK  status: ('A' for Active; 'I' for Inactive)
REMARK    1  A    between atoms: C_1  and  O_2
REMARK    2  A    between atoms: O_2  and  C_3
REMARK    3  A    between atoms: C_5  and  C_6
REMARK    4  A    between atoms: C_7  and  S_8
REMARK    5  A    between atoms: S_8  and  N_11
REMARK    6  A    between atoms: C_25  and  C_26
REMARK                            x       y       z     vdW  Elec       q    Type
REMARK                         _______ _______ _______ _____ _____    ______ ____
ROOT
ATOM      1  S   UNL     1      -0.276  11.652  19.693  0.00  0.00    +0.000 S 
ATOM      2  O   UNL     1       0.397  12.243  18.553  0.00  0.00    +0.000 OA
ATOM      3  O   UNL     1       0.020  12.174  21.011  0.00  0.00    +0.000 OA
ENDROOT
BRANCH   1   4
ATOM      4  N   UNL     1      -0.071   9.949  19.719  0.00  0.00    +0.000 N 
ATOM      5  C   UNL     1      -0.833   9.294  20.843  0.00  0.00    +0.000 C 
ATOM      6  C   UNL     1       0.218   8.761  21.809  0.00  0.00    +0.000 C 
ATOM      7  C   UNL     1       1.252   8.389  20.818  0.00  0.00    +0.000 A 
ATOM      8  C   UNL     1       1.927   7.193  20.839  0.00  0.00    +0.000 A 
ATOM      9  C   UNL     1       2.535   6.751  19.675  0.00  0.00    +0.000 A 
ATOM     10  C   UNL     1       3.036   5.444  19.640  0.00  0.00    +0.000 A 
ATOM     11  C   UNL     1       3.667   4.946  18.513  0.00  0.00    +0.000 A 
ATOM     12  C   UNL     1       3.830   5.804  17.443  0.00  0.00    +0.000 A 
ATOM     13  C   UNL     1       3.299   7.109  17.472  0.00  0.00    +0.000 A 
ATOM     14  C   UNL     1       2.572   7.650  18.557  0.00  0.00    +0.000 A 
ATOM     15  N   UNL     1       1.883   8.866  18.567  0.00  0.00    +0.000 NA
ATOM     16  C   UNL     1       1.214   9.229  19.690  0.00  0.00    +0.000 A 
ENDBRANCH   1   4
BRANCH   1  21
ATOM     17  C   UNL     1      -4.886  12.378  19.204  0.00  0.00    +0.000 A 
ATOM     18  C   UNL     1      -4.179  11.614  18.278  0.00  0.00    +0.000 A 
ATOM     19  C   UNL     1      -2.783  11.395  18.402  0.00  0.00    +0.000 A 
ATOM     20  C   UNL     1      -2.085  10.736  17.248  0.00  0.00    +0.000 C 
ATOM     21  C   UNL     1      -2.096  11.909  19.515  0.00  0.00    +0.000 A 
ATOM     22  C   UNL     1      -2.801  12.754  20.409  0.00  0.00    +0.000 A 
ATOM     23  C   UNL     1      -4.195  13.004  20.253  0.00  0.00    +0.000 A 
ATOM     24  C   UNL     1      -4.961  13.934  21.161  0.00  0.00    +0.000 C 
BRANCH  17  26
ATOM     25  C   UNL     1      -6.962  11.914  18.127  0.00  0.00    +0.000 C 
ATOM     26  O   UNL     1      -6.233  12.632  19.116  0.00  0.00    +0.000 OA
ENDBRANCH  17  26
ENDBRANCH   1  21
TORSDOF 3
ENDMDL
MODEL 6
REMARK VINA RESULT:      -7.2      5.198      8.153
REMARK  Name = 
REMARK  6 active torsions:
REMARK  status: ('A' for Active; 'I' for Inactive)
REMARK    1  A    between atoms: C_1  and  O_2
REMARK    2  A    between atoms: O_2  and  C_3
REMARK    3  A    between atoms: C_5  and  C_6
REMARK    4  A    between atoms: C_7  and  S_8
REMARK    5  A    between atoms: S_8  and  N_11
REMARK    6  A    between atoms: C_25  and  C_26
REMARK                            x       y       z     vdW  Elec       q    Type
REMARK                         _______ _______ _______ _____ _____    ______ ____
ROOT
ATOM      1  S   UNL     1      -0.493  11.842  21.560  0.00  0.00    +0.000 S 
ATOM      2  O   UNL     1      -0.270  13.213  21.973  0.00  0.00    +0.000 OA
ATOM      3  O   UNL     1      -0.917  10.884  22.560  0.00  0.00    +0.000 OA
ENDROOT
BRANCH   1   4
ATOM      4  N   UNL     1       0.875  11.211  20.742  0.00  0.00    +0.000 N 
ATOM      5  C   UNL     1       1.557  12.241  19.877  0.00  0.00    +0.000 C 
ATOM      6  C   UNL     1       1.330  11.798  18.437  0.00  0.00    +0.000 C 
ATOM      7  C   UNL     1       1.382  10.335  18.652  0.00  0.00    +0.000 A 
ATOM      8  C   UNL     1       2.098   9.477  17.853  0.00  0.00    +0.000 A 
ATOM      9  C   UNL     1       2.442   8.231  18.355  0.00  0.00    +0.000 A 
ATOM     10  C   UNL     1       3.346   7.448  17.629  0.00  0.00    +0.000 A 
ATOM     11  C   UNL     1       3.720   6.190  18.068  0.00  0.00    +0.000 A 
ATOM     12  C   UNL     1       3.129   5.716  19.223  0.00  0.00    +0.000 A 
ATOM     13  C   UNL     1       2.242   6.520  19.966  0.00  0.00    +0.000 A 
ATOM     14  C   UNL     1       1.883   7.843  19.619  0.00  0.00    +0.000 A 
ATOM     15  N   UNL     1       1.150   8.735  20.406  0.00  0.00    +0.000 NA
ATOM     16  C   UNL     1       0.910   9.982  19.930  0.00  0.00    +0.000 A 
ENDBRANCH   1   4
BRANCH   1  21
ATOM     17  C   UNL     1      -3.977  11.682  18.419  0.00  0.00    +0.000 A 
ATOM     18  C   UNL     1      -4.083  12.464  19.567  0.00  0.00    +0.000 A 
ATOM     19  C   UNL     1      -3.046  12.514  20.535  0.00  0.00    +0.000 A 
ATOM     20  C   UNL     1      -3.344  13.220  21.826  0.00  0.00    +0.000 C 
ATOM     21  C   UNL     1      -1.853  11.806  20.311  0.00  0.00    +0.000 A 
ATOM     22  C   UNL     1      -1.782  10.947  19.184  0.00  0.00    +0.000 A 
ATOM     23  C   UNL     1      -2.846  10.870  18.240  0.00  0.00    +0.000 A 
ATOM     24  C   UNL     1      -2.818   9.933  17.058  0.00  0.00    +0.000 C 
BRANCH  17  26
ATOM     25  C   UNL     1      -6.301  11.471  17.929  0.00  0.00    +0.000 C 
ATOM     26  O   UNL     1      -4.960  11.588  17.466  0.00  0.00    +0.000 OA
ENDBRANCH  17  26
ENDBRANCH   1  21
TORSDOF 3
ENDMDL
MODEL 7
REMARK VINA RESULT:      -7.2      7.939     12.697
REMARK  Name = 
REMARK  6 active torsions:
REMARK  status: ('A' for Active; 'I' for Inactive)
REMARK    1  A    between atoms: C_1  and  O_2
REMARK    2  A    between atoms: O_2  and  C_3
REMARK    3  A    between atoms: C_5  and  C_6
REMARK    4  A    between atoms: C_7  and  S_8
REMARK    5  A    between atoms: S_8  and  N_11
REMARK    6  A    between atoms: C_25  and  C_26
REMARK                            x       y       z     vdW  Elec       q    Type
REMARK                         _______ _______ _______ _____ _____    ______ ____
ROOT
ATOM      1  S   UNL     1      -0.786  11.929  20.548  0.00  0.00    +0.000 S 
ATOM      2  O   UNL     1      -0.468  10.840  21.450  0.00  0.00    +0.000 OA
ATOM      3  O   UNL     1       0.306  12.701  19.991  0.00  0.00    +0.000 OA
ENDROOT
BRANCH   1   4
ATOM      4  N   UNL     1      -1.915  13.009  21.255  0.00  0.00    +0.000 N 
ATOM      5  C   UNL     1      -1.250  14.075  22.089  0.00  0.00    +0.000 C 
ATOM      6  C   UNL     1      -1.642  13.784  23.533  0.00  0.00    +0.000 C 
ATOM      7  C   UNL     1      -3.009  13.274  23.286  0.00  0.00    +0.000 A 
ATOM      8  C   UNL     1      -4.106  13.664  24.014  0.00  0.00    +0.000 A 
ATOM      9  C   UNL     1      -5.367  13.490  23.464  0.00  0.00    +0.000 A 
ATOM     10  C   UNL     1      -6.461  14.078  24.109  0.00  0.00    +0.000 A 
ATOM     11  C   UNL     1      -7.747  13.930  23.620  0.00  0.00    +0.000 A 
ATOM     12  C   UNL     1      -7.916  13.139  22.500  0.00  0.00    +0.000 A 
ATOM     13  C   UNL     1      -6.808  12.574  21.838  0.00  0.00    +0.000 A 
ATOM     14  C   UNL     1      -5.463  12.754  22.236  0.00  0.00    +0.000 A 
ATOM     15  N   UNL     1      -4.329  12.362  21.521  0.00  0.00    +0.000 NA
ATOM     16  C   UNL     1      -3.104  12.632  22.037  0.00  0.00    +0.000 A 
ENDBRANCH   1   4
BRANCH   1  21
ATOM     17  C   UNL     1      -2.948  10.259  16.732  0.00  0.00    +0.000 A 
ATOM     18  C   UNL     1      -1.668   9.828  17.077  0.00  0.00    +0.000 A 
ATOM     19  C   UNL     1      -0.994  10.331  18.219  0.00  0.00    +0.000 A 
ATOM     20  C   UNL     1       0.451   9.959  18.384  0.00  0.00    +0.000 C 
ATOM     21  C   UNL     1      -1.646  11.246  19.064  0.00  0.00    +0.000 A 
ATOM     22  C   UNL     1      -2.913  11.744  18.664  0.00  0.00    +0.000 A 
ATOM     23  C   UNL     1      -3.565  11.265  17.492  0.00  0.00    +0.000 A 
ATOM     24  C   UNL     1      -4.890  11.808  17.019  0.00  0.00    +0.000 C 
BRANCH  17  26
ATOM     25  C   UNL     1      -3.096  10.156  14.355  0.00  0.00    +0.000 C 
ATOM     26  O   UNL     1      -3.632   9.814  15.628  0.00  0.00    +0.000 OA
ENDBRANCH  17  26
ENDBRANCH   1  21
TORSDOF 3
ENDMDL
MODEL 8
REMARK VINA RESULT:      -7.2      4.681      7.784
REMARK  Name = 
REMARK  6 active torsions:
REMARK  status: ('A' for Active; 'I' for Inactive)
REMARK    1  A    between atoms: C_1  and  O_2
REMARK    2  A    between atoms: O_2  and  C_3
REMARK    3  A    between atoms: C_5  and  C_6
REMARK    4  A    between atoms: C_7  and  S_8
REMARK    5  A    between atoms: S_8  and  N_11
REMARK    6  A    between atoms: C_25  and  C_26
REMARK                            x       y       z     vdW  Elec       q    Type
REMARK                         _______ _______ _______ _____ _____    ______ ____
ROOT
ATOM      1  S   UNL     1       0.613  11.416  19.963  0.00  0.00    +0.000 S 
ATOM      2  O   UNL     1       1.042  12.018  18.716  0.00  0.00    +0.000 OA
ATOM      3  O   UNL     1       1.361  11.719  21.165  0.00  0.00    +0.000 OA
ENDROOT
BRANCH   1   4
ATOM      4  N   UNL     1       0.481   9.713  19.814  0.00  0.00    +0.000 N 
ATOM      5  C   UNL     1      -0.507   9.123  20.789  0.00  0.00    +0.000 C 
ATOM      6  C   UNL     1       0.314   8.300  21.774  0.00  0.00    +0.000 C 
ATOM      7  C   UNL     1       1.355   7.820  20.838  0.00  0.00    +0.000 A 
ATOM      8  C   UNL     1       1.780   6.515  20.781  0.00  0.00    +0.000 A 
ATOM      9  C   UNL     1       2.409   6.069  19.630  0.00  0.00    +0.000 A 
ATOM     10  C   UNL     1       2.648   4.698  19.491  0.00  0.00    +0.000 A 
ATOM     11  C   UNL     1       3.286   4.189  18.372  0.00  0.00    +0.000 A 
ATOM     12  C   UNL     1       3.723   5.092  17.423  0.00  0.00    +0.000 A 
ATOM     13  C   UNL     1       3.454   6.469  17.553  0.00  0.00    +0.000 A 
ATOM     14  C   UNL     1       2.736   7.043  18.627  0.00  0.00    +0.000 A 
ATOM     15  N   UNL     1       2.298   8.367  18.716  0.00  0.00    +0.000 NA
ATOM     16  C   UNL     1       1.598   8.753  19.812  0.00  0.00    +0.000 A 
ENDBRANCH   1   4
BRANCH   1  21
ATOM     17  C   UNL     1      -3.712  12.961  20.929  0.00  0.00    +0.000 A 
ATOM     18  C   UNL     1      -3.402  12.438  19.676  0.00  0.00    +0.000 A 
ATOM     19  C   UNL     1      -2.097  11.979  19.361  0.00  0.00    +0.000 A 
ATOM     20  C   UNL     1      -1.818  11.629  17.928  0.00  0.00    +0.000 C 
ATOM     21  C   UNL     1      -1.098  11.994  20.350  0.00  0.00    +0.000 A 
ATOM     22  C   UNL     1      -1.395  12.603  21.596  0.00  0.00    +0.000 A 
ATOM     23  C   UNL     1      -2.697  13.101  21.889  0.00  0.00    +0.000 A 
ATOM     24  C   UNL     1      -3.030  13.793  23.187  0.00  0.00    +0.000 C 
BRANCH  17  26
ATOM     25  C   UNL     1      -6.055  12.549  21.093  0.00  0.00    +0.000 C 
ATOM     26  O   UNL     1      -4.955  13.434  21.273  0.00  0.00    +0.000 OA
ENDBRANCH  17  26
ENDBRANCH   1  21
TORSDOF 3
ENDMDL
MODEL 9
REMARK VINA RESULT:      -7.2      4.980     10.237
REMARK  Name = 
REMARK  6 active torsions:
REMARK  status: ('A' for Active; 'I' for Inactive)
REMARK    1  A    between atoms: C_1  and  O_2
REMARK    2  A    between atoms: O_2  and  C_3
REMARK    3  A    between atoms: C_5  and  C_6
REMARK    4  A    between atoms: C_7  and  S_8
REMARK    5  A    between atoms: S_8  and  N_11
REMARK    6  A    between atoms: C_25  and  C_26
REMARK                            x       y       z     vdW  Elec       q    Type
REMARK                         _______ _______ _______ _____ _____    ______ ____
ROOT
ATOM      1  S   UNL     1       1.089  10.388  18.927  0.00  0.00    +0.000 S 
ATOM      2  O   UNL     1       1.882  11.289  19.739  0.00  0.00    +0.000 OA
ATOM      3  O   UNL     1       1.212  10.473  17.486  0.00  0.00    +0.000 OA
ENDROOT
BRANCH   1   4
ATOM      4  N   UNL     1      -0.572  10.478  19.342  0.00  0.00    +0.000 N 
ATOM      5  C   UNL     1      -1.476  10.240  18.159  0.00  0.00    +0.000 C 
ATOM      6  C   UNL     1      -2.164  11.570  17.880  0.00  0.00    +0.000 C 
ATOM      7  C   UNL     1      -2.282  12.048  19.276  0.00  0.00    +0.000 A 
ATOM      8  C   UNL     1      -3.432  12.590  19.797  0.00  0.00    +0.000 A 
ATOM      9  C   UNL     1      -3.597  12.605  21.173  0.00  0.00    +0.000 A 
ATOM     10  C   UNL     1      -4.849  12.959  21.689  0.00  0.00    +0.000 A 
ATOM     11  C   UNL     1      -5.076  13.007  23.054  0.00  0.00    +0.000 A 
ATOM     12  C   UNL     1      -4.007  12.742  23.887  0.00  0.00    +0.000 A 
ATOM     13  C   UNL     1      -2.756  12.358  23.363  0.00  0.00    +0.000 A 
ATOM     14  C   UNL     1      -2.481  12.208  21.984  0.00  0.00    +0.000 A 
ATOM     15  N   UNL     1      -1.320  11.668  21.426  0.00  0.00    +0.000 NA
ATOM     16  C   UNL     1      -1.225  11.576  20.076  0.00  0.00    +0.000 A 
ENDBRANCH   1   4
BRANCH   1  21
ATOM     17  C   UNL     1       2.414   5.995  19.914  0.00  0.00    +0.000 A 
ATOM     18  C   UNL     1       1.788   6.787  20.873  0.00  0.00    +0.000 A 
ATOM     19  C   UNL     1       1.393   8.121  20.598  0.00  0.00    +0.000 A 
ATOM     20  C   UNL     1       0.917   8.951  21.755  0.00  0.00    +0.000 C 
ATOM     21  C   UNL     1       1.581   8.649  19.309  0.00  0.00    +0.000 A 
ATOM     22  C   UNL     1       2.293   7.870  18.361  0.00  0.00    +0.000 A 
ATOM     23  C   UNL     1       2.724   6.546  18.661  0.00  0.00    +0.000 A 
ATOM     24  C   UNL     1       3.522   5.711  17.689  0.00  0.00    +0.000 C 
BRANCH  17  26
ATOM     25  C   UNL     1       2.173   3.988  21.178  0.00  0.00    +0.000 C 
ATOM     26  O   UNL     1       2.830   4.706  20.140  0.00  0.00    +0.000 OA
ENDBRANCH  17  26
ENDBRANCH   1  21
TORSDOF 3
ENDMDL
