MODEL 1
REMARK VINA RESULT:      -7.5      0.000      0.000
REMARK  Name = 
REMARK  4 active torsions:
REMARK  status: ('A' for Active; 'I' for Inactive)
REMARK    1  A    between atoms: C_2  and  C_3
REMARK    2  A    between atoms: C_3  and  N_4
REMARK    3  A    between atoms: N_14  and  C_15
REMARK    4  A    between atoms: C_15  and  C_16
REMARK                            x       y       z     vdW  Elec       q    Type
REMARK                         _______ _______ _______ _____ _____    ______ ____
ROOT
ATOM      1  C   UNL     1       5.705   5.879  17.027  0.00  0.00    +0.000 C 
ENDROOT
BRANCH   1   2
ATOM      2  N   UNL     1       5.097   4.945  17.991  0.00  0.00    +0.000 NA
ATOM      3  C   UNL     1       4.703   3.662  17.394  0.00  0.00    +0.000 C 
ATOM      4  C   UNL     1       3.210   3.556  17.061  0.00  0.00    +0.000 C 
ATOM      5  C   UNL     1       2.446   3.725  18.345  0.00  0.00    +0.000 A 
ATOM      6  C   UNL     1       1.314   2.959  18.635  0.00  0.00    +0.000 A 
ATOM      7  C   UNL     1       0.701   3.079  19.880  0.00  0.00    +0.000 A 
ATOM      8  C   UNL     1       1.206   3.971  20.826  0.00  0.00    +0.000 A 
ATOM      9  C   UNL     1       2.312   4.770  20.522  0.00  0.00    +0.000 A 
ATOM     10  C   UNL     1       2.942   4.653  19.278  0.00  0.00    +0.000 A 
ATOM     11  C   UNL     1       4.094   5.555  18.880  0.00  0.00    +0.000 C 
ENDBRANCH   1   2
BRANCH   1  13
ATOM     12  O   UNL     1       7.758   4.685  16.506  0.00  0.00    +0.000 OA
ATOM     13  C   UNL     1       6.734   5.230  16.090  0.00  0.00    +0.000 C 
ATOM     14  N   UNL     1       6.416   5.295  14.756  0.00  0.00    +0.000 N 
ATOM     15  H   UNL     1       5.618   5.839  14.451  0.00  0.00    +0.000 HD
BRANCH  14  16
ATOM     16  C   UNL     1       7.274   4.760  13.726  0.00  0.00    +0.000 C 
BRANCH  16  17
ATOM     17  C   UNL     1       6.454   3.897  12.840  0.00  0.00    +0.000 A 
ATOM     18  C   UNL     1       6.767   2.948  11.889  0.00  0.00    +0.000 A 
ATOM     19  C   UNL     1       5.534   2.457  11.391  0.00  0.00    +0.000 A 
ATOM     20  C   UNL     1       4.550   3.134  12.071  0.00  0.00    +0.000 A 
ATOM     21  O   UNL     1       5.096   4.007  12.956  0.00  0.00    +0.000 OA
ENDBRANCH  16  17
ENDBRANCH  14  16
ENDBRANCH   1  13
TORSDOF 4
ENDMDL
MODEL 2
REMARK VINA RESULT:      -7.5      0.795      1.010
REMARK  Name = 
REMARK  4 active torsions:
REMARK  status: ('A' for Active; 'I' for Inactive)
REMARK    1  A    between atoms: C_2  and  C_3
REMARK    2  A    between atoms: C_3  and  N_4
REMARK    3  A    between atoms: N_14  and  C_15
REMARK    4  A    between atoms: C_15  and  C_16
REMARK                            x       y       z     vdW  Elec       q    Type
REMARK                         _______ _______ _______ _____ _____    ______ ____
ROOT
ATOM      1  C   UNL     1       6.189   5.699  17.857  0.00  0.00    +0.000 C 
ENDROOT
BRANCH   1   2
ATOM      2  N   UNL     1       5.375   4.683  18.547  0.00  0.00    +0.000 NA
ATOM      3  C   UNL     1       4.886   3.622  17.656  0.00  0.00    +0.000 C 
ATOM      4  C   UNL     1       3.433   3.802  17.201  0.00  0.00    +0.000 C 
ATOM      5  C   UNL     1       2.570   3.810  18.433  0.00  0.00    +0.000 A 
ATOM      6  C   UNL     1       1.328   3.171  18.466  0.00  0.00    +0.000 A 
ATOM      7  C   UNL     1       0.612   3.117  19.660  0.00  0.00    +0.000 A 
ATOM      8  C   UNL     1       1.126   3.712  20.812  0.00  0.00    +0.000 A 
ATOM      9  C   UNL     1       2.348   4.388  20.771  0.00  0.00    +0.000 A 
ATOM     10  C   UNL     1       3.081   4.442  19.580  0.00  0.00    +0.000 A 
ATOM     11  C   UNL     1       4.370   5.233  19.473  0.00  0.00    +0.000 C 
ENDBRANCH   1   2
BRANCH   1  13
ATOM     12  O   UNL     1       8.044   4.398  16.978  0.00  0.00    +0.000 OA
ATOM     13  C   UNL     1       7.085   5.135  16.746  0.00  0.00    +0.000 C 
ATOM     14  N   UNL     1       6.724   5.508  15.475  0.00  0.00    +0.000 N 
ATOM     15  H   UNL     1       5.993   6.195  15.336  0.00  0.00    +0.000 HD
BRANCH  14  16
ATOM     16  C   UNL     1       7.461   5.094  14.305  0.00  0.00    +0.000 C 
BRANCH  16  17
ATOM     17  C   UNL     1       6.555   4.297  13.442  0.00  0.00    +0.000 A 
ATOM     18  C   UNL     1       5.220   3.960  13.526  0.00  0.00    +0.000 A 
ATOM     19  C   UNL     1       4.929   3.183  12.377  0.00  0.00    +0.000 A 
ATOM     20  C   UNL     1       6.101   3.098  11.665  0.00  0.00    +0.000 A 
ATOM     21  O   UNL     1       7.095   3.774  12.299  0.00  0.00    +0.000 OA
ENDBRANCH  16  17
ENDBRANCH  14  16
ENDBRANCH   1  13
TORSDOF 4
ENDMDL
MODEL 3
REMARK VINA RESULT:      -7.5      2.443      3.620
REMARK  Name = 
REMARK  4 active torsions:
REMARK  status: ('A' for Active; 'I' for Inactive)
REMARK    1  A    between atoms: C_2  and  C_3
REMARK    2  A    between atoms: C_3  and  N_4
REMARK    3  A    between atoms: N_14  and  C_15
REMARK    4  A    between atoms: C_15  and  C_16
REMARK                            x       y       z     vdW  Elec       q    Type
REMARK                         _______ _______ _______ _____ _____    ______ ____
ROOT
ATOM      1  C   UNL     1       4.220   3.733  19.402  0.00  0.00    +0.000 C 
ENDROOT
BRANCH   1   2
ATOM      2  N   UNL     1       3.036   4.596  19.247  0.00  0.00    +0.000 NA
ATOM      3  C   UNL     1       2.793   5.011  17.858  0.00  0.00    +0.000 C 
ATOM      4  C   UNL     1       3.288   6.424  17.529  0.00  0.00    +0.000 C 
ATOM      5  C   UNL     1       2.563   7.381  18.434  0.00  0.00    +0.000 A 
ATOM      6  C   UNL     1       2.104   8.621  17.980  0.00  0.00    +0.000 A 
ATOM      7  C   UNL     1       1.348   9.427  18.826  0.00  0.00    +0.000 A 
ATOM      8  C   UNL     1       1.063   9.007  20.125  0.00  0.00    +0.000 A 
ATOM      9  C   UNL     1       1.557   7.788  20.596  0.00  0.00    +0.000 A 
ATOM     10  C   UNL     1       2.310   6.963  19.753  0.00  0.00    +0.000 A 
ATOM     11  C   UNL     1       2.931   5.671  20.248  0.00  0.00    +0.000 C 
ENDBRANCH   1   2
BRANCH   1  13
ATOM     12  O   UNL     1       6.196   5.123  19.671  0.00  0.00    +0.000 OA
ATOM     13  C   UNL     1       5.534   4.383  18.943  0.00  0.00    +0.000 C 
ATOM     14  N   UNL     1       5.913   4.062  17.663  0.00  0.00    +0.000 N 
ATOM     15  H   UNL     1       5.290   3.534  17.066  0.00  0.00    +0.000 HD
BRANCH  14  16
ATOM     16  C   UNL     1       7.107   4.596  17.051  0.00  0.00    +0.000 C 
BRANCH  16  17
ATOM     17  C   UNL     1       6.950   4.514  15.578  0.00  0.00    +0.000 A 
ATOM     18  C   UNL     1       6.089   3.820  14.753  0.00  0.00    +0.000 A 
ATOM     19  C   UNL     1       6.433   4.172  13.425  0.00  0.00    +0.000 A 
ATOM     20  C   UNL     1       7.478   5.060  13.523  0.00  0.00    +0.000 A 
ATOM     21  O   UNL     1       7.797   5.279  14.825  0.00  0.00    +0.000 OA
ENDBRANCH  16  17
ENDBRANCH  14  16
ENDBRANCH   1  13
TORSDOF 4
ENDMDL
MODEL 4
REMARK VINA RESULT:      -7.5      0.750      1.645
REMARK  Name = 
REMARK  4 active torsions:
REMARK  status: ('A' for Active; 'I' for Inactive)
REMARK    1  A    between atoms: C_2  and  C_3
REMARK    2  A    between atoms: C_3  and  N_4
REMARK    3  A    between atoms: N_14  and  C_15
REMARK    4  A    between atoms: C_15  and  C_16
REMARK                            x       y       z     vdW  Elec       q    Type
REMARK                         _______ _______ _______ _____ _____    ______ ____
ROOT
ATOM      1  C   UNL     1       6.239   5.009  17.569  0.00  0.00    +0.000 C 
ENDROOT
BRANCH   1   2
ATOM      2  N   UNL     1       4.772   4.890  17.511  0.00  0.00    +0.000 NA
ATOM      3  C   UNL     1       4.069   5.947  18.252  0.00  0.00    +0.000 C 
ATOM      4  C   UNL     1       3.582   5.521  19.643  0.00  0.00    +0.000 C 
ATOM      5  C   UNL     1       2.629   4.372  19.457  0.00  0.00    +0.000 A 
ATOM      6  C   UNL     1       1.462   4.252  20.215  0.00  0.00    +0.000 A 
ATOM      7  C   UNL     1       0.561   3.228  19.936  0.00  0.00    +0.000 A 
ATOM      8  C   UNL     1       0.830   2.317  18.914  0.00  0.00    +0.000 A 
ATOM      9  C   UNL     1       2.017   2.409  18.183  0.00  0.00    +0.000 A 
ATOM     10  C   UNL     1       2.927   3.438  18.448  0.00  0.00    +0.000 A 
ATOM     11  C   UNL     1       4.262   3.527  17.733  0.00  0.00    +0.000 C 
ENDBRANCH   1   2
BRANCH   1  13
ATOM     12  O   UNL     1       7.563   6.427  16.104  0.00  0.00    +0.000 OA
ATOM     13  C   UNL     1       6.889   5.405  16.235  0.00  0.00    +0.000 C 
ATOM     14  N   UNL     1       6.666   4.523  15.207  0.00  0.00    +0.000 N 
ATOM     15  H   UNL     1       6.024   3.750  15.330  0.00  0.00    +0.000 HD
BRANCH  14  16
ATOM     16  C   UNL     1       7.178   4.739  13.874  0.00  0.00    +0.000 C 
BRANCH  16  17
ATOM     17  C   UNL     1       6.400   3.895  12.934  0.00  0.00    +0.000 A 
ATOM     18  C   UNL     1       6.755   2.961  11.983  0.00  0.00    +0.000 A 
ATOM     19  C   UNL     1       5.547   2.484  11.417  0.00  0.00    +0.000 A 
ATOM     20  C   UNL     1       4.533   3.153  12.061  0.00  0.00    +0.000 A 
ATOM     21  O   UNL     1       5.038   4.009  12.986  0.00  0.00    +0.000 OA
ENDBRANCH  16  17
ENDBRANCH  14  16
ENDBRANCH   1  13
TORSDOF 4
ENDMDL
MODEL 5
REMARK VINA RESULT:      -7.2      1.617      2.571
REMARK  Name = 
REMARK  4 active torsions:
REMARK  status: ('A' for Active; 'I' for Inactive)
REMARK    1  A    between atoms: C_2  and  C_3
REMARK    2  A    between atoms: C_3  and  N_4
REMARK    3  A    between atoms: N_14  and  C_15
REMARK    4  A    between atoms: C_15  and  C_16
REMARK                            x       y       z     vdW  Elec       q    Type
REMARK                         _______ _______ _______ _____ _____    ______ ____
ROOT
ATOM      1  C   UNL     1       4.051   7.328  17.380  0.00  0.00    +0.000 C 
ENDROOT
BRANCH   1   2
ATOM      2  N   UNL     1       2.831   6.653  17.857  0.00  0.00    +0.000 NA
ATOM      3  C   UNL     1       2.428   7.062  19.210  0.00  0.00    +0.000 C 
ATOM      4  C   UNL     1       2.841   6.079  20.312  0.00  0.00    +0.000 C 
ATOM      5  C   UNL     1       2.187   4.759  20.011  0.00  0.00    +0.000 A 
ATOM      6  C   UNL     1       1.644   3.958  21.019  0.00  0.00    +0.000 A 
ATOM      7  C   UNL     1       0.958   2.795  20.681  0.00  0.00    +0.000 A 
ATOM      8  C   UNL     1       0.827   2.423  19.343  0.00  0.00    +0.000 A 
ATOM      9  C   UNL     1       1.406   3.199  18.336  0.00  0.00    +0.000 A 
ATOM     10  C   UNL     1       2.090   4.375  18.662  0.00  0.00    +0.000 A 
ATOM     11  C   UNL     1       2.800   5.203  17.607  0.00  0.00    +0.000 C 
ENDBRANCH   1   2
BRANCH   1  13
ATOM     12  O   UNL     1       5.754   5.868  18.317  0.00  0.00    +0.000 OA
ATOM     13  C   UNL     1       5.287   6.418  17.320  0.00  0.00    +0.000 C 
ATOM     14  N   UNL     1       5.820   6.260  16.064  0.00  0.00    +0.000 N 
ATOM     15  H   UNL     1       5.468   6.809  15.290  0.00  0.00    +0.000 HD
BRANCH  14  16
ATOM     16  C   UNL     1       6.995   5.460  15.815  0.00  0.00    +0.000 C 
BRANCH  16  17
ATOM     17  C   UNL     1       6.851   4.823  14.483  0.00  0.00    +0.000 A 
ATOM     18  C   UNL     1       6.061   3.799  14.003  0.00  0.00    +0.000 A 
ATOM     19  C   UNL     1       6.373   3.661  12.628  0.00  0.00    +0.000 A 
ATOM     20  C   UNL     1       7.329   4.610  12.356  0.00  0.00    +0.000 A 
ATOM     21  O   UNL     1       7.624   5.325  13.473  0.00  0.00    +0.000 OA
ENDBRANCH  16  17
ENDBRANCH  14  16
ENDBRANCH   1  13
TORSDOF 4
ENDMDL
MODEL 6
REMARK VINA RESULT:      -7.1      1.130      1.901
REMARK  Name = 
REMARK  4 active torsions:
REMARK  status: ('A' for Active; 'I' for Inactive)
REMARK    1  A    between atoms: C_2  and  C_3
REMARK    2  A    between atoms: C_3  and  N_4
REMARK    3  A    between atoms: N_14  and  C_15
REMARK    4  A    between atoms: C_15  and  C_16
REMARK                            x       y       z     vdW  Elec       q    Type
REMARK                         _______ _______ _______ _____ _____    ______ ____
ROOT
ATOM      1  C   UNL     1       5.834   4.481  16.617  0.00  0.00    +0.000 C 
ENDROOT
BRANCH   1   2
ATOM      2  N   UNL     1       4.457   4.695  17.094  0.00  0.00    +0.000 NA
ATOM      3  C   UNL     1       4.344   5.769  18.092  0.00  0.00    +0.000 C 
ATOM      4  C   UNL     1       4.272   5.275  19.542  0.00  0.00    +0.000 C 
ATOM      5  C   UNL     1       3.055   4.398  19.662  0.00  0.00    +0.000 A 
ATOM      6  C   UNL     1       2.230   4.435  20.788  0.00  0.00    +0.000 A 
ATOM      7  C   UNL     1       1.059   3.681  20.809  0.00  0.00    +0.000 A 
ATOM      8  C   UNL     1       0.721   2.882  19.717  0.00  0.00    +0.000 A 
ATOM      9  C   UNL     1       1.567   2.810  18.608  0.00  0.00    +0.000 A 
ATOM     10  C   UNL     1       2.742   3.569  18.570  0.00  0.00    +0.000 A 
ATOM     11  C   UNL     1       3.726   3.460  17.422  0.00  0.00    +0.000 C 
ENDBRANCH   1   2
BRANCH   1  13
ATOM     12  O   UNL     1       5.874   6.203  14.902  0.00  0.00    +0.000 OA
ATOM     13  C   UNL     1       6.103   5.033  15.210  0.00  0.00    +0.000 C 
ATOM     14  N   UNL     1       6.627   4.120  14.328  0.00  0.00    +0.000 N 
ATOM     15  H   UNL     1       6.704   3.146  14.592  0.00  0.00    +0.000 HD
BRANCH  14  16
ATOM     16  C   UNL     1       6.923   4.450  12.954  0.00  0.00    +0.000 C 
BRANCH  16  17
ATOM     17  C   UNL     1       6.693   3.241  12.125  0.00  0.00    +0.000 A 
ATOM     18  C   UNL     1       7.529   2.414  11.404  0.00  0.00    +0.000 A 
ATOM     19  C   UNL     1       6.707   1.411  10.834  0.00  0.00    +0.000 A 
ATOM     20  C   UNL     1       5.425   1.687  11.245  0.00  0.00    +0.000 A 
ATOM     21  O   UNL     1       5.405   2.794  12.033  0.00  0.00    +0.000 OA
ENDBRANCH  16  17
ENDBRANCH  14  16
ENDBRANCH   1  13
TORSDOF 4
ENDMDL
MODEL 7
REMARK VINA RESULT:      -7.1      3.225      5.982
REMARK  Name = 
REMARK  4 active torsions:
REMARK  status: ('A' for Active; 'I' for Inactive)
REMARK    1  A    between atoms: C_2  and  C_3
REMARK    2  A    between atoms: C_3  and  N_4
REMARK    3  A    between atoms: N_14  and  C_15
REMARK    4  A    between atoms: C_15  and  C_16
REMARK                            x       y       z     vdW  Elec       q    Type
REMARK                         _______ _______ _______ _____ _____    ______ ____
ROOT
ATOM      1  C   UNL     1       4.992   4.843  16.948  0.00  0.00    +0.000 C 
ENDROOT
BRANCH   1   2
ATOM      2  N   UNL     1       4.730   6.095  17.680  0.00  0.00    +0.000 NA
ATOM      3  C   UNL     1       4.660   5.917  19.137  0.00  0.00    +0.000 C 
ATOM      4  C   UNL     1       3.233   5.840  19.693  0.00  0.00    +0.000 C 
ATOM      5  C   UNL     1       2.543   7.131  19.348  0.00  0.00    +0.000 A 
ATOM      6  C   UNL     1       1.685   7.771  20.247  0.00  0.00    +0.000 A 
ATOM      7  C   UNL     1       1.151   9.016  19.923  0.00  0.00    +0.000 A 
ATOM      8  C   UNL     1       1.459   9.613  18.700  0.00  0.00    +0.000 A 
ATOM      9  C   UNL     1       2.281   8.956  17.782  0.00  0.00    +0.000 A 
ATOM     10  C   UNL     1       2.831   7.709  18.099  0.00  0.00    +0.000 A 
ATOM     11  C   UNL     1       3.663   6.927  17.100  0.00  0.00    +0.000 C 
ENDBRANCH   1   2
BRANCH   1  13
ATOM     12  O   UNL     1       2.903   3.620  16.726  0.00  0.00    +0.000 OA
ATOM     13  C   UNL     1       4.005   3.712  17.269  0.00  0.00    +0.000 C 
ATOM     14  N   UNL     1       4.454   2.807  18.199  0.00  0.00    +0.000 N 
ATOM     15  H   UNL     1       5.321   2.976  18.694  0.00  0.00    +0.000 HD
BRANCH  14  16
ATOM     16  C   UNL     1       3.656   1.690  18.644  0.00  0.00    +0.000 C 
BRANCH  16  17
ATOM     17  C   UNL     1       2.734   2.169  19.703  0.00  0.00    +0.000 A 
ATOM     18  C   UNL     1       1.376   2.408  19.741  0.00  0.00    +0.000 A 
ATOM     19  C   UNL     1       1.081   2.844  21.056  0.00  0.00    +0.000 A 
ATOM     20  C   UNL     1       2.274   2.841  21.737  0.00  0.00    +0.000 A 
ATOM     21  O   UNL     1       3.284   2.428  20.928  0.00  0.00    +0.000 OA
ENDBRANCH  16  17
ENDBRANCH  14  16
ENDBRANCH   1  13
TORSDOF 4
ENDMDL
MODEL 8
REMARK VINA RESULT:      -7.0      1.371      1.550
REMARK  Name = 
REMARK  4 active torsions:
REMARK  status: ('A' for Active; 'I' for Inactive)
REMARK    1  A    between atoms: C_2  and  C_3
REMARK    2  A    between atoms: C_3  and  N_4
REMARK    3  A    between atoms: N_14  and  C_15
REMARK    4  A    between atoms: C_15  and  C_16
REMARK                            x       y       z     vdW  Elec       q    Type
REMARK                         _______ _______ _______ _____ _____    ______ ____
ROOT
ATOM      1  C   UNL     1       6.421   5.164  17.893  0.00  0.00    +0.000 C 
ENDROOT
BRANCH   1   2
ATOM      2  N   UNL     1       5.296   4.222  18.035  0.00  0.00    +0.000 NA
ATOM      3  C   UNL     1       4.139   4.562  17.196  0.00  0.00    +0.000 C 
ATOM      4  C   UNL     1       3.014   5.290  17.942  0.00  0.00    +0.000 C 
ATOM      5  C   UNL     1       2.539   4.383  19.044  0.00  0.00    +0.000 A 
ATOM      6  C   UNL     1       1.185   4.261  19.366  0.00  0.00    +0.000 A 
ATOM      7  C   UNL     1       0.785   3.333  20.323  0.00  0.00    +0.000 A 
ATOM      8  C   UNL     1       1.734   2.539  20.968  0.00  0.00    +0.000 A 
ATOM      9  C   UNL     1       3.092   2.690  20.679  0.00  0.00    +0.000 A 
ATOM     10  C   UNL     1       3.507   3.613  19.713  0.00  0.00    +0.000 A 
ATOM     11  C   UNL     1       4.975   3.863  19.427  0.00  0.00    +0.000 C 
ENDBRANCH   1   2
BRANCH   1  13
ATOM     12  O   UNL     1       6.351   6.758  16.059  0.00  0.00    +0.000 OA
ATOM     13  C   UNL     1       6.665   5.634  16.451  0.00  0.00    +0.000 C 
ATOM     14  N   UNL     1       7.269   4.704  15.642  0.00  0.00    +0.000 N 
ATOM     15  H   UNL     1       7.417   3.760  15.975  0.00  0.00    +0.000 HD
BRANCH  14  16
ATOM     16  C   UNL     1       7.558   4.958  14.250  0.00  0.00    +0.000 C 
BRANCH  16  17
ATOM     17  C   UNL     1       6.555   4.237  13.428  0.00  0.00    +0.000 A 
ATOM     18  C   UNL     1       5.203   4.001  13.574  0.00  0.00    +0.000 A 
ATOM     19  C   UNL     1       4.800   3.256  12.438  0.00  0.00    +0.000 A 
ATOM     20  C   UNL     1       5.928   3.089  11.670  0.00  0.00    +0.000 A 
ATOM     21  O   UNL     1       6.998   3.684  12.259  0.00  0.00    +0.000 OA
ENDBRANCH  16  17
ENDBRANCH  14  16
ENDBRANCH   1  13
TORSDOF 4
ENDMDL
MODEL 9
REMARK VINA RESULT:      -7.0      1.495      1.936
REMARK  Name = 
REMARK  4 active torsions:
REMARK  status: ('A' for Active; 'I' for Inactive)
REMARK    1  A    between atoms: C_2  and  C_3
REMARK    2  A    between atoms: C_3  and  N_4
REMARK    3  A    between atoms: N_14  and  C_15
REMARK    4  A    between atoms: C_15  and  C_16
REMARK                            x       y       z     vdW  Elec       q    Type
REMARK                         _______ _______ _______ _____ _____    ______ ____
ROOT
ATOM      1  C   UNL     1       4.178   6.763  17.104  0.00  0.00    +0.000 C 
ENDROOT
BRANCH   1   2
ATOM      2  N   UNL     1       3.886   6.298  18.471  0.00  0.00    +0.000 NA
ATOM      3  C   UNL     1       4.972   5.505  19.064  0.00  0.00    +0.000 C 
ATOM      4  C   UNL     1       4.749   3.989  19.002  0.00  0.00    +0.000 C 
ATOM      5  C   UNL     1       3.485   3.685  19.758  0.00  0.00    +0.000 A 
ATOM      6  C   UNL     1       3.371   2.563  20.582  0.00  0.00    +0.000 A 
ATOM      7  C   UNL     1       2.219   2.380  21.342  0.00  0.00    +0.000 A 
ATOM      8  C   UNL     1       1.176   3.304  21.267  0.00  0.00    +0.000 A 
ATOM      9  C   UNL     1       1.269   4.403  20.410  0.00  0.00    +0.000 A 
ATOM     10  C   UNL     1       2.426   4.604  19.648  0.00  0.00    +0.000 A 
ATOM     11  C   UNL     1       2.535   5.738  18.648  0.00  0.00    +0.000 C 
ENDBRANCH   1   2
BRANCH   1  13
ATOM     12  O   UNL     1       6.533   7.347  16.953  0.00  0.00    +0.000 OA
ATOM     13  C   UNL     1       5.636   6.553  16.669  0.00  0.00    +0.000 C 
ATOM     14  N   UNL     1       5.859   5.404  15.951  0.00  0.00    +0.000 N 
ATOM     15  H   UNL     1       5.078   4.832  15.654  0.00  0.00    +0.000 HD
BRANCH  14  16
ATOM     16  C   UNL     1       7.161   5.049  15.438  0.00  0.00    +0.000 C 
BRANCH  16  17
ATOM     17  C   UNL     1       7.004   4.619  14.027  0.00  0.00    +0.000 A 
ATOM     18  C   UNL     1       7.631   4.977  12.852  0.00  0.00    +0.000 A 
ATOM     19  C   UNL     1       7.042   4.195  11.827  0.00  0.00    +0.000 A 
ATOM     20  C   UNL     1       6.097   3.408  12.442  0.00  0.00    +0.000 A 
ATOM     21  O   UNL     1       6.068   3.653  13.778  0.00  0.00    +0.000 OA
ENDBRANCH  16  17
ENDBRANCH  14  16
ENDBRANCH   1  13
TORSDOF 4
ENDMDL
