MODEL 1
REMARK VINA RESULT:      -8.7      0.000      0.000
REMARK  Name = 
REMARK  5 active torsions:
REMARK  status: ('A' for Active; 'I' for Inactive)
REMARK    1  A    between atoms: C_1  and  C_2
REMARK    2  A    between atoms: C_8  and  N_9
REMARK    3  A    between atoms: C_10  and  C_12
REMARK    4  A    between atoms: C_13  and  C_14
REMARK    5  A    between atoms: C_22  and  C_23
REMARK                            x       y       z     vdW  Elec       q    Type
REMARK                         _______ _______ _______ _____ _____    ______ ____
ROOT
ATOM      1  N   UNL     1       2.770   6.399  20.080  0.00  0.00    +0.000 N 
ATOM      2  C   UNL     1       2.430   5.139  19.581  0.00  0.00    +0.000 C 
ATOM      3  O   UNL     1       1.464   4.915  18.861  0.00  0.00    +0.000 OA
ATOM      4  H   UNL     1       3.533   6.454  20.739  0.00  0.00    +0.000 HD
ENDROOT
BRANCH   1  12
ATOM      5  C   UNL     1       3.178   7.749  17.465  0.00  0.00    +0.000 C 
ATOM      6  C   UNL     1       2.271   8.268  18.549  0.00  0.00    +0.000 A 
ATOM      7  C   UNL     1       1.601   9.486  18.305  0.00  0.00    +0.000 A 
ATOM      8  C   UNL     1       0.751  10.045  19.255  0.00  0.00    +0.000 A 
ATOM      9  C   UNL     1       0.540   9.374  20.443  0.00  0.00    +0.000 A 
ATOM     10  F   UNL     1      -0.292   9.889  21.357  0.00  0.00    +0.000 F 
ATOM     11  C   UNL     1       1.178   8.168  20.705  0.00  0.00    +0.000 A 
ATOM     12  C   UNL     1       2.075   7.605  19.784  0.00  0.00    +0.000 A 
ENDBRANCH   1  12
BRANCH   2  13
ATOM     13  C   UNL     1       3.273   4.029  19.978  0.00  0.00    +0.000 A 
ATOM     14  C   UNL     1       4.569   3.693  19.456  0.00  0.00    +0.000 A 
ATOM     15  N   UNL     1       4.978   2.513  19.955  0.00  0.00    +0.000 NA
ATOM     16  O   UNL     1       3.977   2.076  20.793  0.00  0.00    +0.000 OA
ATOM     17  C   UNL     1       2.959   2.973  20.810  0.00  0.00    +0.000 A 
ATOM     18  C   UNL     1       1.774   2.589  21.598  0.00  0.00    +0.000 C 
BRANCH  14  19
ATOM     19  C   UNL     1       5.416   4.444  18.521  0.00  0.00    +0.000 A 
ATOM     20  C   UNL     1       6.405   5.320  18.997  0.00  0.00    +0.000 A 
ATOM     21  C   UNL     1       7.184   6.069  18.109  0.00  0.00    +0.000 A 
ATOM     22  C   UNL     1       6.997   5.941  16.735  0.00  0.00    +0.000 A 
ATOM     23  C   UNL     1       6.040   5.055  16.246  0.00  0.00    +0.000 A 
ATOM     24  C   UNL     1       5.255   4.309  17.135  0.00  0.00    +0.000 A 
ENDBRANCH  14  19
ENDBRANCH   2  13
TORSDOF 3
ENDMDL
MODEL 2
REMARK VINA RESULT:      -8.6      0.051      1.006
REMARK  Name = 
REMARK  5 active torsions:
REMARK  status: ('A' for Active; 'I' for Inactive)
REMARK    1  A    between atoms: C_1  and  C_2
REMARK    2  A    between atoms: C_8  and  N_9
REMARK    3  A    between atoms: C_10  and  C_12
REMARK    4  A    between atoms: C_13  and  C_14
REMARK    5  A    between atoms: C_22  and  C_23
REMARK                            x       y       z     vdW  Elec       q    Type
REMARK                         _______ _______ _______ _____ _____    ______ ____
ROOT
ATOM      1  N   UNL     1       2.746   6.400  20.100  0.00  0.00    +0.000 N 
ATOM      2  C   UNL     1       2.412   5.146  19.585  0.00  0.00    +0.000 C 
ATOM      3  O   UNL     1       1.454   4.928  18.853  0.00  0.00    +0.000 OA
ATOM      4  H   UNL     1       3.502   6.450  20.768  0.00  0.00    +0.000 HD
ENDROOT
BRANCH   1  12
ATOM      5  C   UNL     1       3.161   7.767  17.496  0.00  0.00    +0.000 C 
ATOM      6  C   UNL     1       2.251   8.280  18.580  0.00  0.00    +0.000 A 
ATOM      7  C   UNL     1       1.582   9.499  18.342  0.00  0.00    +0.000 A 
ATOM      8  C   UNL     1       0.729  10.052  19.293  0.00  0.00    +0.000 A 
ATOM      9  C   UNL     1       0.515   9.373  20.476  0.00  0.00    +0.000 A 
ATOM     10  F   UNL     1      -0.320   9.882  21.391  0.00  0.00    +0.000 F 
ATOM     11  C   UNL     1       1.152   8.166  20.732  0.00  0.00    +0.000 A 
ATOM     12  C   UNL     1       2.051   7.608  19.810  0.00  0.00    +0.000 A 
ENDBRANCH   1  12
BRANCH   2  13
ATOM     13  C   UNL     1       3.254   4.032  19.978  0.00  0.00    +0.000 A 
ATOM     14  C   UNL     1       4.546   3.691  19.449  0.00  0.00    +0.000 A 
ATOM     15  N   UNL     1       4.953   2.510  19.948  0.00  0.00    +0.000 NA
ATOM     16  O   UNL     1       3.955   2.078  20.792  0.00  0.00    +0.000 OA
ATOM     17  C   UNL     1       2.941   2.979  20.814  0.00  0.00    +0.000 A 
ATOM     18  C   UNL     1       1.759   2.600  21.609  0.00  0.00    +0.000 C 
BRANCH  14  19
ATOM     19  C   UNL     1       5.390   4.438  18.508  0.00  0.00    +0.000 A 
ATOM     20  C   UNL     1       5.219   4.291  17.122  0.00  0.00    +0.000 A 
ATOM     21  C   UNL     1       6.050   4.968  16.225  0.00  0.00    +0.000 A 
ATOM     22  C   UNL     1       7.050   5.813  16.697  0.00  0.00    +0.000 A 
ATOM     23  C   UNL     1       7.214   5.992  18.069  0.00  0.00    +0.000 A 
ATOM     24  C   UNL     1       6.386   5.309  18.969  0.00  0.00    +0.000 A 
ENDBRANCH  14  19
ENDBRANCH   2  13
TORSDOF 3
ENDMDL
MODEL 3
REMARK VINA RESULT:      -7.5      3.440      5.326
REMARK  Name = 
REMARK  5 active torsions:
REMARK  status: ('A' for Active; 'I' for Inactive)
REMARK    1  A    between atoms: C_1  and  C_2
REMARK    2  A    between atoms: C_8  and  N_9
REMARK    3  A    between atoms: C_10  and  C_12
REMARK    4  A    between atoms: C_13  and  C_14
REMARK    5  A    between atoms: C_22  and  C_23
REMARK                            x       y       z     vdW  Elec       q    Type
REMARK                         _______ _______ _______ _____ _____    ______ ____
ROOT
ATOM      1  N   UNL     1       4.029   4.713  16.901  0.00  0.00    +0.000 N 
ATOM      2  C   UNL     1       4.840   3.753  16.292  0.00  0.00    +0.000 C 
ATOM      3  O   UNL     1       4.795   2.552  16.532  0.00  0.00    +0.000 OA
ATOM      4  H   UNL     1       4.214   5.684  16.697  0.00  0.00    +0.000 HD
ENDROOT
BRANCH   1  12
ATOM      5  C   UNL     1       3.701   6.438  19.297  0.00  0.00    +0.000 C 
ATOM      6  C   UNL     1       2.848   5.233  19.004  0.00  0.00    +0.000 A 
ATOM      7  C   UNL     1       1.853   4.898  19.947  0.00  0.00    +0.000 A 
ATOM      8  C   UNL     1       1.025   3.794  19.762  0.00  0.00    +0.000 A 
ATOM      9  C   UNL     1       1.165   3.037  18.616  0.00  0.00    +0.000 A 
ATOM     10  F   UNL     1       0.360   1.985  18.414  0.00  0.00    +0.000 F 
ATOM     11  C   UNL     1       2.128   3.350  17.666  0.00  0.00    +0.000 A 
ATOM     12  C   UNL     1       3.006   4.429  17.849  0.00  0.00    +0.000 A 
ENDBRANCH   1  12
BRANCH   2  13
ATOM     13  C   UNL     1       5.816   4.233  15.333  0.00  0.00    +0.000 A 
ATOM     14  C   UNL     1       6.875   5.175  15.570  0.00  0.00    +0.000 A 
ATOM     15  N   UNL     1       7.479   5.493  14.411  0.00  0.00    +0.000 NA
ATOM     16  O   UNL     1       6.836   4.778  13.427  0.00  0.00    +0.000 OA
ATOM     17  C   UNL     1       5.845   4.027  13.968  0.00  0.00    +0.000 A 
ATOM     18  C   UNL     1       5.011   3.275  13.014  0.00  0.00    +0.000 C 
BRANCH  14  19
ATOM     19  C   UNL     1       7.326   5.764  16.836  0.00  0.00    +0.000 A 
ATOM     20  C   UNL     1       7.515   7.151  16.953  0.00  0.00    +0.000 A 
ATOM     21  C   UNL     1       7.985   7.711  18.145  0.00  0.00    +0.000 A 
ATOM     22  C   UNL     1       8.257   6.897  19.241  0.00  0.00    +0.000 A 
ATOM     23  C   UNL     1       8.048   5.522  19.151  0.00  0.00    +0.000 A 
ATOM     24  C   UNL     1       7.582   4.960  17.955  0.00  0.00    +0.000 A 
ENDBRANCH  14  19
ENDBRANCH   2  13
TORSDOF 3
ENDMDL
MODEL 4
REMARK VINA RESULT:      -7.5      3.421      5.311
REMARK  Name = 
REMARK  5 active torsions:
REMARK  status: ('A' for Active; 'I' for Inactive)
REMARK    1  A    between atoms: C_1  and  C_2
REMARK    2  A    between atoms: C_8  and  N_9
REMARK    3  A    between atoms: C_10  and  C_12
REMARK    4  A    between atoms: C_13  and  C_14
REMARK    5  A    between atoms: C_22  and  C_23
REMARK                            x       y       z     vdW  Elec       q    Type
REMARK                         _______ _______ _______ _____ _____    ______ ____
ROOT
ATOM      1  N   UNL     1       4.005   4.730  16.912  0.00  0.00    +0.000 N 
ATOM      2  C   UNL     1       4.842   3.773  16.333  0.00  0.00    +0.000 C 
ATOM      3  O   UNL     1       4.826   2.579  16.608  0.00  0.00    +0.000 OA
ATOM      4  H   UNL     1       4.166   5.699  16.680  0.00  0.00    +0.000 HD
ENDROOT
BRANCH   1  12
ATOM      5  C   UNL     1       3.700   6.450  19.315  0.00  0.00    +0.000 C 
ATOM      6  C   UNL     1       2.839   5.249  19.024  0.00  0.00    +0.000 A 
ATOM      7  C   UNL     1       1.849   4.916  19.973  0.00  0.00    +0.000 A 
ATOM      8  C   UNL     1       1.015   3.817  19.790  0.00  0.00    +0.000 A 
ATOM      9  C   UNL     1       1.144   3.062  18.641  0.00  0.00    +0.000 A 
ATOM     10  F   UNL     1       0.334   2.015  18.441  0.00  0.00    +0.000 F 
ATOM     11  C   UNL     1       2.103   3.373  17.686  0.00  0.00    +0.000 A 
ATOM     12  C   UNL     1       2.987   4.448  17.866  0.00  0.00    +0.000 A 
ENDBRANCH   1  12
BRANCH   2  13
ATOM     13  C   UNL     1       5.807   4.250  15.362  0.00  0.00    +0.000 A 
ATOM     14  C   UNL     1       6.881   5.178  15.590  0.00  0.00    +0.000 A 
ATOM     15  N   UNL     1       7.470   5.499  14.424  0.00  0.00    +0.000 NA
ATOM     16  O   UNL     1       6.804   4.797  13.444  0.00  0.00    +0.000 OA
ATOM     17  C   UNL     1       5.814   4.052  13.996  0.00  0.00    +0.000 A 
ATOM     18  C   UNL     1       4.957   3.316  13.050  0.00  0.00    +0.000 C 
BRANCH  14  19
ATOM     19  C   UNL     1       7.357   5.755  16.853  0.00  0.00    +0.000 A 
ATOM     20  C   UNL     1       7.627   4.931  17.958  0.00  0.00    +0.000 A 
ATOM     21  C   UNL     1       8.040   5.482  19.175  0.00  0.00    +0.000 A 
ATOM     22  C   UNL     1       8.205   6.859  19.301  0.00  0.00    +0.000 A 
ATOM     23  C   UNL     1       7.969   7.687  18.205  0.00  0.00    +0.000 A 
ATOM     24  C   UNL     1       7.550   7.136  16.987  0.00  0.00    +0.000 A 
ENDBRANCH  14  19
ENDBRANCH   2  13
TORSDOF 3
ENDMDL
MODEL 5
REMARK VINA RESULT:      -7.5      4.509      7.071
REMARK  Name = 
REMARK  5 active torsions:
REMARK  status: ('A' for Active; 'I' for Inactive)
REMARK    1  A    between atoms: C_1  and  C_2
REMARK    2  A    between atoms: C_8  and  N_9
REMARK    3  A    between atoms: C_10  and  C_12
REMARK    4  A    between atoms: C_13  and  C_14
REMARK    5  A    between atoms: C_22  and  C_23
REMARK                            x       y       z     vdW  Elec       q    Type
REMARK                         _______ _______ _______ _____ _____    ______ ____
ROOT
ATOM      1  N   UNL     1      -1.831  10.343  19.147  0.00  0.00    +0.000 N 
ATOM      2  C   UNL     1      -0.850  11.183  19.679  0.00  0.00    +0.000 C 
ATOM      3  O   UNL     1      -0.465  12.220  19.154  0.00  0.00    +0.000 OA
ATOM      4  H   UNL     1      -2.006   9.466  19.617  0.00  0.00    +0.000 HD
ENDROOT
BRANCH   1  12
ATOM      5  C   UNL     1      -4.264  12.046  19.211  0.00  0.00    +0.000 C 
ATOM      6  C   UNL     1      -3.726  11.393  17.966  0.00  0.00    +0.000 A 
ATOM      7  C   UNL     1      -4.446  11.588  16.768  0.00  0.00    +0.000 A 
ATOM      8  C   UNL     1      -4.026  11.013  15.572  0.00  0.00    +0.000 A 
ATOM      9  C   UNL     1      -2.865  10.267  15.558  0.00  0.00    +0.000 A 
ATOM     10  F   UNL     1      -2.437   9.726  14.410  0.00  0.00    +0.000 F 
ATOM     11  C   UNL     1      -2.131  10.067  16.720  0.00  0.00    +0.000 A 
ATOM     12  C   UNL     1      -2.555  10.597  17.949  0.00  0.00    +0.000 A 
ENDBRANCH   1  12
BRANCH   2  13
ATOM     13  C   UNL     1      -0.236  10.765  20.925  0.00  0.00    +0.000 A 
ATOM     14  C   UNL     1       0.696   9.688  21.115  0.00  0.00    +0.000 A 
ATOM     15  N   UNL     1       0.927   9.503  22.427  0.00  0.00    +0.000 NA
ATOM     16  O   UNL     1       0.167  10.437  23.093  0.00  0.00    +0.000 OA
ATOM     17  C   UNL     1      -0.528  11.191  22.205  0.00  0.00    +0.000 A 
ATOM     18  C   UNL     1      -1.458  12.176  22.785  0.00  0.00    +0.000 C 
BRANCH  14  19
ATOM     19  C   UNL     1       1.364   8.851  20.111  0.00  0.00    +0.000 A 
ATOM     20  C   UNL     1       1.547   9.316  18.799  0.00  0.00    +0.000 A 
ATOM     21  C   UNL     1       2.144   8.504  17.830  0.00  0.00    +0.000 A 
ATOM     22  C   UNL     1       2.583   7.224  18.162  0.00  0.00    +0.000 A 
ATOM     23  C   UNL     1       2.435   6.759  19.467  0.00  0.00    +0.000 A 
ATOM     24  C   UNL     1       1.831   7.570  20.437  0.00  0.00    +0.000 A 
ENDBRANCH  14  19
ENDBRANCH   2  13
TORSDOF 3
ENDMDL
MODEL 6
REMARK VINA RESULT:      -7.5      1.160      1.835
REMARK  Name = 
REMARK  5 active torsions:
REMARK  status: ('A' for Active; 'I' for Inactive)
REMARK    1  A    between atoms: C_1  and  C_2
REMARK    2  A    between atoms: C_8  and  N_9
REMARK    3  A    between atoms: C_10  and  C_12
REMARK    4  A    between atoms: C_13  and  C_14
REMARK    5  A    between atoms: C_22  and  C_23
REMARK                            x       y       z     vdW  Elec       q    Type
REMARK                         _______ _______ _______ _____ _____    ______ ____
ROOT
ATOM      1  N   UNL     1       2.535   6.694  20.042  0.00  0.00    +0.000 N 
ATOM      2  C   UNL     1       2.481   5.550  19.242  0.00  0.00    +0.000 C 
ATOM      3  O   UNL     1       1.868   5.471  18.184  0.00  0.00    +0.000 OA
ATOM      4  H   UNL     1       2.992   6.620  20.940  0.00  0.00    +0.000 HD
ENDROOT
BRANCH   1  12
ATOM      5  C   UNL     1       0.452   7.841  21.822  0.00  0.00    +0.000 C 
ATOM      6  C   UNL     1       0.924   8.492  20.549  0.00  0.00    +0.000 A 
ATOM      7  C   UNL     1       0.312   9.708  20.177  0.00  0.00    +0.000 A 
ATOM      8  C   UNL     1       0.680  10.374  19.011  0.00  0.00    +0.000 A 
ATOM      9  C   UNL     1       1.685   9.846  18.227  0.00  0.00    +0.000 A 
ATOM     10  F   UNL     1       2.064  10.487  17.114  0.00  0.00    +0.000 F 
ATOM     11  C   UNL     1       2.312   8.656  18.574  0.00  0.00    +0.000 A 
ATOM     12  C   UNL     1       1.930   7.940  19.720  0.00  0.00    +0.000 A 
ENDBRANCH   1  12
BRANCH   2  13
ATOM     13  C   UNL     1       3.180   4.376  19.730  0.00  0.00    +0.000 A 
ATOM     14  C   UNL     1       4.481   3.915  19.333  0.00  0.00    +0.000 A 
ATOM     15  N   UNL     1       4.734   2.714  19.884  0.00  0.00    +0.000 NA
ATOM     16  O   UNL     1       3.625   2.387  20.631  0.00  0.00    +0.000 OA
ATOM     17  C   UNL     1       2.697   3.372  20.544  0.00  0.00    +0.000 A 
ATOM     18  C   UNL     1       1.415   3.113  21.224  0.00  0.00    +0.000 C 
BRANCH  14  19
ATOM     19  C   UNL     1       5.474   4.566  18.470  0.00  0.00    +0.000 A 
ATOM     20  C   UNL     1       6.462   5.399  19.019  0.00  0.00    +0.000 A 
ATOM     21  C   UNL     1       7.382   6.054  18.195  0.00  0.00    +0.000 A 
ATOM     22  C   UNL     1       7.339   5.874  16.815  0.00  0.00    +0.000 A 
ATOM     23  C   UNL     1       6.382   5.029  16.257  0.00  0.00    +0.000 A 
ATOM     24  C   UNL     1       5.457   4.376  17.082  0.00  0.00    +0.000 A 
ENDBRANCH  14  19
ENDBRANCH   2  13
TORSDOF 3
ENDMDL
MODEL 7
REMARK VINA RESULT:      -7.5      4.519      7.069
REMARK  Name = 
REMARK  5 active torsions:
REMARK  status: ('A' for Active; 'I' for Inactive)
REMARK    1  A    between atoms: C_1  and  C_2
REMARK    2  A    between atoms: C_8  and  N_9
REMARK    3  A    between atoms: C_10  and  C_12
REMARK    4  A    between atoms: C_13  and  C_14
REMARK    5  A    between atoms: C_22  and  C_23
REMARK                            x       y       z     vdW  Elec       q    Type
REMARK                         _______ _______ _______ _____ _____    ______ ____
ROOT
ATOM      1  N   UNL     1      -1.815  10.341  19.112  0.00  0.00    +0.000 N 
ATOM      2  C   UNL     1      -0.888  11.221  19.676  0.00  0.00    +0.000 C 
ATOM      3  O   UNL     1      -0.565  12.296  19.187  0.00  0.00    +0.000 OA
ATOM      4  H   UNL     1      -1.939   9.440  19.551  0.00  0.00    +0.000 HD
ENDROOT
BRANCH   1  12
ATOM      5  C   UNL     1      -4.253  12.036  19.190  0.00  0.00    +0.000 C 
ATOM      6  C   UNL     1      -3.722  11.383  17.942  0.00  0.00    +0.000 A 
ATOM      7  C   UNL     1      -4.452  11.573  16.750  0.00  0.00    +0.000 A 
ATOM      8  C   UNL     1      -4.039  10.998  15.551  0.00  0.00    +0.000 A 
ATOM      9  C   UNL     1      -2.876  10.255  15.531  0.00  0.00    +0.000 A 
ATOM     10  F   UNL     1      -2.455   9.713  14.380  0.00  0.00    +0.000 F 
ATOM     11  C   UNL     1      -2.132  10.060  16.687  0.00  0.00    +0.000 A 
ATOM     12  C   UNL     1      -2.549  10.590  17.918  0.00  0.00    +0.000 A 
ENDBRANCH   1  12
BRANCH   2  13
ATOM     13  C   UNL     1      -0.255  10.800  20.911  0.00  0.00    +0.000 A 
ATOM     14  C   UNL     1       0.686   9.728  21.082  0.00  0.00    +0.000 A 
ATOM     15  N   UNL     1       0.937   9.537  22.390  0.00  0.00    +0.000 NA
ATOM     16  O   UNL     1       0.180  10.463  23.071  0.00  0.00    +0.000 OA
ATOM     17  C   UNL     1      -0.531  11.217  22.197  0.00  0.00    +0.000 A 
ATOM     18  C   UNL     1      -1.459  12.194  22.795  0.00  0.00    +0.000 C 
BRANCH  14  19
ATOM     19  C   UNL     1       1.345   8.900  20.065  0.00  0.00    +0.000 A 
ATOM     20  C   UNL     1       1.803   7.610  20.378  0.00  0.00    +0.000 A 
ATOM     21  C   UNL     1       2.468   6.836  19.423  0.00  0.00    +0.000 A 
ATOM     22  C   UNL     1       2.671   7.332  18.138  0.00  0.00    +0.000 A 
ATOM     23  C   UNL     1       2.198   8.600  17.802  0.00  0.00    +0.000 A 
ATOM     24  C   UNL     1       1.536   9.377  18.761  0.00  0.00    +0.000 A 
ENDBRANCH  14  19
ENDBRANCH   2  13
TORSDOF 3
ENDMDL
MODEL 8
REMARK VINA RESULT:      -7.4      1.151      2.087
REMARK  Name = 
REMARK  5 active torsions:
REMARK  status: ('A' for Active; 'I' for Inactive)
REMARK    1  A    between atoms: C_1  and  C_2
REMARK    2  A    between atoms: C_8  and  N_9
REMARK    3  A    between atoms: C_10  and  C_12
REMARK    4  A    between atoms: C_13  and  C_14
REMARK    5  A    between atoms: C_22  and  C_23
REMARK                            x       y       z     vdW  Elec       q    Type
REMARK                         _______ _______ _______ _____ _____    ______ ____
ROOT
ATOM      1  N   UNL     1       2.547   6.672  20.040  0.00  0.00    +0.000 N 
ATOM      2  C   UNL     1       2.463   5.516  19.261  0.00  0.00    +0.000 C 
ATOM      3  O   UNL     1       1.818   5.423  18.224  0.00  0.00    +0.000 OA
ATOM      4  H   UNL     1       3.031   6.611  20.924  0.00  0.00    +0.000 HD
ENDROOT
BRANCH   1  12
ATOM      5  C   UNL     1       0.479   7.829  21.830  0.00  0.00    +0.000 C 
ATOM      6  C   UNL     1       0.940   8.473  20.549  0.00  0.00    +0.000 A 
ATOM      7  C   UNL     1       0.323   9.686  20.175  0.00  0.00    +0.000 A 
ATOM      8  C   UNL     1       0.681  10.346  19.002  0.00  0.00    +0.000 A 
ATOM      9  C   UNL     1       1.680   9.813  18.212  0.00  0.00    +0.000 A 
ATOM     10  F   UNL     1       2.050  10.448  17.092  0.00  0.00    +0.000 F 
ATOM     11  C   UNL     1       2.310   8.626  18.562  0.00  0.00    +0.000 A 
ATOM     12  C   UNL     1       1.939   7.917  19.715  0.00  0.00    +0.000 A 
ENDBRANCH   1  12
BRANCH   2  13
ATOM     13  C   UNL     1       3.170   4.347  19.747  0.00  0.00    +0.000 A 
ATOM     14  C   UNL     1       4.466   3.882  19.333  0.00  0.00    +0.000 A 
ATOM     15  N   UNL     1       4.728   2.686  19.889  0.00  0.00    +0.000 NA
ATOM     16  O   UNL     1       3.632   2.365  20.658  0.00  0.00    +0.000 OA
ATOM     17  C   UNL     1       2.702   3.349  20.577  0.00  0.00    +0.000 A 
ATOM     18  C   UNL     1       1.432   3.095  21.281  0.00  0.00    +0.000 C 
BRANCH  14  19
ATOM     19  C   UNL     1       5.443   4.527  18.448  0.00  0.00    +0.000 A 
ATOM     20  C   UNL     1       5.411   4.303  17.062  0.00  0.00    +0.000 A 
ATOM     21  C   UNL     1       6.367   4.882  16.223  0.00  0.00    +0.000 A 
ATOM     22  C   UNL     1       7.358   5.705  16.752  0.00  0.00    +0.000 A 
ATOM     23  C   UNL     1       7.386   5.961  18.121  0.00  0.00    +0.000 A 
ATOM     24  C   UNL     1       6.432   5.376  18.964  0.00  0.00    +0.000 A 
ENDBRANCH  14  19
ENDBRANCH   2  13
TORSDOF 3
ENDMDL
MODEL 9
REMARK VINA RESULT:      -7.4      1.624      1.924
REMARK  Name = 
REMARK  5 active torsions:
REMARK  status: ('A' for Active; 'I' for Inactive)
REMARK    1  A    between atoms: C_1  and  C_2
REMARK    2  A    between atoms: C_8  and  N_9
REMARK    3  A    between atoms: C_10  and  C_12
REMARK    4  A    between atoms: C_13  and  C_14
REMARK    5  A    between atoms: C_22  and  C_23
REMARK                            x       y       z     vdW  Elec       q    Type
REMARK                         _______ _______ _______ _____ _____    ______ ____
ROOT
ATOM      1  N   UNL     1       2.235   6.597  19.105  0.00  0.00    +0.000 N 
ATOM      2  C   UNL     1       2.460   5.385  19.763  0.00  0.00    +0.000 C 
ATOM      3  O   UNL     1       2.313   5.212  20.967  0.00  0.00    +0.000 OA
ATOM      4  H   UNL     1       2.476   6.653  18.126  0.00  0.00    +0.000 HD
ENDROOT
BRANCH   1  12
ATOM      5  C   UNL     1       1.902   9.082  17.512  0.00  0.00    +0.000 C 
ATOM      6  C   UNL     1       1.610   8.980  18.986  0.00  0.00    +0.000 A 
ATOM      7  C   UNL     1       1.179  10.152  19.643  0.00  0.00    +0.000 A 
ATOM      8  C   UNL     1       0.896  10.152  21.007  0.00  0.00    +0.000 A 
ATOM      9  C   UNL     1       1.011   8.973  21.714  0.00  0.00    +0.000 A 
ATOM     10  F   UNL     1       0.721   8.953  23.022  0.00  0.00    +0.000 F 
ATOM     11  C   UNL     1       1.423   7.803  21.090  0.00  0.00    +0.000 A 
ATOM     12  C   UNL     1       1.759   7.784  19.728  0.00  0.00    +0.000 A 
ENDBRANCH   1  12
BRANCH   2  13
ATOM     13  C   UNL     1       2.926   4.277  18.953  0.00  0.00    +0.000 A 
ATOM     14  C   UNL     1       4.145   4.209  18.195  0.00  0.00    +0.000 A 
ATOM     15  N   UNL     1       4.165   3.089  17.450  0.00  0.00    +0.000 NA
ATOM     16  O   UNL     1       2.986   2.427  17.709  0.00  0.00    +0.000 OA
ATOM     17  C   UNL     1       2.245   3.129  18.603  0.00  0.00    +0.000 A 
ATOM     18  C   UNL     1       0.911   2.581  18.905  0.00  0.00    +0.000 C 
BRANCH  14  19
ATOM     19  C   UNL     1       5.270   5.151  18.160  0.00  0.00    +0.000 A 
ATOM     20  C   UNL     1       5.297   6.200  17.226  0.00  0.00    +0.000 A 
ATOM     21  C   UNL     1       6.387   7.073  17.163  0.00  0.00    +0.000 A 
ATOM     22  C   UNL     1       7.457   6.922  18.040  0.00  0.00    +0.000 A 
ATOM     23  C   UNL     1       7.433   5.904  18.992  0.00  0.00    +0.000 A 
ATOM     24  C   UNL     1       6.344   5.025  19.052  0.00  0.00    +0.000 A 
ENDBRANCH  14  19
ENDBRANCH   2  13
TORSDOF 3
ENDMDL
