MODEL 1
REMARK VINA RESULT:      -8.1      0.000      0.000
REMARK  Name = 
REMARK  12 active torsions:
REMARK  status: ('A' for Active; 'I' for Inactive)
REMARK    1  A    between atoms: C_1  and  C_2
REMARK    2  A    between atoms: C_2  and  C_3
REMARK    3  A    between atoms: C_2  and  C_23
REMARK    4  A    between atoms: C_2  and  S_27
REMARK    5  A    between atoms: C_3  and  C_4
REMARK    6  A    between atoms: C_4  and  N_5
REMARK    7  A    between atoms: C_9  and  C_10
REMARK    8  A    between atoms: C_11  and  C_12
REMARK    9  A    between atoms: C_13  and  C_14
REMARK   10  A    between atoms: C_14  and  O_15
REMARK   11  A    between atoms: N_25  and  O_26
REMARK   12  A    between atoms: S_27  and  C_28
REMARK                            x       y       z     vdW  Elec       q    Type
REMARK                         _______ _______ _______ _____ _____    ______ ____
ROOT
ATOM      1  N   UNL     1       2.409   7.084  18.694  0.00  0.00    +0.000 N 
ATOM      2  C   UNL     1       2.083   6.768  20.092  0.00  0.00    +0.000 C 
ATOM      3  C   UNL     1       1.450   8.031  20.505  0.00  0.00    +0.000 A 
ATOM      4  C   UNL     1       0.861   8.648  21.579  0.00  0.00    +0.000 A 
ATOM      5  C   UNL     1       0.493   9.958  21.133  0.00  0.00    +0.000 A 
ATOM      6  C   UNL     1       0.882  10.078  19.808  0.00  0.00    +0.000 A 
ATOM      7  N   UNL     1       1.453   8.888  19.446  0.00  0.00    +0.000 N 
ATOM      8  C   UNL     1       2.027   8.359  18.297  0.00  0.00    +0.000 C 
ATOM      9  O   UNL     1       2.126   8.968  17.252  0.00  0.00    +0.000 OA
ENDROOT
BRANCH   5  10
ATOM     10  C   UNL     1      -0.163  10.976  21.900  0.00  0.00    +0.000 C 
ATOM     11  C   UNL     1      -0.706  11.864  22.507  0.00  0.00    +0.000 C 
BRANCH  11  12
ATOM     12  C   UNL     1      -1.417  13.040  23.219  0.00  0.00    +0.000 C 
ATOM     13  C   UNL     1      -1.887  13.952  23.844  0.00  0.00    +0.000 C 
BRANCH  13  14
ATOM     14  C   UNL     1      -2.321  15.044  24.698  0.00  0.00    +0.000 C 
ATOM     15  C   UNL     1      -1.298  15.624  25.702  0.00  0.00    +0.000 C 
ATOM     16  O   UNL     1      -1.604  16.983  25.281  0.00  0.00    +0.000 OA
ATOM     17  C   UNL     1      -2.231  16.458  24.077  0.00  0.00    +0.000 C 
BRANCH  14  18
ATOM     18  O   UNL     1      -3.613  14.683  25.248  0.00  0.00    +0.000 OA
ATOM     19  H   UNL     1      -3.718  13.742  25.036  0.00  0.00    +0.000 HD
ENDBRANCH  14  18
ENDBRANCH  13  14
ENDBRANCH  11  12
ENDBRANCH   5  10
BRANCH   1  20
ATOM     20  C   UNL     1       3.140   6.157  17.841  0.00  0.00    +0.000 C 
BRANCH  20  21
ATOM     21  C   UNL     1       4.641   6.470  17.771  0.00  0.00    +0.000 C 
BRANCH  21  23
ATOM     22  C   UNL     1       4.795   3.961  17.316  0.00  0.00    +0.000 C 
ATOM     23  C   UNL     1       5.572   5.219  17.746  0.00  0.00    +0.000 C 
BRANCH  23  24
ATOM     24  C   UNL     1       6.243   4.985  19.095  0.00  0.00    +0.000 C 
ATOM     25  O   UNL     1       5.754   4.249  19.955  0.00  0.00    +0.000 OA
ATOM     26  N   UNL     1       7.420   5.651  19.334  0.00  0.00    +0.000 N 
ATOM     27  H   UNL     1       8.039   5.979  18.588  0.00  0.00    +0.000 HD
BRANCH  26  28
ATOM     28  O   UNL     1       8.046   5.354  20.568  0.00  0.00    +0.000 OA
ATOM     29  H   UNL     1       8.388   6.226  20.860  0.00  0.00    +0.000 HD
ENDBRANCH  26  28
ENDBRANCH  23  24
BRANCH  23  30
ATOM     30  S   UNL     1       6.907   5.523  16.545  0.00  0.00    +0.000 S 
ATOM     31  C   UNL     1       6.230   5.240  14.918  0.00  0.00    +0.000 C 
ATOM     32  O   UNL     1       7.258   6.930  16.619  0.00  0.00    +0.000 OA
ATOM     33  O   UNL     1       7.931   4.516  16.768  0.00  0.00    +0.000 OA
ENDBRANCH  23  30
ENDBRANCH  21  23
ENDBRANCH  20  21
ENDBRANCH   1  20
TORSDOF 10
ENDMDL
MODEL 2
REMARK VINA RESULT:      -7.9      1.584      2.108
REMARK  Name = 
REMARK  12 active torsions:
REMARK  status: ('A' for Active; 'I' for Inactive)
REMARK    1  A    between atoms: C_1  and  C_2
REMARK    2  A    between atoms: C_2  and  C_3
REMARK    3  A    between atoms: C_2  and  C_23
REMARK    4  A    between atoms: C_2  and  S_27
REMARK    5  A    between atoms: C_3  and  C_4
REMARK    6  A    between atoms: C_4  and  N_5
REMARK    7  A    between atoms: C_9  and  C_10
REMARK    8  A    between atoms: C_11  and  C_12
REMARK    9  A    between atoms: C_13  and  C_14
REMARK   10  A    between atoms: C_14  and  O_15
REMARK   11  A    between atoms: N_25  and  O_26
REMARK   12  A    between atoms: S_27  and  C_28
REMARK                            x       y       z     vdW  Elec       q    Type
REMARK                         _______ _______ _______ _____ _____    ______ ____
ROOT
ATOM      1  N   UNL     1       2.833   7.641  18.047  0.00  0.00    +0.000 N 
ATOM      2  C   UNL     1       2.381   8.960  17.583  0.00  0.00    +0.000 C 
ATOM      3  C   UNL     1       1.545   9.366  18.724  0.00  0.00    +0.000 A 
ATOM      4  C   UNL     1       0.752  10.390  19.178  0.00  0.00    +0.000 A 
ATOM      5  C   UNL     1       0.269   9.980  20.461  0.00  0.00    +0.000 A 
ATOM      6  C   UNL     1       0.786   8.721  20.726  0.00  0.00    +0.000 A 
ATOM      7  N   UNL     1       1.568   8.375  19.658  0.00  0.00    +0.000 N 
ATOM      8  C   UNL     1       2.351   7.284  19.299  0.00  0.00    +0.000 C 
ATOM      9  O   UNL     1       2.495   6.300  19.995  0.00  0.00    +0.000 OA
ENDROOT
BRANCH   5  10
ATOM     10  C   UNL     1      -0.594  10.722  21.333  0.00  0.00    +0.000 C 
ATOM     11  C   UNL     1      -1.359  11.319  22.048  0.00  0.00    +0.000 C 
BRANCH  11  12
ATOM     12  C   UNL     1      -2.389  12.026  22.960  0.00  0.00    +0.000 C 
ATOM     13  C   UNL     1      -3.192  12.657  23.595  0.00  0.00    +0.000 C 
BRANCH  13  14
ATOM     14  C   UNL     1      -4.159  13.529  24.237  0.00  0.00    +0.000 C 
ATOM     15  C   UNL     1      -4.743  14.694  23.405  0.00  0.00    +0.000 C 
ATOM     16  O   UNL     1      -6.098  14.342  23.801  0.00  0.00    +0.000 OA
ATOM     17  C   UNL     1      -5.624  13.034  24.226  0.00  0.00    +0.000 C 
BRANCH  14  18
ATOM     18  O   UNL     1      -3.629  13.886  25.539  0.00  0.00    +0.000 OA
ATOM     19  H   UNL     1      -3.241  14.767  25.415  0.00  0.00    +0.000 HD
ENDBRANCH  14  18
ENDBRANCH  13  14
ENDBRANCH  11  12
ENDBRANCH   5  10
BRANCH   1  20
ATOM     20  C   UNL     1       3.650   6.767  17.216  0.00  0.00    +0.000 C 
BRANCH  20  21
ATOM     21  C   UNL     1       5.122   6.738  17.650  0.00  0.00    +0.000 C 
BRANCH  21  23
ATOM     22  C   UNL     1       4.719   4.229  17.393  0.00  0.00    +0.000 C 
ATOM     23  C   UNL     1       5.752   5.316  17.746  0.00  0.00    +0.000 C 
BRANCH  23  24
ATOM     24  C   UNL     1       6.342   5.049  19.127  0.00  0.00    +0.000 C 
ATOM     25  O   UNL     1       5.768   4.348  19.964  0.00  0.00    +0.000 OA
ATOM     26  N   UNL     1       7.543   5.645  19.422  0.00  0.00    +0.000 N 
ATOM     27  H   UNL     1       8.216   5.932  18.707  0.00  0.00    +0.000 HD
BRANCH  26  28
ATOM     28  O   UNL     1       8.089   5.318  20.685  0.00  0.00    +0.000 OA
ATOM     29  H   UNL     1       8.410   4.400  20.559  0.00  0.00    +0.000 HD
ENDBRANCH  26  28
ENDBRANCH  23  24
BRANCH  23  30
ATOM     30  S   UNL     1       7.133   5.219  16.563  0.00  0.00    +0.000 S 
ATOM     31  C   UNL     1       6.468   4.610  15.022  0.00  0.00    +0.000 C 
ATOM     32  O   UNL     1       7.602   6.571  16.317  0.00  0.00    +0.000 OA
ATOM     33  O   UNL     1       8.061   4.217  17.058  0.00  0.00    +0.000 OA
ENDBRANCH  23  30
ENDBRANCH  21  23
ENDBRANCH  20  21
ENDBRANCH   1  20
TORSDOF 10
ENDMDL
MODEL 3
REMARK VINA RESULT:      -7.9      1.307      1.722
REMARK  Name = 
REMARK  12 active torsions:
REMARK  status: ('A' for Active; 'I' for Inactive)
REMARK    1  A    between atoms: C_1  and  C_2
REMARK    2  A    between atoms: C_2  and  C_3
REMARK    3  A    between atoms: C_2  and  C_23
REMARK    4  A    between atoms: C_2  and  S_27
REMARK    5  A    between atoms: C_3  and  C_4
REMARK    6  A    between atoms: C_4  and  N_5
REMARK    7  A    between atoms: C_9  and  C_10
REMARK    8  A    between atoms: C_11  and  C_12
REMARK    9  A    between atoms: C_13  and  C_14
REMARK   10  A    between atoms: C_14  and  O_15
REMARK   11  A    between atoms: N_25  and  O_26
REMARK   12  A    between atoms: S_27  and  C_28
REMARK                            x       y       z     vdW  Elec       q    Type
REMARK                         _______ _______ _______ _____ _____    ______ ____
ROOT
ATOM      1  N   UNL     1       2.295   7.536  18.903  0.00  0.00    +0.000 N 
ATOM      2  C   UNL     1       1.947   7.224  20.296  0.00  0.00    +0.000 C 
ATOM      3  C   UNL     1       1.253   8.464  20.677  0.00  0.00    +0.000 A 
ATOM      4  C   UNL     1       0.612   9.069  21.728  0.00  0.00    +0.000 A 
ATOM      5  C   UNL     1       0.202  10.357  21.256  0.00  0.00    +0.000 A 
ATOM      6  C   UNL     1       0.620  10.478  19.940  0.00  0.00    +0.000 A 
ATOM      7  N   UNL     1       1.247   9.308  19.608  0.00  0.00    +0.000 N 
ATOM      8  C   UNL     1       1.871   8.789  18.480  0.00  0.00    +0.000 C 
ATOM      9  O   UNL     1       1.972   9.389  17.430  0.00  0.00    +0.000 OA
ENDROOT
BRANCH   5  10
ATOM     10  C   UNL     1      -0.514  11.356  21.994  0.00  0.00    +0.000 C 
ATOM     11  C   UNL     1      -1.072  12.207  22.640  0.00  0.00    +0.000 C 
BRANCH  11  12
ATOM     12  C   UNL     1      -1.721  13.331  23.481  0.00  0.00    +0.000 C 
ATOM     13  C   UNL     1      -2.207  14.272  24.051  0.00  0.00    +0.000 C 
BRANCH  13  14
ATOM     14  C   UNL     1      -2.765  15.495  24.599  0.00  0.00    +0.000 C 
ATOM     15  C   UNL     1      -1.907  16.288  25.612  0.00  0.00    +0.000 C 
ATOM     16  O   UNL     1      -2.145  17.530  24.893  0.00  0.00    +0.000 OA
ATOM     17  C   UNL     1      -2.581  16.765  23.735  0.00  0.00    +0.000 C 
BRANCH  14  18
ATOM     18  O   UNL     1      -4.126  15.210  25.010  0.00  0.00    +0.000 OA
ATOM     19  H   UNL     1      -4.678  15.528  24.277  0.00  0.00    +0.000 HD
ENDBRANCH  14  18
ENDBRANCH  13  14
ENDBRANCH  11  12
ENDBRANCH   5  10
BRANCH   1  20
ATOM     20  C   UNL     1       3.084   6.630  18.080  0.00  0.00    +0.000 C 
BRANCH  20  21
ATOM     21  C   UNL     1       4.347   6.125  18.793  0.00  0.00    +0.000 C 
BRANCH  21  23
ATOM     22  C   UNL     1       5.078   5.393  16.458  0.00  0.00    +0.000 C 
ATOM     23  C   UNL     1       5.211   5.123  17.968  0.00  0.00    +0.000 C 
BRANCH  23  24
ATOM     24  C   UNL     1       4.847   3.675  18.276  0.00  0.00    +0.000 C 
ATOM     25  O   UNL     1       4.139   3.000  17.526  0.00  0.00    +0.000 OA
ATOM     26  N   UNL     1       5.325   3.144  19.449  0.00  0.00    +0.000 N 
ATOM     27  H   UNL     1       6.160   3.495  19.923  0.00  0.00    +0.000 HD
BRANCH  26  28
ATOM     28  O   UNL     1       5.024   1.778  19.664  0.00  0.00    +0.000 OA
ATOM     29  H   UNL     1       4.043   1.768  19.695  0.00  0.00    +0.000 HD
ENDBRANCH  26  28
ENDBRANCH  23  24
BRANCH  23  30
ATOM     30  S   UNL     1       6.954   5.337  18.452  0.00  0.00    +0.000 S 
ATOM     31  C   UNL     1       7.502   6.898  17.780  0.00  0.00    +0.000 C 
ATOM     32  O   UNL     1       7.001   5.458  19.898  0.00  0.00    +0.000 OA
ATOM     33  O   UNL     1       7.719   4.292  17.795  0.00  0.00    +0.000 OA
ENDBRANCH  23  30
ENDBRANCH  21  23
ENDBRANCH  20  21
ENDBRANCH   1  20
TORSDOF 10
ENDMDL
MODEL 4
REMARK VINA RESULT:      -7.8      1.948      2.582
REMARK  Name = 
REMARK  12 active torsions:
REMARK  status: ('A' for Active; 'I' for Inactive)
REMARK    1  A    between atoms: C_1  and  C_2
REMARK    2  A    between atoms: C_2  and  C_3
REMARK    3  A    between atoms: C_2  and  C_23
REMARK    4  A    between atoms: C_2  and  S_27
REMARK    5  A    between atoms: C_3  and  C_4
REMARK    6  A    between atoms: C_4  and  N_5
REMARK    7  A    between atoms: C_9  and  C_10
REMARK    8  A    between atoms: C_11  and  C_12
REMARK    9  A    between atoms: C_13  and  C_14
REMARK   10  A    between atoms: C_14  and  O_15
REMARK   11  A    between atoms: N_25  and  O_26
REMARK   12  A    between atoms: S_27  and  C_28
REMARK                            x       y       z     vdW  Elec       q    Type
REMARK                         _______ _______ _______ _____ _____    ______ ____
ROOT
ATOM      1  N   UNL     1       2.928   7.006  18.436  0.00  0.00    +0.000 N 
ATOM      2  C   UNL     1       2.558   8.315  17.881  0.00  0.00    +0.000 C 
ATOM      3  C   UNL     1       1.751   8.851  18.989  0.00  0.00    +0.000 A 
ATOM      4  C   UNL     1       1.024   9.951  19.368  0.00  0.00    +0.000 A 
ATOM      5  C   UNL     1       0.516   9.661  20.675  0.00  0.00    +0.000 A 
ATOM      6  C   UNL     1       0.954   8.394  21.027  0.00  0.00    +0.000 A 
ATOM      7  N   UNL     1       1.713   7.927  19.989  0.00  0.00    +0.000 N 
ATOM      8  C   UNL     1       2.426   6.767  19.709  0.00  0.00    +0.000 C 
ATOM      9  O   UNL     1       2.508   5.827  20.471  0.00  0.00    +0.000 OA
ENDROOT
BRANCH   5  10
ATOM     10  C   UNL     1      -0.297  10.514  21.491  0.00  0.00    +0.000 C 
ATOM     11  C   UNL     1      -1.023  11.216  22.150  0.00  0.00    +0.000 C 
BRANCH  11  12
ATOM     12  C   UNL     1      -2.012  12.070  22.977  0.00  0.00    +0.000 C 
ATOM     13  C   UNL     1      -2.851  12.723  23.537  0.00  0.00    +0.000 C 
BRANCH  13  14
ATOM     14  C   UNL     1      -3.964  13.481  24.083  0.00  0.00    +0.000 C 
ATOM     15  C   UNL     1      -4.677  14.487  23.150  0.00  0.00    +0.000 C 
ATOM     16  O   UNL     1      -5.981  13.962  23.524  0.00  0.00    +0.000 OA
ATOM     17  C   UNL     1      -5.338  12.771  24.057  0.00  0.00    +0.000 C 
BRANCH  14  18
ATOM     18  O   UNL     1      -3.551  13.998  25.372  0.00  0.00    +0.000 OA
ATOM     19  H   UNL     1      -2.993  14.765  25.165  0.00  0.00    +0.000 HD
ENDBRANCH  14  18
ENDBRANCH  13  14
ENDBRANCH  11  12
ENDBRANCH   5  10
BRANCH   1  20
ATOM     20  C   UNL     1       3.688   6.027  17.671  0.00  0.00    +0.000 C 
BRANCH  20  21
ATOM     21  C   UNL     1       4.995   6.599  17.104  0.00  0.00    +0.000 C 
BRANCH  21  23
ATOM     22  C   UNL     1       5.986   5.059  18.884  0.00  0.00    +0.000 C 
ATOM     23  C   UNL     1       6.295   5.948  17.665  0.00  0.00    +0.000 C 
BRANCH  23  24
ATOM     24  C   UNL     1       7.340   6.996  18.033  0.00  0.00    +0.000 C 
ATOM     25  O   UNL     1       8.183   6.806  18.913  0.00  0.00    +0.000 OA
ATOM     26  N   UNL     1       7.296   8.190  17.356  0.00  0.00    +0.000 N 
ATOM     27  H   UNL     1       6.885   8.290  16.424  0.00  0.00    +0.000 HD
BRANCH  26  28
ATOM     28  O   UNL     1       8.323   9.108  17.677  0.00  0.00    +0.000 OA
ATOM     29  H   UNL     1       8.093   9.897  17.141  0.00  0.00    +0.000 HD
ENDBRANCH  26  28
ENDBRANCH  23  24
BRANCH  23  30
ATOM     30  S   UNL     1       7.031   4.916  16.357  0.00  0.00    +0.000 S 
ATOM     31  C   UNL     1       5.760   3.798  15.789  0.00  0.00    +0.000 C 
ATOM     32  O   UNL     1       7.361   5.784  15.241  0.00  0.00    +0.000 OA
ATOM     33  O   UNL     1       8.071   4.110  16.972  0.00  0.00    +0.000 OA
ENDBRANCH  23  30
ENDBRANCH  21  23
ENDBRANCH  20  21
ENDBRANCH   1  20
TORSDOF 10
ENDMDL
MODEL 5
REMARK VINA RESULT:      -7.8      0.911      1.281
REMARK  Name = 
REMARK  12 active torsions:
REMARK  status: ('A' for Active; 'I' for Inactive)
REMARK    1  A    between atoms: C_1  and  C_2
REMARK    2  A    between atoms: C_2  and  C_3
REMARK    3  A    between atoms: C_2  and  C_23
REMARK    4  A    between atoms: C_2  and  S_27
REMARK    5  A    between atoms: C_3  and  C_4
REMARK    6  A    between atoms: C_4  and  N_5
REMARK    7  A    between atoms: C_9  and  C_10
REMARK    8  A    between atoms: C_11  and  C_12
REMARK    9  A    between atoms: C_13  and  C_14
REMARK   10  A    between atoms: C_14  and  O_15
REMARK   11  A    between atoms: N_25  and  O_26
REMARK   12  A    between atoms: S_27  and  C_28
REMARK                            x       y       z     vdW  Elec       q    Type
REMARK                         _______ _______ _______ _____ _____    ______ ____
ROOT
ATOM      1  N   UNL     1       2.494   7.420  18.581  0.00  0.00    +0.000 N 
ATOM      2  C   UNL     1       2.217   8.717  17.948  0.00  0.00    +0.000 C 
ATOM      3  C   UNL     1       1.514   9.399  19.046  0.00  0.00    +0.000 A 
ATOM      4  C   UNL     1       0.907  10.585  19.374  0.00  0.00    +0.000 A 
ATOM      5  C   UNL     1       0.438  10.434  20.718  0.00  0.00    +0.000 A 
ATOM      6  C   UNL     1       0.778   9.158  21.143  0.00  0.00    +0.000 A 
ATOM      7  N   UNL     1       1.441   8.553  20.111  0.00  0.00    +0.000 N 
ATOM      8  C   UNL     1       2.034   7.316  19.887  0.00  0.00    +0.000 C 
ATOM      9  O   UNL     1       2.068   6.426  20.711  0.00  0.00    +0.000 OA
ENDROOT
BRANCH   5  10
ATOM     10  C   UNL     1      -0.257  11.412  21.502  0.00  0.00    +0.000 C 
ATOM     11  C   UNL     1      -0.800  12.237  22.193  0.00  0.00    +0.000 C 
BRANCH  11  12
ATOM     12  C   UNL     1      -1.428  13.319  23.102  0.00  0.00    +0.000 C 
ATOM     13  C   UNL     1      -1.876  14.105  23.894  0.00  0.00    +0.000 C 
BRANCH  13  14
ATOM     14  C   UNL     1      -2.344  14.962  24.969  0.00  0.00    +0.000 C 
ATOM     15  C   UNL     1      -1.295  15.509  25.964  0.00  0.00    +0.000 C 
ATOM     16  O   UNL     1      -1.819  16.859  25.828  0.00  0.00    +0.000 OA
ATOM     17  C   UNL     1      -2.509  16.458  24.612  0.00  0.00    +0.000 C 
BRANCH  14  18
ATOM     18  O   UNL     1      -3.506  14.328  25.560  0.00  0.00    +0.000 OA
ATOM     19  H   UNL     1      -4.192  14.379  24.874  0.00  0.00    +0.000 HD
ENDBRANCH  14  18
ENDBRANCH  13  14
ENDBRANCH  11  12
ENDBRANCH   5  10
BRANCH   1  20
ATOM     20  C   UNL     1       3.127   6.325  17.858  0.00  0.00    +0.000 C 
BRANCH  20  21
ATOM     21  C   UNL     1       4.642   6.517  17.693  0.00  0.00    +0.000 C 
BRANCH  21  23
ATOM     22  C   UNL     1       4.585   4.012  17.197  0.00  0.00    +0.000 C 
ATOM     23  C   UNL     1       5.468   5.196  17.632  0.00  0.00    +0.000 C 
BRANCH  23  24
ATOM     24  C   UNL     1       6.140   4.887  18.966  0.00  0.00    +0.000 C 
ATOM     25  O   UNL     1       5.744   3.987  19.710  0.00  0.00    +0.000 OA
ATOM     26  N   UNL     1       7.208   5.671  19.326  0.00  0.00    +0.000 N 
ATOM     27  H   UNL     1       7.789   6.172  18.649  0.00  0.00    +0.000 HD
BRANCH  26  28
ATOM     28  O   UNL     1       7.847   5.308  20.536  0.00  0.00    +0.000 OA
ATOM     29  H   UNL     1       7.451   4.435  20.744  0.00  0.00    +0.000 HD
ENDBRANCH  26  28
ENDBRANCH  23  24
BRANCH  23  30
ATOM     30  S   UNL     1       6.803   5.412  16.413  0.00  0.00    +0.000 S 
ATOM     31  C   UNL     1       6.122   5.026  14.808  0.00  0.00    +0.000 C 
ATOM     32  O   UNL     1       7.163   6.819  16.393  0.00  0.00    +0.000 OA
ATOM     33  O   UNL     1       7.821   4.416  16.700  0.00  0.00    +0.000 OA
ENDBRANCH  23  30
ENDBRANCH  21  23
ENDBRANCH  20  21
ENDBRANCH   1  20
TORSDOF 10
ENDMDL
MODEL 6
REMARK VINA RESULT:      -7.6      1.719      2.273
REMARK  Name = 
REMARK  12 active torsions:
REMARK  status: ('A' for Active; 'I' for Inactive)
REMARK    1  A    between atoms: C_1  and  C_2
REMARK    2  A    between atoms: C_2  and  C_3
REMARK    3  A    between atoms: C_2  and  C_23
REMARK    4  A    between atoms: C_2  and  S_27
REMARK    5  A    between atoms: C_3  and  C_4
REMARK    6  A    between atoms: C_4  and  N_5
REMARK    7  A    between atoms: C_9  and  C_10
REMARK    8  A    between atoms: C_11  and  C_12
REMARK    9  A    between atoms: C_13  and  C_14
REMARK   10  A    between atoms: C_14  and  O_15
REMARK   11  A    between atoms: N_25  and  O_26
REMARK   12  A    between atoms: S_27  and  C_28
REMARK                            x       y       z     vdW  Elec       q    Type
REMARK                         _______ _______ _______ _____ _____    ______ ____
ROOT
ATOM      1  N   UNL     1       2.904   6.832  18.524  0.00  0.00    +0.000 N 
ATOM      2  C   UNL     1       2.469   6.476  19.881  0.00  0.00    +0.000 C 
ATOM      3  C   UNL     1       1.676   7.668  20.223  0.00  0.00    +0.000 A 
ATOM      4  C   UNL     1       0.922   8.217  21.229  0.00  0.00    +0.000 A 
ATOM      5  C   UNL     1       0.476   9.487  20.744  0.00  0.00    +0.000 A 
ATOM      6  C   UNL     1       0.986   9.655  19.465  0.00  0.00    +0.000 A 
ATOM      7  N   UNL     1       1.704   8.528  19.168  0.00  0.00    +0.000 N 
ATOM      8  C   UNL     1       2.443   8.066  18.085  0.00  0.00    +0.000 C 
ATOM      9  O   UNL     1       2.589   8.689  17.055  0.00  0.00    +0.000 OA
ENDROOT
BRANCH   5  10
ATOM     10  C   UNL     1      -0.352  10.431  21.436  0.00  0.00    +0.000 C 
ATOM     11  C   UNL     1      -1.060  11.187  22.052  0.00  0.00    +0.000 C 
BRANCH  11  12
ATOM     12  C   UNL     1      -1.962  12.112  22.903  0.00  0.00    +0.000 C 
ATOM     13  C   UNL     1      -2.747  12.795  23.504  0.00  0.00    +0.000 C 
BRANCH  13  14
ATOM     14  C   UNL     1      -3.814  13.553  24.135  0.00  0.00    +0.000 C 
ATOM     15  C   UNL     1      -4.662  14.486  23.240  0.00  0.00    +0.000 C 
ATOM     16  O   UNL     1      -5.897  13.948  23.790  0.00  0.00    +0.000 OA
ATOM     17  C   UNL     1      -5.158  12.806  24.306  0.00  0.00    +0.000 C 
BRANCH  14  18
ATOM     18  O   UNL     1      -3.273  14.151  25.339  0.00  0.00    +0.000 OA
ATOM     19  H   UNL     1      -3.266  13.432  25.991  0.00  0.00    +0.000 HD
ENDBRANCH  14  18
ENDBRANCH  13  14
ENDBRANCH  11  12
ENDBRANCH   5  10
BRANCH   1  20
ATOM     20  C   UNL     1       3.806   5.987  17.753  0.00  0.00    +0.000 C 
BRANCH  20  21
ATOM     21  C   UNL     1       5.083   6.720  17.317  0.00  0.00    +0.000 C 
BRANCH  21  23
ATOM     22  C   UNL     1       6.181   5.192  19.044  0.00  0.00    +0.000 C 
ATOM     23  C   UNL     1       6.414   6.064  17.796  0.00  0.00    +0.000 C 
BRANCH  23  24
ATOM     24  C   UNL     1       7.490   7.108  18.078  0.00  0.00    +0.000 C 
ATOM     25  O   UNL     1       8.369   6.935  18.925  0.00  0.00    +0.000 OA
ATOM     26  N   UNL     1       7.433   8.277  17.360  0.00  0.00    +0.000 N 
ATOM     27  H   UNL     1       6.981   8.351  16.446  0.00  0.00    +0.000 HD
BRANCH  26  28
ATOM     28  O   UNL     1       8.487   9.189  17.601  0.00  0.00    +0.000 OA
ATOM     29  H   UNL     1       8.789   9.425  16.698  0.00  0.00    +0.000 HD
ENDBRANCH  26  28
ENDBRANCH  23  24
BRANCH  23  30
ATOM     30  S   UNL     1       7.049   5.010  16.454  0.00  0.00    +0.000 S 
ATOM     31  C   UNL     1       5.706   3.959  15.926  0.00  0.00    +0.000 C 
ATOM     32  O   UNL     1       7.377   5.872  15.332  0.00  0.00    +0.000 OA
ATOM     33  O   UNL     1       8.073   4.151  17.022  0.00  0.00    +0.000 OA
ENDBRANCH  23  30
ENDBRANCH  21  23
ENDBRANCH  20  21
ENDBRANCH   1  20
TORSDOF 10
ENDMDL
MODEL 7
REMARK VINA RESULT:      -7.6      1.525      2.072
REMARK  Name = 
REMARK  12 active torsions:
REMARK  status: ('A' for Active; 'I' for Inactive)
REMARK    1  A    between atoms: C_1  and  C_2
REMARK    2  A    between atoms: C_2  and  C_3
REMARK    3  A    between atoms: C_2  and  C_23
REMARK    4  A    between atoms: C_2  and  S_27
REMARK    5  A    between atoms: C_3  and  C_4
REMARK    6  A    between atoms: C_4  and  N_5
REMARK    7  A    between atoms: C_9  and  C_10
REMARK    8  A    between atoms: C_11  and  C_12
REMARK    9  A    between atoms: C_13  and  C_14
REMARK   10  A    between atoms: C_14  and  O_15
REMARK   11  A    between atoms: N_25  and  O_26
REMARK   12  A    between atoms: S_27  and  C_28
REMARK                            x       y       z     vdW  Elec       q    Type
REMARK                         _______ _______ _______ _____ _____    ______ ____
ROOT
ATOM      1  N   UNL     1       2.456   7.211  18.608  0.00  0.00    +0.000 N 
ATOM      2  C   UNL     1       2.198   8.510  17.970  0.00  0.00    +0.000 C 
ATOM      3  C   UNL     1       1.503   9.205  19.066  0.00  0.00    +0.000 A 
ATOM      4  C   UNL     1       0.911  10.400  19.389  0.00  0.00    +0.000 A 
ATOM      5  C   UNL     1       0.439  10.259  20.733  0.00  0.00    +0.000 A 
ATOM      6  C   UNL     1       0.760   8.980  21.163  0.00  0.00    +0.000 A 
ATOM      7  N   UNL     1       1.417   8.363  20.133  0.00  0.00    +0.000 N 
ATOM      8  C   UNL     1       1.993   7.117  19.913  0.00  0.00    +0.000 C 
ATOM      9  O   UNL     1       2.014   6.230  20.740  0.00  0.00    +0.000 OA
ENDROOT
BRANCH   5  10
ATOM     10  C   UNL     1      -0.243  11.249  21.514  0.00  0.00    +0.000 C 
ATOM     11  C   UNL     1      -0.838  12.043  22.198  0.00  0.00    +0.000 C 
BRANCH  11  12
ATOM     12  C   UNL     1      -1.604  13.010  23.131  0.00  0.00    +0.000 C 
ATOM     13  C   UNL     1      -2.265  13.784  23.771  0.00  0.00    +0.000 C 
BRANCH  13  14
ATOM     14  C   UNL     1      -3.157  14.737  24.408  0.00  0.00    +0.000 C 
ATOM     15  C   UNL     1      -2.937  16.238  24.112  0.00  0.00    +0.000 C 
ATOM     16  O   UNL     1      -4.352  16.424  23.827  0.00  0.00    +0.000 OA
ATOM     17  C   UNL     1      -4.503  14.984  23.687  0.00  0.00    +0.000 C 
BRANCH  14  18
ATOM     18  O   UNL     1      -3.255  14.376  25.809  0.00  0.00    +0.000 OA
ATOM     19  H   UNL     1      -3.341  13.409  25.810  0.00  0.00    +0.000 HD
ENDBRANCH  14  18
ENDBRANCH  13  14
ENDBRANCH  11  12
ENDBRANCH   5  10
BRANCH   1  20
ATOM     20  C   UNL     1       3.075   6.105  17.889  0.00  0.00    +0.000 C 
BRANCH  20  21
ATOM     21  C   UNL     1       4.564   6.341  17.602  0.00  0.00    +0.000 C 
BRANCH  21  23
ATOM     22  C   UNL     1       4.840   4.108  16.393  0.00  0.00    +0.000 C 
ATOM     23  C   UNL     1       5.421   5.045  17.469  0.00  0.00    +0.000 C 
BRANCH  23  24
ATOM     24  C   UNL     1       5.540   4.306  18.798  0.00  0.00    +0.000 C 
ATOM     25  O   UNL     1       6.022   4.832  19.803  0.00  0.00    +0.000 OA
ATOM     26  N   UNL     1       5.106   3.004  18.832  0.00  0.00    +0.000 N 
ATOM     27  H   UNL     1       4.408   2.629  18.184  0.00  0.00    +0.000 HD
BRANCH  26  28
ATOM     28  O   UNL     1       5.169   2.376  20.099  0.00  0.00    +0.000 OA
ATOM     29  H   UNL     1       4.793   1.487  19.926  0.00  0.00    +0.000 HD
ENDBRANCH  26  28
ENDBRANCH  23  24
BRANCH  23  30
ATOM     30  S   UNL     1       7.110   5.521  16.983  0.00  0.00    +0.000 S 
ATOM     31  C   UNL     1       7.485   7.058  17.811  0.00  0.00    +0.000 C 
ATOM     32  O   UNL     1       8.021   4.522  17.512  0.00  0.00    +0.000 OA
ATOM     33  O   UNL     1       7.093   5.792  15.556  0.00  0.00    +0.000 OA
ENDBRANCH  23  30
ENDBRANCH  21  23
ENDBRANCH  20  21
ENDBRANCH   1  20
TORSDOF 10
ENDMDL
MODEL 8
REMARK VINA RESULT:      -7.5      1.204      1.630
REMARK  Name = 
REMARK  12 active torsions:
REMARK  status: ('A' for Active; 'I' for Inactive)
REMARK    1  A    between atoms: C_1  and  C_2
REMARK    2  A    between atoms: C_2  and  C_3
REMARK    3  A    between atoms: C_2  and  C_23
REMARK    4  A    between atoms: C_2  and  S_27
REMARK    5  A    between atoms: C_3  and  C_4
REMARK    6  A    between atoms: C_4  and  N_5
REMARK    7  A    between atoms: C_9  and  C_10
REMARK    8  A    between atoms: C_11  and  C_12
REMARK    9  A    between atoms: C_13  and  C_14
REMARK   10  A    between atoms: C_14  and  O_15
REMARK   11  A    between atoms: N_25  and  O_26
REMARK   12  A    between atoms: S_27  and  C_28
REMARK                            x       y       z     vdW  Elec       q    Type
REMARK                         _______ _______ _______ _____ _____    ______ ____
ROOT
ATOM      1  N   UNL     1       2.506   7.532  18.340  0.00  0.00    +0.000 N 
ATOM      2  C   UNL     1       2.127   8.845  17.802  0.00  0.00    +0.000 C 
ATOM      3  C   UNL     1       1.479   9.436  18.984  0.00  0.00    +0.000 A 
ATOM      4  C   UNL     1       0.847  10.572  19.420  0.00  0.00    +0.000 A 
ATOM      5  C   UNL     1       0.487  10.329  20.784  0.00  0.00    +0.000 A 
ATOM      6  C   UNL     1       0.912   9.051  21.112  0.00  0.00    +0.000 A 
ATOM      7  N   UNL     1       1.523   8.533  20.003  0.00  0.00    +0.000 N 
ATOM      8  C   UNL     1       2.150   7.339  19.668  0.00  0.00    +0.000 C 
ATOM      9  O   UNL     1       2.285   6.410  20.437  0.00  0.00    +0.000 OA
ENDROOT
BRANCH   5  10
ATOM     10  C   UNL     1      -0.189  11.231  21.670  0.00  0.00    +0.000 C 
ATOM     11  C   UNL     1      -0.754  12.026  22.379  0.00  0.00    +0.000 C 
BRANCH  11  12
ATOM     12  C   UNL     1      -1.499  13.084  23.225  0.00  0.00    +0.000 C 
ATOM     13  C   UNL     1      -1.981  13.939  23.920  0.00  0.00    +0.000 C 
BRANCH  13  14
ATOM     14  C   UNL     1      -2.406  15.014  24.799  0.00  0.00    +0.000 C 
ATOM     15  C   UNL     1      -1.395  15.528  25.850  0.00  0.00    +0.000 C 
ATOM     16  O   UNL     1      -1.650  16.909  25.470  0.00  0.00    +0.000 OA
ATOM     17  C   UNL     1      -2.258  16.445  24.232  0.00  0.00    +0.000 C 
BRANCH  14  18
ATOM     18  O   UNL     1      -3.722  14.673  25.302  0.00  0.00    +0.000 OA
ATOM     19  H   UNL     1      -4.322  14.839  24.557  0.00  0.00    +0.000 HD
ENDBRANCH  14  18
ENDBRANCH  13  14
ENDBRANCH  11  12
ENDBRANCH   5  10
BRANCH   1  20
ATOM     20  C   UNL     1       3.130   6.507  17.514  0.00  0.00    +0.000 C 
BRANCH  20  21
ATOM     21  C   UNL     1       4.661   6.497  17.633  0.00  0.00    +0.000 C 
BRANCH  21  23
ATOM     22  C   UNL     1       4.524   4.239  16.446  0.00  0.00    +0.000 C 
ATOM     23  C   UNL     1       5.325   5.099  17.442  0.00  0.00    +0.000 C 
BRANCH  23  24
ATOM     24  C   UNL     1       5.480   4.360  18.767  0.00  0.00    +0.000 C 
ATOM     25  O   UNL     1       5.938   4.904  19.775  0.00  0.00    +0.000 OA
ATOM     26  N   UNL     1       5.107   3.039  18.795  0.00  0.00    +0.000 N 
ATOM     27  H   UNL     1       4.428   2.635  18.146  0.00  0.00    +0.000 HD
BRANCH  26  28
ATOM     28  O   UNL     1       5.201   2.409  20.058  0.00  0.00    +0.000 OA
ATOM     29  H   UNL     1       4.845   3.085  20.673  0.00  0.00    +0.000 HD
ENDBRANCH  26  28
ENDBRANCH  23  24
BRANCH  23  30
ATOM     30  S   UNL     1       7.005   5.348  16.784  0.00  0.00    +0.000 S 
ATOM     31  C   UNL     1       6.968   4.900  15.057  0.00  0.00    +0.000 C 
ATOM     32  O   UNL     1       7.300   6.768  16.847  0.00  0.00    +0.000 OA
ATOM     33  O   UNL     1       7.880   4.404  17.456  0.00  0.00    +0.000 OA
ENDBRANCH  23  30
ENDBRANCH  21  23
ENDBRANCH  20  21
ENDBRANCH   1  20
TORSDOF 10
ENDMDL
MODEL 9
REMARK VINA RESULT:      -7.5      1.753      2.332
REMARK  Name = 
REMARK  12 active torsions:
REMARK  status: ('A' for Active; 'I' for Inactive)
REMARK    1  A    between atoms: C_1  and  C_2
REMARK    2  A    between atoms: C_2  and  C_3
REMARK    3  A    between atoms: C_2  and  C_23
REMARK    4  A    between atoms: C_2  and  S_27
REMARK    5  A    between atoms: C_3  and  C_4
REMARK    6  A    between atoms: C_4  and  N_5
REMARK    7  A    between atoms: C_9  and  C_10
REMARK    8  A    between atoms: C_11  and  C_12
REMARK    9  A    between atoms: C_13  and  C_14
REMARK   10  A    between atoms: C_14  and  O_15
REMARK   11  A    between atoms: N_25  and  O_26
REMARK   12  A    between atoms: S_27  and  C_28
REMARK                            x       y       z     vdW  Elec       q    Type
REMARK                         _______ _______ _______ _____ _____    ______ ____
ROOT
ATOM      1  N   UNL     1       2.405   7.593  18.585  0.00  0.00    +0.000 N 
ATOM      2  C   UNL     1       2.103   8.860  17.904  0.00  0.00    +0.000 C 
ATOM      3  C   UNL     1       1.313   9.534  18.947  0.00  0.00    +0.000 A 
ATOM      4  C   UNL     1       0.636  10.698  19.212  0.00  0.00    +0.000 A 
ATOM      5  C   UNL     1       0.106  10.557  20.534  0.00  0.00    +0.000 A 
ATOM      6  C   UNL     1       0.480   9.309  21.010  0.00  0.00    +0.000 A 
ATOM      7  N   UNL     1       1.224   8.711  20.029  0.00  0.00    +0.000 N 
ATOM      8  C   UNL     1       1.883   7.498  19.867  0.00  0.00    +0.000 C 
ATOM      9  O   UNL     1       1.914   6.631  20.716  0.00  0.00    +0.000 OA
ENDROOT
BRANCH   5  10
ATOM     10  C   UNL     1      -0.672  11.520  21.257  0.00  0.00    +0.000 C 
ATOM     11  C   UNL     1      -1.369  12.304  21.850  0.00  0.00    +0.000 C 
BRANCH  11  12
ATOM     12  C   UNL     1      -2.318  13.255  22.618  0.00  0.00    +0.000 C 
ATOM     13  C   UNL     1      -3.087  13.908  23.271  0.00  0.00    +0.000 C 
BRANCH  13  14
ATOM     14  C   UNL     1      -4.050  14.556  24.145  0.00  0.00    +0.000 C 
ATOM     15  C   UNL     1      -3.548  15.714  25.037  0.00  0.00    +0.000 C 
ATOM     16  O   UNL     1      -4.659  16.558  24.625  0.00  0.00    +0.000 OA
ATOM     17  C   UNL     1      -4.899  15.674  23.496  0.00  0.00    +0.000 C 
BRANCH  14  18
ATOM     18  O   UNL     1      -4.798  13.514  24.821  0.00  0.00    +0.000 OA
ATOM     19  H   UNL     1      -5.683  13.891  24.953  0.00  0.00    +0.000 HD
ENDBRANCH  14  18
ENDBRANCH  13  14
ENDBRANCH  11  12
ENDBRANCH   5  10
BRANCH   1  20
ATOM     20  C   UNL     1       3.124   6.511  17.924  0.00  0.00    +0.000 C 
BRANCH  20  21
ATOM     21  C   UNL     1       4.499   6.240  18.551  0.00  0.00    +0.000 C 
BRANCH  21  23
ATOM     22  C   UNL     1       5.301   5.425  16.266  0.00  0.00    +0.000 C 
ATOM     23  C   UNL     1       5.375   5.200  17.788  0.00  0.00    +0.000 C 
BRANCH  23  24
ATOM     24  C   UNL     1       4.975   3.767  18.126  0.00  0.00    +0.000 C 
ATOM     25  O   UNL     1       4.324   3.064  17.349  0.00  0.00    +0.000 OA
ATOM     26  N   UNL     1       5.351   3.284  19.355  0.00  0.00    +0.000 N 
ATOM     27  H   UNL     1       6.148   3.652  19.881  0.00  0.00    +0.000 HD
BRANCH  26  28
ATOM     28  O   UNL     1       5.022   1.931  19.603  0.00  0.00    +0.000 OA
ATOM     29  H   UNL     1       5.790   1.604  20.117  0.00  0.00    +0.000 HD
ENDBRANCH  26  28
ENDBRANCH  23  24
BRANCH  23  30
ATOM     30  S   UNL     1       7.103   5.400  18.328  0.00  0.00    +0.000 S 
ATOM     31  C   UNL     1       7.645   7.010  17.782  0.00  0.00    +0.000 C 
ATOM     32  O   UNL     1       7.114   5.419  19.780  0.00  0.00    +0.000 OA
ATOM     33  O   UNL     1       7.897   4.413  17.618  0.00  0.00    +0.000 OA
ENDBRANCH  23  30
ENDBRANCH  21  23
ENDBRANCH  20  21
ENDBRANCH   1  20
TORSDOF 10
ENDMDL
