MODEL 1
REMARK VINA RESULT:      -8.7      0.000      0.000
REMARK  Name = 
REMARK  12 active torsions:
REMARK  status: ('A' for Active; 'I' for Inactive)
REMARK    1  A    between atoms: C_1  and  C_2
REMARK    2  A    between atoms: N_7  and  C_8
REMARK    3  A    between atoms: C_11  and  N_12
REMARK    4  A    between atoms: C_14  and  C_15
REMARK    5  A    between atoms: C_15  and  N_16
REMARK    6  A    between atoms: C_17  and  O_19
REMARK    7  A    between atoms: O_19  and  C_20
REMARK    8  A    between atoms: C_20  and  C_21
REMARK    9  A    between atoms: C_20  and  C_22
REMARK   10  A    between atoms: C_23  and  C_25
REMARK   11  A    between atoms: C_25  and  C_26
REMARK   12  A    between atoms: C_25  and  C_27
REMARK                            x       y       z     vdW  Elec       q    Type
REMARK                         _______ _______ _______ _____ _____    ______ ____
ROOT
ATOM      1  N   UNL     1       1.487   8.703  19.456  0.00  0.00    +0.000 N 
ATOM      2  C   UNL     1       1.938   7.583  20.233  0.00  0.00    +0.000 C 
ATOM      3  C   UNL     1       2.387   6.608  19.153  0.00  0.00    +0.000 C 
ATOM      4  O   UNL     1       2.741   7.469  18.066  0.00  0.00    +0.000 OA
ATOM      5  C   UNL     1       2.089   8.658  18.206  0.00  0.00    +0.000 C 
ATOM      6  O   UNL     1       2.106   9.499  17.328  0.00  0.00    +0.000 OA
ENDROOT
BRANCH   1  10
ATOM      7  C   UNL     1      -1.193  11.761  20.805  0.00  0.00    +0.000 A 
ATOM      8  C   UNL     1      -0.323  11.094  21.671  0.00  0.00    +0.000 A 
ATOM      9  C   UNL     1       0.524  10.075  21.230  0.00  0.00    +0.000 A 
ATOM     10  C   UNL     1       0.560   9.680  19.889  0.00  0.00    +0.000 A 
ATOM     11  C   UNL     1      -0.303  10.329  19.006  0.00  0.00    +0.000 A 
ATOM     12  C   UNL     1      -1.157  11.348  19.463  0.00  0.00    +0.000 A 
ATOM     13  F   UNL     1      -1.991  11.898  18.564  0.00  0.00    +0.000 F 
BRANCH   7  20
ATOM     14  C   UNL     1      -3.786  15.912  24.697  0.00  0.00    +0.000 C 
ATOM     15  C   UNL     1      -4.412  14.729  24.005  0.00  0.00    +0.000 C 
ATOM     16  O   UNL     1      -5.637  14.647  23.914  0.00  0.00    +0.000 OA
ATOM     17  N   UNL     1      -3.560  13.791  23.457  0.00  0.00    +0.000 N 
ATOM     18  C   UNL     1      -4.099  12.703  22.627  0.00  0.00    +0.000 C 
ATOM     19  C   UNL     1      -3.473  12.727  21.221  0.00  0.00    +0.000 C 
ATOM     20  N   UNL     1      -2.002  12.769  21.298  0.00  0.00    +0.000 N 
ATOM     21  C   UNL     1      -1.434  13.819  22.163  0.00  0.00    +0.000 C 
ATOM     22  C   UNL     1      -2.096  13.795  23.554  0.00  0.00    +0.000 C 
ENDBRANCH   7  20
ENDBRANCH   1  10
BRANCH   3  23
ATOM     23  C   UNL     1       3.604   5.753  19.521  0.00  0.00    +0.000 C 
BRANCH  23  24
ATOM     24  N   UNL     1       4.083   4.901  18.421  0.00  0.00    +0.000 N 
ATOM     25  C   UNL     1       3.394   3.724  18.158  0.00  0.00    +0.000 C 
ATOM     26  O   UNL     1       2.719   3.546  17.154  0.00  0.00    +0.000 OA
ATOM     27  C   UNL     1       5.222   5.308  17.733  0.00  0.00    +0.000 C 
ATOM     28  O   UNL     1       5.806   6.353  18.040  0.00  0.00    +0.000 OA
BRANCH  27  29
ATOM     29  C   UNL     1       5.733   4.435  16.580  0.00  0.00    +0.000 C 
ATOM     30  C   UNL     1       5.306   5.020  15.235  0.00  0.00    +0.000 C 
ATOM     31  C   UNL     1       7.261   4.333  16.629  0.00  0.00    +0.000 C 
ENDBRANCH  27  29
BRANCH  25  32
ATOM     32  O   UNL     1       3.471   2.850  19.194  0.00  0.00    +0.000 OA
BRANCH  32  33
ATOM     33  C   UNL     1       2.256   2.450  19.867  0.00  0.00    +0.000 C 
ATOM     34  C   UNL     1       2.220   2.861  21.335  0.00  0.00    +0.000 C 
ATOM     35  C   UNL     1       1.101   3.126  19.129  0.00  0.00    +0.000 C 
ENDBRANCH  32  33
ENDBRANCH  25  32
ENDBRANCH  23  24
ENDBRANCH   3  23
TORSDOF 7
ENDMDL
MODEL 2
REMARK VINA RESULT:      -8.6      1.251      1.684
REMARK  Name = 
REMARK  12 active torsions:
REMARK  status: ('A' for Active; 'I' for Inactive)
REMARK    1  A    between atoms: C_1  and  C_2
REMARK    2  A    between atoms: N_7  and  C_8
REMARK    3  A    between atoms: C_11  and  N_12
REMARK    4  A    between atoms: C_14  and  C_15
REMARK    5  A    between atoms: C_15  and  N_16
REMARK    6  A    between atoms: C_17  and  O_19
REMARK    7  A    between atoms: O_19  and  C_20
REMARK    8  A    between atoms: C_20  and  C_21
REMARK    9  A    between atoms: C_20  and  C_22
REMARK   10  A    between atoms: C_23  and  C_25
REMARK   11  A    between atoms: C_25  and  C_26
REMARK   12  A    between atoms: C_25  and  C_27
REMARK                            x       y       z     vdW  Elec       q    Type
REMARK                         _______ _______ _______ _____ _____    ______ ____
ROOT
ATOM      1  N   UNL     1       1.407   8.994  19.396  0.00  0.00    +0.000 N 
ATOM      2  C   UNL     1       1.836   7.867  20.175  0.00  0.00    +0.000 C 
ATOM      3  C   UNL     1       2.342   6.913  19.103  0.00  0.00    +0.000 C 
ATOM      4  O   UNL     1       2.735   7.794  18.044  0.00  0.00    +0.000 OA
ATOM      5  C   UNL     1       2.065   8.974  18.172  0.00  0.00    +0.000 C 
ATOM      6  O   UNL     1       2.111   9.828  17.308  0.00  0.00    +0.000 OA
ENDROOT
BRANCH   1  10
ATOM      7  C   UNL     1      -1.605  11.789  20.607  0.00  0.00    +0.000 A 
ATOM      8  C   UNL     1      -1.552  11.260  19.315  0.00  0.00    +0.000 A 
ATOM      9  C   UNL     1      -0.548  10.374  18.918  0.00  0.00    +0.000 A 
ATOM     10  C   UNL     1       0.452   9.955  19.801  0.00  0.00    +0.000 A 
ATOM     11  C   UNL     1       0.422  10.473  21.096  0.00  0.00    +0.000 A 
ATOM     12  C   UNL     1      -0.589  11.369  21.482  0.00  0.00    +0.000 A 
ATOM     13  F   UNL     1      -0.529  11.861  22.732  0.00  0.00    +0.000 F 
BRANCH   7  20
ATOM     14  C   UNL     1      -6.222  14.552  23.793  0.00  0.00    +0.000 C 
ATOM     15  C   UNL     1      -6.274  13.817  22.479  0.00  0.00    +0.000 C 
ATOM     16  O   UNL     1      -7.241  13.960  21.731  0.00  0.00    +0.000 OA
ATOM     17  N   UNL     1      -5.188  13.030  22.149  0.00  0.00    +0.000 N 
ATOM     18  C   UNL     1      -5.100  12.419  20.814  0.00  0.00    +0.000 C 
ATOM     19  C   UNL     1      -3.814  12.866  20.094  0.00  0.00    +0.000 C 
ATOM     20  N   UNL     1      -2.630  12.654  20.946  0.00  0.00    +0.000 N 
ATOM     21  C   UNL     1      -2.711  13.212  22.307  0.00  0.00    +0.000 C 
ATOM     22  C   UNL     1      -4.017  12.777  22.997  0.00  0.00    +0.000 C 
ENDBRANCH   7  20
ENDBRANCH   1  10
BRANCH   3  23
ATOM     23  C   UNL     1       3.551   6.065  19.511  0.00  0.00    +0.000 C 
BRANCH  23  24
ATOM     24  N   UNL     1       4.035   5.172  18.447  0.00  0.00    +0.000 N 
ATOM     25  C   UNL     1       3.247   4.081  18.100  0.00  0.00    +0.000 C 
ATOM     26  O   UNL     1       2.654   3.988  17.034  0.00  0.00    +0.000 OA
ATOM     27  C   UNL     1       5.273   5.452  17.876  0.00  0.00    +0.000 C 
ATOM     28  O   UNL     1       5.938   6.422  18.254  0.00  0.00    +0.000 OA
BRANCH  27  29
ATOM     29  C   UNL     1       5.791   4.534  16.761  0.00  0.00    +0.000 C 
ATOM     30  C   UNL     1       5.433   5.103  15.390  0.00  0.00    +0.000 C 
ATOM     31  C   UNL     1       7.310   4.377  16.867  0.00  0.00    +0.000 C 
ENDBRANCH  27  29
BRANCH  25  32
ATOM     32  O   UNL     1       3.126   3.198  19.124  0.00  0.00    +0.000 OA
BRANCH  32  33
ATOM     33  C   UNL     1       1.856   3.077  19.801  0.00  0.00    +0.000 C 
ATOM     34  C   UNL     1       0.921   2.064  19.149  0.00  0.00    +0.000 C 
ATOM     35  C   UNL     1       2.160   2.632  21.231  0.00  0.00    +0.000 C 
ENDBRANCH  32  33
ENDBRANCH  25  32
ENDBRANCH  23  24
ENDBRANCH   3  23
TORSDOF 7
ENDMDL
MODEL 3
REMARK VINA RESULT:      -8.6      0.927      1.335
REMARK  Name = 
REMARK  12 active torsions:
REMARK  status: ('A' for Active; 'I' for Inactive)
REMARK    1  A    between atoms: C_1  and  C_2
REMARK    2  A    between atoms: N_7  and  C_8
REMARK    3  A    between atoms: C_11  and  N_12
REMARK    4  A    between atoms: C_14  and  C_15
REMARK    5  A    between atoms: C_15  and  N_16
REMARK    6  A    between atoms: C_17  and  O_19
REMARK    7  A    between atoms: O_19  and  C_20
REMARK    8  A    between atoms: C_20  and  C_21
REMARK    9  A    between atoms: C_20  and  C_22
REMARK   10  A    between atoms: C_23  and  C_25
REMARK   11  A    between atoms: C_25  and  C_26
REMARK   12  A    between atoms: C_25  and  C_27
REMARK                            x       y       z     vdW  Elec       q    Type
REMARK                         _______ _______ _______ _____ _____    ______ ____
ROOT
ATOM      1  N   UNL     1       1.493   8.935  19.628  0.00  0.00    +0.000 N 
ATOM      2  C   UNL     1       1.982   7.817  20.383  0.00  0.00    +0.000 C 
ATOM      3  C   UNL     1       2.314   6.815  19.286  0.00  0.00    +0.000 C 
ATOM      4  O   UNL     1       2.593   7.649  18.157  0.00  0.00    +0.000 OA
ATOM      5  C   UNL     1       1.984   8.856  18.331  0.00  0.00    +0.000 C 
ATOM      6  O   UNL     1       1.945   9.682  17.440  0.00  0.00    +0.000 OA
ENDROOT
BRANCH   1  10
ATOM      7  C   UNL     1      -1.242  11.922  21.027  0.00  0.00    +0.000 A 
ATOM      8  C   UNL     1      -0.810  11.866  19.699  0.00  0.00    +0.000 A 
ATOM      9  C   UNL     1       0.107  10.910  19.257  0.00  0.00    +0.000 A 
ATOM     10  C   UNL     1       0.629   9.942  20.121  0.00  0.00    +0.000 A 
ATOM     11  C   UNL     1       0.216   9.980  21.453  0.00  0.00    +0.000 A 
ATOM     12  C   UNL     1      -0.702  10.951  21.887  0.00  0.00    +0.000 A 
ATOM     13  F   UNL     1      -1.022  10.953  23.192  0.00  0.00    +0.000 F 
BRANCH   7  20
ATOM     14  C   UNL     1      -4.310  16.184  24.421  0.00  0.00    +0.000 C 
ATOM     15  C   UNL     1      -4.797  14.868  23.872  0.00  0.00    +0.000 C 
ATOM     16  O   UNL     1      -6.005  14.643  23.792  0.00  0.00    +0.000 OA
ATOM     17  N   UNL     1      -3.843  13.972  23.433  0.00  0.00    +0.000 N 
ATOM     18  C   UNL     1      -4.252  12.744  22.734  0.00  0.00    +0.000 C 
ATOM     19  C   UNL     1      -3.618  12.675  21.333  0.00  0.00    +0.000 C 
ATOM     20  N   UNL     1      -2.161  12.886  21.402  0.00  0.00    +0.000 N 
ATOM     21  C   UNL     1      -1.719  14.083  22.140  0.00  0.00    +0.000 C 
ATOM     22  C   UNL     1      -2.389  14.146  23.526  0.00  0.00    +0.000 C 
ENDBRANCH   7  20
ENDBRANCH   1  10
BRANCH   3  23
ATOM     23  C   UNL     1       3.537   5.935  19.564  0.00  0.00    +0.000 C 
BRANCH  23  24
ATOM     24  N   UNL     1       3.966   5.134  18.407  0.00  0.00    +0.000 N 
ATOM     25  C   UNL     1       3.137   4.103  17.982  0.00  0.00    +0.000 C 
ATOM     26  O   UNL     1       2.513   4.127  16.930  0.00  0.00    +0.000 OA
ATOM     27  C   UNL     1       5.196   5.433  17.828  0.00  0.00    +0.000 C 
ATOM     28  O   UNL     1       5.899   6.346  18.276  0.00  0.00    +0.000 OA
BRANCH  27  29
ATOM     29  C   UNL     1       5.656   4.612  16.617  0.00  0.00    +0.000 C 
ATOM     30  C   UNL     1       5.360   5.360  15.319  0.00  0.00    +0.000 C 
ATOM     31  C   UNL     1       7.158   4.327  16.710  0.00  0.00    +0.000 C 
ENDBRANCH  27  29
BRANCH  25  32
ATOM     32  O   UNL     1       3.018   3.130  18.921  0.00  0.00    +0.000 OA
BRANCH  32  33
ATOM     33  C   UNL     1       1.786   3.023  19.669  0.00  0.00    +0.000 C 
ATOM     34  C   UNL     1       0.810   2.012  19.079  0.00  0.00    +0.000 C 
ATOM     35  C   UNL     1       2.167   2.586  21.084  0.00  0.00    +0.000 C 
ENDBRANCH  32  33
ENDBRANCH  25  32
ENDBRANCH  23  24
ENDBRANCH   3  23
TORSDOF 7
ENDMDL
MODEL 4
REMARK VINA RESULT:      -8.5      0.845      1.097
REMARK  Name = 
REMARK  12 active torsions:
REMARK  status: ('A' for Active; 'I' for Inactive)
REMARK    1  A    between atoms: C_1  and  C_2
REMARK    2  A    between atoms: N_7  and  C_8
REMARK    3  A    between atoms: C_11  and  N_12
REMARK    4  A    between atoms: C_14  and  C_15
REMARK    5  A    between atoms: C_15  and  N_16
REMARK    6  A    between atoms: C_17  and  O_19
REMARK    7  A    between atoms: O_19  and  C_20
REMARK    8  A    between atoms: C_20  and  C_21
REMARK    9  A    between atoms: C_20  and  C_22
REMARK   10  A    between atoms: C_23  and  C_25
REMARK   11  A    between atoms: C_25  and  C_26
REMARK   12  A    between atoms: C_25  and  C_27
REMARK                            x       y       z     vdW  Elec       q    Type
REMARK                         _______ _______ _______ _____ _____    ______ ____
ROOT
ATOM      1  N   UNL     1       1.389   9.070  19.388  0.00  0.00    +0.000 N 
ATOM      2  C   UNL     1       1.826   7.904  20.103  0.00  0.00    +0.000 C 
ATOM      3  C   UNL     1       2.404   7.045  18.986  0.00  0.00    +0.000 C 
ATOM      4  O   UNL     1       2.805   8.011  18.009  0.00  0.00    +0.000 OA
ATOM      5  C   UNL     1       2.092   9.158  18.193  0.00  0.00    +0.000 C 
ATOM      6  O   UNL     1       2.141  10.073  17.394  0.00  0.00    +0.000 OA
ENDROOT
BRANCH   1  10
ATOM      7  C   UNL     1      -1.531  11.914  20.706  0.00  0.00    +0.000 A 
ATOM      8  C   UNL     1      -0.456  11.520  21.507  0.00  0.00    +0.000 A 
ATOM      9  C   UNL     1       0.474  10.568  21.083  0.00  0.00    +0.000 A 
ATOM     10  C   UNL     1       0.387   9.969  19.823  0.00  0.00    +0.000 A 
ATOM     11  C   UNL     1      -0.680  10.344  19.006  0.00  0.00    +0.000 A 
ATOM     12  C   UNL     1      -1.613  11.298  19.446  0.00  0.00    +0.000 A 
ATOM     13  F   UNL     1      -2.639  11.578  18.624  0.00  0.00    +0.000 F 
BRANCH   7  20
ATOM     14  C   UNL     1      -3.816  17.305  22.902  0.00  0.00    +0.000 C 
ATOM     15  C   UNL     1      -3.774  15.948  23.555  0.00  0.00    +0.000 C 
ATOM     16  O   UNL     1      -4.496  15.707  24.522  0.00  0.00    +0.000 OA
ATOM     17  N   UNL     1      -2.937  15.001  22.997  0.00  0.00    +0.000 N 
ATOM     18  C   UNL     1      -2.971  13.613  23.480  0.00  0.00    +0.000 C 
ATOM     19  C   UNL     1      -3.301  12.643  22.330  0.00  0.00    +0.000 C 
ATOM     20  N   UNL     1      -2.414  12.870  21.176  0.00  0.00    +0.000 N 
ATOM     21  C   UNL     1      -2.321  14.262  20.702  0.00  0.00    +0.000 C 
ATOM     22  C   UNL     1      -2.019  15.217  21.873  0.00  0.00    +0.000 C 
ENDBRANCH   7  20
ENDBRANCH   1  10
BRANCH   3  23
ATOM     23  C   UNL     1       3.624   6.208  19.382  0.00  0.00    +0.000 C 
BRANCH  23  24
ATOM     24  N   UNL     1       4.038   5.242  18.352  0.00  0.00    +0.000 N 
ATOM     25  C   UNL     1       3.273   4.094  18.186  0.00  0.00    +0.000 C 
ATOM     26  O   UNL     1       2.579   3.881  17.202  0.00  0.00    +0.000 OA
ATOM     27  C   UNL     1       5.195   5.518  17.629  0.00  0.00    +0.000 C 
ATOM     28  O   UNL     1       5.848   6.544  17.849  0.00  0.00    +0.000 OA
BRANCH  27  29
ATOM     29  C   UNL     1       5.639   4.525  16.548  0.00  0.00    +0.000 C 
ATOM     30  C   UNL     1       5.260   5.039  15.161  0.00  0.00    +0.000 C 
ATOM     31  C   UNL     1       7.154   4.310  16.616  0.00  0.00    +0.000 C 
ENDBRANCH  27  29
BRANCH  25  32
ATOM     32  O   UNL     1       3.302   3.302  19.289  0.00  0.00    +0.000 OA
BRANCH  32  33
ATOM     33  C   UNL     1       2.340   3.530  20.343  0.00  0.00    +0.000 C 
ATOM     34  C   UNL     1       0.898   3.328  19.892  0.00  0.00    +0.000 C 
ATOM     35  C   UNL     1       2.663   2.533  21.456  0.00  0.00    +0.000 C 
ENDBRANCH  32  33
ENDBRANCH  25  32
ENDBRANCH  23  24
ENDBRANCH   3  23
TORSDOF 7
ENDMDL
MODEL 5
REMARK VINA RESULT:      -8.5      2.596     11.193
REMARK  Name = 
REMARK  12 active torsions:
REMARK  status: ('A' for Active; 'I' for Inactive)
REMARK    1  A    between atoms: C_1  and  C_2
REMARK    2  A    between atoms: N_7  and  C_8
REMARK    3  A    between atoms: C_11  and  N_12
REMARK    4  A    between atoms: C_14  and  C_15
REMARK    5  A    between atoms: C_15  and  N_16
REMARK    6  A    between atoms: C_17  and  O_19
REMARK    7  A    between atoms: O_19  and  C_20
REMARK    8  A    between atoms: C_20  and  C_21
REMARK    9  A    between atoms: C_20  and  C_22
REMARK   10  A    between atoms: C_23  and  C_25
REMARK   11  A    between atoms: C_25  and  C_26
REMARK   12  A    between atoms: C_25  and  C_27
REMARK                            x       y       z     vdW  Elec       q    Type
REMARK                         _______ _______ _______ _____ _____    ______ ____
ROOT
ATOM      1  N   UNL     1       0.176  11.113  20.259  0.00  0.00    +0.000 N 
ATOM      2  C   UNL     1      -1.215  11.146  20.613  0.00  0.00    +0.000 C 
ATOM      3  C   UNL     1      -1.295  12.403  21.467  0.00  0.00    +0.000 C 
ATOM      4  O   UNL     1      -0.217  13.203  20.970  0.00  0.00    +0.000 OA
ATOM      5  C   UNL     1       0.702  12.393  20.372  0.00  0.00    +0.000 C 
ATOM      6  O   UNL     1       1.782  12.817  20.007  0.00  0.00    +0.000 OA
ENDROOT
BRANCH   1  10
ATOM      7  C   UNL     1       2.221   7.522  19.126  0.00  0.00    +0.000 A 
ATOM      8  C   UNL     1       1.706   7.716  20.411  0.00  0.00    +0.000 A 
ATOM      9  C   UNL     1       1.070   8.903  20.782  0.00  0.00    +0.000 A 
ATOM     10  C   UNL     1       0.897   9.956  19.879  0.00  0.00    +0.000 A 
ATOM     11  C   UNL     1       1.406   9.787  18.591  0.00  0.00    +0.000 A 
ATOM     12  C   UNL     1       2.051   8.592  18.231  0.00  0.00    +0.000 A 
ATOM     13  F   UNL     1       2.554   8.516  16.987  0.00  0.00    +0.000 F 
BRANCH   7  20
ATOM     14  C   UNL     1       3.173   1.402  18.264  0.00  0.00    +0.000 C 
ATOM     15  C   UNL     1       3.842   2.348  19.228  0.00  0.00    +0.000 C 
ATOM     16  O   UNL     1       4.907   2.034  19.759  0.00  0.00    +0.000 OA
ATOM     17  N   UNL     1       3.234   3.569  19.444  0.00  0.00    +0.000 N 
ATOM     18  C   UNL     1       3.917   4.600  20.240  0.00  0.00    +0.000 C 
ATOM     19  C   UNL     1       4.105   5.889  19.417  0.00  0.00    +0.000 C 
ATOM     20  N   UNL     1       2.832   6.321  18.814  0.00  0.00    +0.000 N 
ATOM     21  C   UNL     1       2.101   5.293  18.052  0.00  0.00    +0.000 C 
ATOM     22  C   UNL     1       1.950   4.004  18.882  0.00  0.00    +0.000 C 
ENDBRANCH   7  20
ENDBRANCH   1  10
BRANCH   3  23
ATOM     23  C   UNL     1      -2.599  13.195  21.330  0.00  0.00    +0.000 C 
BRANCH  23  24
ATOM     24  N   UNL     1      -3.239  13.510  22.617  0.00  0.00    +0.000 N 
ATOM     25  C   UNL     1      -4.109  12.572  23.161  0.00  0.00    +0.000 C 
ATOM     26  O   UNL     1      -3.859  11.923  24.168  0.00  0.00    +0.000 OA
ATOM     27  C   UNL     1      -2.964  14.745  23.196  0.00  0.00    +0.000 C 
ATOM     28  O   UNL     1      -2.204  15.546  22.641  0.00  0.00    +0.000 OA
BRANCH  27  29
ATOM     29  C   UNL     1      -3.618  15.088  24.540  0.00  0.00    +0.000 C 
ATOM     30  C   UNL     1      -2.561  15.203  25.636  0.00  0.00    +0.000 C 
ATOM     31  C   UNL     1      -4.388  16.407  24.434  0.00  0.00    +0.000 C 
ENDBRANCH  27  29
BRANCH  25  32
ATOM     32  O   UNL     1      -5.206  12.387  22.383  0.00  0.00    +0.000 OA
BRANCH  32  33
ATOM     33  C   UNL     1      -6.338  13.270  22.543  0.00  0.00    +0.000 C 
ATOM     34  C   UNL     1      -6.826  13.867  21.227  0.00  0.00    +0.000 C 
ATOM     35  C   UNL     1      -7.460  12.439  23.164  0.00  0.00    +0.000 C 
ENDBRANCH  32  33
ENDBRANCH  25  32
ENDBRANCH  23  24
ENDBRANCH   3  23
TORSDOF 7
ENDMDL
MODEL 6
REMARK VINA RESULT:      -8.5      2.760     10.778
REMARK  Name = 
REMARK  12 active torsions:
REMARK  status: ('A' for Active; 'I' for Inactive)
REMARK    1  A    between atoms: C_1  and  C_2
REMARK    2  A    between atoms: N_7  and  C_8
REMARK    3  A    between atoms: C_11  and  N_12
REMARK    4  A    between atoms: C_14  and  C_15
REMARK    5  A    between atoms: C_15  and  N_16
REMARK    6  A    between atoms: C_17  and  O_19
REMARK    7  A    between atoms: O_19  and  C_20
REMARK    8  A    between atoms: C_20  and  C_21
REMARK    9  A    between atoms: C_20  and  C_22
REMARK   10  A    between atoms: C_23  and  C_25
REMARK   11  A    between atoms: C_25  and  C_26
REMARK   12  A    between atoms: C_25  and  C_27
REMARK                            x       y       z     vdW  Elec       q    Type
REMARK                         _______ _______ _______ _____ _____    ______ ____
ROOT
ATOM      1  N   UNL     1      -0.009  10.906  20.072  0.00  0.00    +0.000 N 
ATOM      2  C   UNL     1      -1.362  11.125  19.644  0.00  0.00    +0.000 C 
ATOM      3  C   UNL     1      -1.878  12.088  20.703  0.00  0.00    +0.000 C 
ATOM      4  O   UNL     1      -0.689  12.756  21.142  0.00  0.00    +0.000 OA
ATOM      5  C   UNL     1       0.391  11.971  20.870  0.00  0.00    +0.000 C 
ATOM      6  O   UNL     1       1.499  12.249  21.285  0.00  0.00    +0.000 OA
ENDROOT
BRANCH   1  10
ATOM      7  C   UNL     1       2.243   7.390  19.111  0.00  0.00    +0.000 A 
ATOM      8  C   UNL     1       1.662   7.586  20.367  0.00  0.00    +0.000 A 
ATOM      9  C   UNL     1       0.957   8.750  20.683  0.00  0.00    +0.000 A 
ATOM     10  C   UNL     1       0.780   9.777  19.750  0.00  0.00    +0.000 A 
ATOM     11  C   UNL     1       1.354   9.605  18.491  0.00  0.00    +0.000 A 
ATOM     12  C   UNL     1       2.068   8.433  18.186  0.00  0.00    +0.000 A 
ATOM     13  F   UNL     1       2.630   8.356  16.968  0.00  0.00    +0.000 F 
BRANCH   7  20
ATOM     14  C   UNL     1       3.448   1.324  18.187  0.00  0.00    +0.000 C 
ATOM     15  C   UNL     1       3.942   2.243  19.275  0.00  0.00    +0.000 C 
ATOM     16  O   UNL     1       4.921   1.926  19.950  0.00  0.00    +0.000 OA
ATOM     17  N   UNL     1       3.283   3.445  19.438  0.00  0.00    +0.000 N 
ATOM     18  C   UNL     1       3.814   4.456  20.365  0.00  0.00    +0.000 C 
ATOM     19  C   UNL     1       4.097   5.777  19.628  0.00  0.00    +0.000 C 
ATOM     20  N   UNL     1       2.921   6.212  18.853  0.00  0.00    +0.000 N 
ATOM     21  C   UNL     1       2.336   5.203  17.952  0.00  0.00    +0.000 C 
ATOM     22  C   UNL     1       2.089   3.881  18.704  0.00  0.00    +0.000 C 
ENDBRANCH   7  20
ENDBRANCH   1  10
BRANCH   3  23
ATOM     23  C   UNL     1      -2.871  13.137  20.194  0.00  0.00    +0.000 C 
BRANCH  23  24
ATOM     24  N   UNL     1      -4.280  12.772  20.410  0.00  0.00    +0.000 N 
ATOM     25  C   UNL     1      -4.812  12.942  21.682  0.00  0.00    +0.000 C 
ATOM     26  O   UNL     1      -5.650  13.790  21.956  0.00  0.00    +0.000 OA
ATOM     27  C   UNL     1      -4.988  12.243  19.334  0.00  0.00    +0.000 C 
ATOM     28  O   UNL     1      -4.444  12.089  18.235  0.00  0.00    +0.000 OA
BRANCH  27  29
ATOM     29  C   UNL     1      -6.459  11.862  19.540  0.00  0.00    +0.000 C 
ATOM     30  C   UNL     1      -7.353  12.635  18.572  0.00  0.00    +0.000 C 
ATOM     31  C   UNL     1      -6.653  10.359  19.323  0.00  0.00    +0.000 C 
ENDBRANCH  27  29
BRANCH  25  32
ATOM     32  O   UNL     1      -4.209  12.138  22.594  0.00  0.00    +0.000 OA
BRANCH  32  33
ATOM     33  C   UNL     1      -3.597  12.733  23.760  0.00  0.00    +0.000 C 
ATOM     34  C   UNL     1      -3.390  14.238  23.627  0.00  0.00    +0.000 C 
ATOM     35  C   UNL     1      -4.531  12.456  24.938  0.00  0.00    +0.000 C 
ENDBRANCH  32  33
ENDBRANCH  25  32
ENDBRANCH  23  24
ENDBRANCH   3  23
TORSDOF 7
ENDMDL
MODEL 7
REMARK VINA RESULT:      -8.5      1.416      3.262
REMARK  Name = 
REMARK  12 active torsions:
REMARK  status: ('A' for Active; 'I' for Inactive)
REMARK    1  A    between atoms: C_1  and  C_2
REMARK    2  A    between atoms: N_7  and  C_8
REMARK    3  A    between atoms: C_11  and  N_12
REMARK    4  A    between atoms: C_14  and  C_15
REMARK    5  A    between atoms: C_15  and  N_16
REMARK    6  A    between atoms: C_17  and  O_19
REMARK    7  A    between atoms: O_19  and  C_20
REMARK    8  A    between atoms: C_20  and  C_21
REMARK    9  A    between atoms: C_20  and  C_22
REMARK   10  A    between atoms: C_23  and  C_25
REMARK   11  A    between atoms: C_25  and  C_26
REMARK   12  A    between atoms: C_25  and  C_27
REMARK                            x       y       z     vdW  Elec       q    Type
REMARK                         _______ _______ _______ _____ _____    ______ ____
ROOT
ATOM      1  N   UNL     1       1.366   9.250  19.439  0.00  0.00    +0.000 N 
ATOM      2  C   UNL     1       1.810   8.141  20.235  0.00  0.00    +0.000 C 
ATOM      3  C   UNL     1       2.311   7.171  19.175  0.00  0.00    +0.000 C 
ATOM      4  O   UNL     1       2.685   8.034  18.096  0.00  0.00    +0.000 OA
ATOM      5  C   UNL     1       2.009   9.212  18.209  0.00  0.00    +0.000 C 
ATOM      6  O   UNL     1       2.040  10.050  17.329  0.00  0.00    +0.000 OA
ENDROOT
BRANCH   1  10
ATOM      7  C   UNL     1      -1.651  12.048  20.634  0.00  0.00    +0.000 A 
ATOM      8  C   UNL     1      -1.617  11.486  19.355  0.00  0.00    +0.000 A 
ATOM      9  C   UNL     1      -0.611  10.600  18.963  0.00  0.00    +0.000 A 
ATOM     10  C   UNL     1       0.408  10.213  19.838  0.00  0.00    +0.000 A 
ATOM     11  C   UNL     1       0.397  10.764  21.120  0.00  0.00    +0.000 A 
ATOM     12  C   UNL     1      -0.616  11.660  21.501  0.00  0.00    +0.000 A 
ATOM     13  F   UNL     1      -0.538  12.185  22.736  0.00  0.00    +0.000 F 
BRANCH   7  20
ATOM     14  C   UNL     1      -4.734  17.018  22.847  0.00  0.00    +0.000 C 
ATOM     15  C   UNL     1      -4.802  15.578  23.285  0.00  0.00    +0.000 C 
ATOM     16  O   UNL     1      -5.750  15.186  23.966  0.00  0.00    +0.000 OA
ATOM     17  N   UNL     1      -3.795  14.736  22.855  0.00  0.00    +0.000 N 
ATOM     18  C   UNL     1      -3.888  13.290  23.106  0.00  0.00    +0.000 C 
ATOM     19  C   UNL     1      -3.837  12.503  21.783  0.00  0.00    +0.000 C 
ATOM     20  N   UNL     1      -2.678  12.912  20.969  0.00  0.00    +0.000 N 
ATOM     21  C   UNL     1      -2.532  14.361  20.744  0.00  0.00    +0.000 C 
ATOM     22  C   UNL     1      -2.616  15.130  22.076  0.00  0.00    +0.000 C 
ENDBRANCH   7  20
ENDBRANCH   1  10
BRANCH   3  23
ATOM     23  C   UNL     1       3.529   6.338  19.586  0.00  0.00    +0.000 C 
BRANCH  23  24
ATOM     24  N   UNL     1       3.299   4.886  19.537  0.00  0.00    +0.000 N 
ATOM     25  C   UNL     1       4.177   4.109  18.790  0.00  0.00    +0.000 C 
ATOM     26  O   UNL     1       4.974   3.325  19.286  0.00  0.00    +0.000 OA
ATOM     27  C   UNL     1       2.192   4.380  20.211  0.00  0.00    +0.000 C 
ATOM     28  O   UNL     1       1.432   5.132  20.832  0.00  0.00    +0.000 OA
BRANCH  27  29
ATOM     29  C   UNL     1       1.939   2.868  20.176  0.00  0.00    +0.000 C 
ATOM     30  C   UNL     1       1.487   2.367  21.546  0.00  0.00    +0.000 C 
ATOM     31  C   UNL     1       0.868   2.533  19.133  0.00  0.00    +0.000 C 
ENDBRANCH  27  29
BRANCH  25  32
ATOM     32  O   UNL     1       4.119   4.410  17.468  0.00  0.00    +0.000 OA
BRANCH  32  33
ATOM     33  C   UNL     1       5.326   4.826  16.789  0.00  0.00    +0.000 C 
ATOM     34  C   UNL     1       5.752   3.870  15.681  0.00  0.00    +0.000 C 
ATOM     35  C   UNL     1       5.038   6.200  16.184  0.00  0.00    +0.000 C 
ENDBRANCH  32  33
ENDBRANCH  25  32
ENDBRANCH  23  24
ENDBRANCH   3  23
TORSDOF 7
ENDMDL
MODEL 8
REMARK VINA RESULT:      -8.4      0.941      1.177
REMARK  Name = 
REMARK  12 active torsions:
REMARK  status: ('A' for Active; 'I' for Inactive)
REMARK    1  A    between atoms: C_1  and  C_2
REMARK    2  A    between atoms: N_7  and  C_8
REMARK    3  A    between atoms: C_11  and  N_12
REMARK    4  A    between atoms: C_14  and  C_15
REMARK    5  A    between atoms: C_15  and  N_16
REMARK    6  A    between atoms: C_17  and  O_19
REMARK    7  A    between atoms: O_19  and  C_20
REMARK    8  A    between atoms: C_20  and  C_21
REMARK    9  A    between atoms: C_20  and  C_22
REMARK   10  A    between atoms: C_23  and  C_25
REMARK   11  A    between atoms: C_25  and  C_26
REMARK   12  A    between atoms: C_25  and  C_27
REMARK                            x       y       z     vdW  Elec       q    Type
REMARK                         _______ _______ _______ _____ _____    ______ ____
ROOT
ATOM      1  N   UNL     1       1.490   8.703  19.631  0.00  0.00    +0.000 N 
ATOM      2  C   UNL     1       1.976   7.548  20.332  0.00  0.00    +0.000 C 
ATOM      3  C   UNL     1       2.380   6.629  19.188  0.00  0.00    +0.000 C 
ATOM      4  O   UNL     1       2.685   7.543  18.129  0.00  0.00    +0.000 OA
ATOM      5  C   UNL     1       2.038   8.721  18.355  0.00  0.00    +0.000 C 
ATOM      6  O   UNL     1       2.014   9.604  17.519  0.00  0.00    +0.000 OA
ENDROOT
BRANCH   1  10
ATOM      7  C   UNL     1      -1.137  11.691  21.221  0.00  0.00    +0.000 A 
ATOM      8  C   UNL     1      -0.118  11.109  21.981  0.00  0.00    +0.000 A 
ATOM      9  C   UNL     1       0.713  10.111  21.466  0.00  0.00    +0.000 A 
ATOM     10  C   UNL     1       0.581   9.654  20.151  0.00  0.00    +0.000 A 
ATOM     11  C   UNL     1      -0.431  10.217  19.374  0.00  0.00    +0.000 A 
ATOM     12  C   UNL     1      -1.266  11.215  19.905  0.00  0.00    +0.000 A 
ATOM     13  F   UNL     1      -2.247  11.680  19.113  0.00  0.00    +0.000 F 
BRANCH   7  20
ATOM     14  C   UNL     1      -6.101  14.771  23.450  0.00  0.00    +0.000 C 
ATOM     15  C   UNL     1      -5.224  15.098  22.269  0.00  0.00    +0.000 C 
ATOM     16  O   UNL     1      -5.236  16.231  21.788  0.00  0.00    +0.000 OA
ATOM     17  N   UNL     1      -4.397  14.097  21.797  0.00  0.00    +0.000 N 
ATOM     18  C   UNL     1      -3.399  14.396  20.759  0.00  0.00    +0.000 C 
ATOM     19  C   UNL     1      -1.980  14.055  21.251  0.00  0.00    +0.000 C 
ATOM     20  N   UNL     1      -1.922  12.682  21.782  0.00  0.00    +0.000 N 
ATOM     21  C   UNL     1      -2.942  12.338  22.789  0.00  0.00    +0.000 C 
ATOM     22  C   UNL     1      -4.349  12.715  22.287  0.00  0.00    +0.000 C 
ENDBRANCH   7  20
ENDBRANCH   1  10
BRANCH   3  23
ATOM     23  C   UNL     1       3.613   5.761  19.460  0.00  0.00    +0.000 C 
BRANCH  23  24
ATOM     24  N   UNL     1       4.038   4.957  18.304  0.00  0.00    +0.000 N 
ATOM     25  C   UNL     1       3.334   3.792  18.023  0.00  0.00    +0.000 C 
ATOM     26  O   UNL     1       2.612   3.659  17.045  0.00  0.00    +0.000 OA
ATOM     27  C   UNL     1       5.146   5.391  17.581  0.00  0.00    +0.000 C 
ATOM     28  O   UNL     1       5.746   6.422  17.905  0.00  0.00    +0.000 OA
BRANCH  27  29
ATOM     29  C   UNL     1       5.600   4.569  16.370  0.00  0.00    +0.000 C 
ATOM     30  C   UNL     1       5.252   5.292  15.070  0.00  0.00    +0.000 C 
ATOM     31  C   UNL     1       7.111   4.327  16.430  0.00  0.00    +0.000 C 
ENDBRANCH  27  29
BRANCH  25  32
ATOM     32  O   UNL     1       3.457   2.875  19.016  0.00  0.00    +0.000 OA
BRANCH  32  33
ATOM     33  C   UNL     1       2.270   2.428  19.709  0.00  0.00    +0.000 C 
ATOM     34  C   UNL     1       2.285   2.756  21.198  0.00  0.00    +0.000 C 
ATOM     35  C   UNL     1       1.084   3.134  19.052  0.00  0.00    +0.000 C 
ENDBRANCH  32  33
ENDBRANCH  25  32
ENDBRANCH  23  24
ENDBRANCH   3  23
TORSDOF 7
ENDMDL
MODEL 9
REMARK VINA RESULT:      -8.4      2.625      4.282
REMARK  Name = 
REMARK  12 active torsions:
REMARK  status: ('A' for Active; 'I' for Inactive)
REMARK    1  A    between atoms: C_1  and  C_2
REMARK    2  A    between atoms: N_7  and  C_8
REMARK    3  A    between atoms: C_11  and  N_12
REMARK    4  A    between atoms: C_14  and  C_15
REMARK    5  A    between atoms: C_15  and  N_16
REMARK    6  A    between atoms: C_17  and  O_19
REMARK    7  A    between atoms: O_19  and  C_20
REMARK    8  A    between atoms: C_20  and  C_21
REMARK    9  A    between atoms: C_20  and  C_22
REMARK   10  A    between atoms: C_23  and  C_25
REMARK   11  A    between atoms: C_25  and  C_26
REMARK   12  A    between atoms: C_25  and  C_27
REMARK                            x       y       z     vdW  Elec       q    Type
REMARK                         _______ _______ _______ _____ _____    ______ ____
ROOT
ATOM      1  N   UNL     1       2.835   6.316  19.426  0.00  0.00    +0.000 N 
ATOM      2  C   UNL     1       4.073   6.003  18.769  0.00  0.00    +0.000 C 
ATOM      3  C   UNL     1       4.566   4.809  19.573  0.00  0.00    +0.000 C 
ATOM      4  O   UNL     1       3.355   4.234  20.077  0.00  0.00    +0.000 OA
ATOM      5  C   UNL     1       2.382   5.188  20.098  0.00  0.00    +0.000 C 
ATOM      6  O   UNL     1       1.306   4.987  20.628  0.00  0.00    +0.000 OA
ENDROOT
BRANCH   1  10
ATOM      7  C   UNL     1       0.775  10.070  19.285  0.00  0.00    +0.000 A 
ATOM      8  C   UNL     1       1.316   9.470  18.144  0.00  0.00    +0.000 A 
ATOM      9  C   UNL     1       2.016   8.262  18.203  0.00  0.00    +0.000 A 
ATOM     10  C   UNL     1       2.195   7.577  19.409  0.00  0.00    +0.000 A 
ATOM     11  C   UNL     1       1.666   8.158  20.562  0.00  0.00    +0.000 A 
ATOM     12  C   UNL     1       0.971   9.377  20.491  0.00  0.00    +0.000 A 
ATOM     13  F   UNL     1       0.527   9.899  21.648  0.00  0.00    +0.000 F 
BRANCH   7  20
ATOM     14  C   UNL     1      -0.851  16.073  19.927  0.00  0.00    +0.000 C 
ATOM     15  C   UNL     1      -1.583  14.832  20.368  0.00  0.00    +0.000 C 
ATOM     16  O   UNL     1      -2.780  14.890  20.650  0.00  0.00    +0.000 OA
ATOM     17  N   UNL     1      -0.869  13.650  20.395  0.00  0.00    +0.000 N 
ATOM     18  C   UNL     1      -1.560  12.378  20.653  0.00  0.00    +0.000 C 
ATOM     19  C   UNL     1      -1.348  11.395  19.487  0.00  0.00    +0.000 C 
ATOM     20  N   UNL     1       0.083  11.261  19.162  0.00  0.00    +0.000 N 
ATOM     21  C   UNL     1       0.813  12.523  18.947  0.00  0.00    +0.000 C 
ATOM     22  C   UNL     1       0.563  13.502  20.111  0.00  0.00    +0.000 C 
ENDBRANCH   7  20
ENDBRANCH   1  10
BRANCH   3  23
ATOM     23  C   UNL     1       5.314   3.747  18.760  0.00  0.00    +0.000 C 
BRANCH  23  24
ATOM     24  N   UNL     1       5.957   4.274  17.547  0.00  0.00    +0.000 N 
ATOM     25  C   UNL     1       7.263   4.740  17.649  0.00  0.00    +0.000 C 
ATOM     26  O   UNL     1       8.223   4.174  17.145  0.00  0.00    +0.000 OA
ATOM     27  C   UNL     1       5.207   4.310  16.375  0.00  0.00    +0.000 C 
ATOM     28  O   UNL     1       4.038   3.908  16.362  0.00  0.00    +0.000 OA
BRANCH  27  29
ATOM     29  C   UNL     1       5.863   4.851  15.100  0.00  0.00    +0.000 C 
ATOM     30  C   UNL     1       5.669   3.875  13.941  0.00  0.00    +0.000 C 
ATOM     31  C   UNL     1       5.260   6.209  14.728  0.00  0.00    +0.000 C 
ENDBRANCH  27  29
BRANCH  25  32
ATOM     32  O   UNL     1       7.352   5.823  18.462  0.00  0.00    +0.000 OA
BRANCH  32  33
ATOM     33  C   UNL     1       7.821   7.076  17.915  0.00  0.00    +0.000 C 
ATOM     34  C   UNL     1       6.696   7.964  17.395  0.00  0.00    +0.000 C 
ATOM     35  C   UNL     1       8.554   7.801  19.043  0.00  0.00    +0.000 C 
ENDBRANCH  32  33
ENDBRANCH  25  32
ENDBRANCH  23  24
ENDBRANCH   3  23
TORSDOF 7
ENDMDL
