MODEL 1
REMARK VINA RESULT:      -7.5      0.000      0.000
REMARK  Name = 
REMARK  14 active torsions:
REMARK  status: ('A' for Active; 'I' for Inactive)
REMARK    1  A    between atoms: C_1  and  C_2
REMARK    2  A    between atoms: C_2  and  N_3
REMARK    3  A    between atoms: N_3  and  C_4
REMARK    4  A    between atoms: N_3  and  S_6
REMARK    5  A    between atoms: C_4  and  C_5
REMARK    6  A    between atoms: S_6  and  C_9
REMARK    7  A    between atoms: C_13  and  C_14
REMARK    8  A    between atoms: N_16  and  C_17
REMARK    9  A    between atoms: C_17  and  C_18
REMARK   10  A    between atoms: C_17  and  C_29
REMARK   11  A    between atoms: N_20  and  C_21
REMARK   12  A    between atoms: C_21  and  C_22
REMARK   13  A    between atoms: C_29  and  C_30
REMARK   14  A    between atoms: C_29  and  C_31
REMARK                            x       y       z     vdW  Elec       q    Type
REMARK                         _______ _______ _______ _____ _____    ______ ____
ROOT
ATOM      1  C   UNL     1       2.448   6.826  19.539  0.00  0.00    +0.000 C 
ATOM      2  O   UNL     1       3.256   7.086  18.655  0.00  0.00    +0.000 OA
ATOM      3  N   UNL     1       2.178   5.531  19.960  0.00  0.00    +0.000 N 
ATOM      4  H   UNL     1       1.444   5.358  20.630  0.00  0.00    +0.000 HD
ENDROOT
BRANCH   1   9
ATOM      5  C   UNL     1       0.502  10.075  19.909  0.00  0.00    +0.000 A 
ATOM      6  C   UNL     1      -0.177   9.865  21.110  0.00  0.00    +0.000 A 
ATOM      7  C   UNL     1       0.070   8.698  21.837  0.00  0.00    +0.000 A 
ATOM      8  C   UNL     1       0.953   7.737  21.330  0.00  0.00    +0.000 A 
ATOM      9  C   UNL     1       1.598   7.927  20.093  0.00  0.00    +0.000 A 
ATOM     10  C   UNL     1       1.405   9.123  19.405  0.00  0.00    +0.000 A 
BRANCH   5  11
ATOM     11  S   UNL     1       0.136  11.501  18.930  0.00  0.00    +0.000 S 
ATOM     12  O   UNL     1      -0.999  11.162  18.093  0.00  0.00    +0.000 OA
ATOM     13  O   UNL     1       1.395  11.938  18.354  0.00  0.00    +0.000 OA
BRANCH  11  14
ATOM     14  N   UNL     1      -0.342  12.696  20.061  0.00  0.00    +0.000 NA
BRANCH  14  16
ATOM     15  C   UNL     1       0.004  15.139  19.590  0.00  0.00    +0.000 C 
ATOM     16  C   UNL     1       0.589  13.859  20.166  0.00  0.00    +0.000 C 
ENDBRANCH  14  16
BRANCH  14  17
ATOM     17  C   UNL     1      -1.794  13.042  19.958  0.00  0.00    +0.000 C 
ATOM     18  C   UNL     1      -2.603  12.656  21.186  0.00  0.00    +0.000 C 
ENDBRANCH  14  17
ENDBRANCH  11  14
ENDBRANCH   5  11
ENDBRANCH   1   9
BRANCH   3  19
ATOM     19  C   UNL     1       2.724   4.335  19.278  0.00  0.00    +0.000 C 
BRANCH  19  20
ATOM     20  C   UNL     1       2.274   4.183  17.777  0.00  0.00    +0.000 C 
ATOM     21  O   UNL     1       1.087   4.165  17.437  0.00  0.00    +0.000 OA
ATOM     22  N   UNL     1       3.200   3.933  16.799  0.00  0.00    +0.000 N 
ATOM     23  H   UNL     1       2.808   3.762  15.881  0.00  0.00    +0.000 HD
BRANCH  22  24
ATOM     24  C   UNL     1       4.564   3.575  17.051  0.00  0.00    +0.000 C 
BRANCH  24  25
ATOM     25  C   UNL     1       5.498   4.723  17.239  0.00  0.00    +0.000 A 
ATOM     26  C   UNL     1       5.366   5.851  16.415  0.00  0.00    +0.000 A 
ATOM     27  C   UNL     1       6.182   6.959  16.610  0.00  0.00    +0.000 A 
ATOM     28  C   UNL     1       7.136   6.935  17.625  0.00  0.00    +0.000 A 
ATOM     29 CL   UNL     1       8.169   8.291  17.843  0.00  0.00    +0.000 Cl
ATOM     30  C   UNL     1       7.262   5.825  18.460  0.00  0.00    +0.000 A 
ATOM     31  C   UNL     1       6.441   4.714  18.269  0.00  0.00    +0.000 A 
ENDBRANCH  24  25
ENDBRANCH  22  24
ENDBRANCH  19  20
BRANCH  19  32
ATOM     32  C   UNL     1       2.413   3.047  20.086  0.00  0.00    +0.000 C 
ATOM     33  C   UNL     1       3.695   2.408  20.629  0.00  0.00    +0.000 C 
ATOM     34  C   UNL     1       1.426   3.268  21.239  0.00  0.00    +0.000 C 
ENDBRANCH  19  32
ENDBRANCH   3  19
TORSDOF 10
ENDMDL
MODEL 2
REMARK VINA RESULT:      -7.2      3.543      8.520
REMARK  Name = 
REMARK  14 active torsions:
REMARK  status: ('A' for Active; 'I' for Inactive)
REMARK    1  A    between atoms: C_1  and  C_2
REMARK    2  A    between atoms: C_2  and  N_3
REMARK    3  A    between atoms: N_3  and  C_4
REMARK    4  A    between atoms: N_3  and  S_6
REMARK    5  A    between atoms: C_4  and  C_5
REMARK    6  A    between atoms: S_6  and  C_9
REMARK    7  A    between atoms: C_13  and  C_14
REMARK    8  A    between atoms: N_16  and  C_17
REMARK    9  A    between atoms: C_17  and  C_18
REMARK   10  A    between atoms: C_17  and  C_29
REMARK   11  A    between atoms: N_20  and  C_21
REMARK   12  A    between atoms: C_21  and  C_22
REMARK   13  A    between atoms: C_29  and  C_30
REMARK   14  A    between atoms: C_29  and  C_31
REMARK                            x       y       z     vdW  Elec       q    Type
REMARK                         _______ _______ _______ _____ _____    ______ ____
ROOT
ATOM      1  C   UNL     1       1.874   8.734  18.492  0.00  0.00    +0.000 C 
ATOM      2  O   UNL     1       2.395   9.231  17.499  0.00  0.00    +0.000 OA
ATOM      3  N   UNL     1       0.989   9.425  19.309  0.00  0.00    +0.000 N 
ATOM      4  H   UNL     1       0.653   9.004  20.161  0.00  0.00    +0.000 HD
ENDROOT
BRANCH   1   9
ATOM      5  C   UNL     1       3.728   5.421  18.754  0.00  0.00    +0.000 A 
ATOM      6  C   UNL     1       3.242   4.917  19.961  0.00  0.00    +0.000 A 
ATOM      7  C   UNL     1       2.247   5.623  20.642  0.00  0.00    +0.000 A 
ATOM      8  C   UNL     1       1.788   6.843  20.132  0.00  0.00    +0.000 A 
ATOM      9  C   UNL     1       2.316   7.376  18.941  0.00  0.00    +0.000 A 
ATOM     10  C   UNL     1       3.256   6.636  18.227  0.00  0.00    +0.000 A 
BRANCH   5  11
ATOM     11  S   UNL     1       5.051   4.592  17.924  0.00  0.00    +0.000 S 
ATOM     12  O   UNL     1       4.448   3.646  17.004  0.00  0.00    +0.000 OA
ATOM     13  O   UNL     1       5.975   4.157  18.956  0.00  0.00    +0.000 OA
BRANCH  11  14
ATOM     14  N   UNL     1       5.840   5.819  17.025  0.00  0.00    +0.000 NA
BRANCH  14  16
ATOM     15  C   UNL     1       7.540   7.611  17.479  0.00  0.00    +0.000 C 
ATOM     16  C   UNL     1       7.230   6.123  17.478  0.00  0.00    +0.000 C 
ENDBRANCH  14  16
BRANCH  14  17
ATOM     17  C   UNL     1       5.665   5.656  15.548  0.00  0.00    +0.000 C 
ATOM     18  C   UNL     1       6.809   4.912  14.876  0.00  0.00    +0.000 C 
ENDBRANCH  14  17
ENDBRANCH  11  14
ENDBRANCH   5  11
ENDBRANCH   1   9
BRANCH   3  19
ATOM     19  C   UNL     1       0.712  10.870  19.148  0.00  0.00    +0.000 C 
BRANCH  19  20
ATOM     20  C   UNL     1       1.154  11.756  20.371  0.00  0.00    +0.000 C 
ATOM     21  O   UNL     1       0.678  11.614  21.502  0.00  0.00    +0.000 OA
ATOM     22  N   UNL     1       2.004  12.815  20.188  0.00  0.00    +0.000 N 
ATOM     23  H   UNL     1       2.161  13.378  21.015  0.00  0.00    +0.000 HD
BRANCH  22  24
ATOM     24  C   UNL     1       2.376  13.340  18.909  0.00  0.00    +0.000 C 
BRANCH  24  25
ATOM     25  C   UNL     1       3.513  14.306  18.923  0.00  0.00    +0.000 A 
ATOM     26  C   UNL     1       4.561  14.138  18.005  0.00  0.00    +0.000 A 
ATOM     27  C   UNL     1       5.602  15.058  17.955  0.00  0.00    +0.000 A 
ATOM     28  C   UNL     1       5.598  16.142  18.829  0.00  0.00    +0.000 A 
ATOM     29 CL   UNL     1       6.902  17.260  18.792  0.00  0.00    +0.000 Cl
ATOM     30  C   UNL     1       4.551  16.327  19.732  0.00  0.00    +0.000 A 
ATOM     31  C   UNL     1       3.504  15.407  19.781  0.00  0.00    +0.000 A 
ENDBRANCH  24  25
ENDBRANCH  22  24
ENDBRANCH  19  20
BRANCH  19  32
ATOM     32  C   UNL     1      -0.781  11.111  18.797  0.00  0.00    +0.000 C 
ATOM     33  C   UNL     1      -1.008  12.535  18.278  0.00  0.00    +0.000 C 
ATOM     34  C   UNL     1      -1.345  10.105  17.787  0.00  0.00    +0.000 C 
ENDBRANCH  19  32
ENDBRANCH   3  19
TORSDOF 10
ENDMDL
MODEL 3
REMARK VINA RESULT:      -7.2      0.912      1.216
REMARK  Name = 
REMARK  14 active torsions:
REMARK  status: ('A' for Active; 'I' for Inactive)
REMARK    1  A    between atoms: C_1  and  C_2
REMARK    2  A    between atoms: C_2  and  N_3
REMARK    3  A    between atoms: N_3  and  C_4
REMARK    4  A    between atoms: N_3  and  S_6
REMARK    5  A    between atoms: C_4  and  C_5
REMARK    6  A    between atoms: S_6  and  C_9
REMARK    7  A    between atoms: C_13  and  C_14
REMARK    8  A    between atoms: N_16  and  C_17
REMARK    9  A    between atoms: C_17  and  C_18
REMARK   10  A    between atoms: C_17  and  C_29
REMARK   11  A    between atoms: N_20  and  C_21
REMARK   12  A    between atoms: C_21  and  C_22
REMARK   13  A    between atoms: C_29  and  C_30
REMARK   14  A    between atoms: C_29  and  C_31
REMARK                            x       y       z     vdW  Elec       q    Type
REMARK                         _______ _______ _______ _____ _____    ______ ____
ROOT
ATOM      1  C   UNL     1       2.243   6.822  19.717  0.00  0.00    +0.000 C 
ATOM      2  O   UNL     1       3.073   6.989  18.830  0.00  0.00    +0.000 OA
ATOM      3  N   UNL     1       1.854   5.566  20.163  0.00  0.00    +0.000 N 
ATOM      4  H   UNL     1       1.106   5.476  20.834  0.00  0.00    +0.000 HD
ENDROOT
BRANCH   1   9
ATOM      5  C   UNL     1       0.768  10.309  20.102  0.00  0.00    +0.000 A 
ATOM      6  C   UNL     1      -0.089  10.138  21.189  0.00  0.00    +0.000 A 
ATOM      7  C   UNL     1      -0.117   8.905  21.846  0.00  0.00    +0.000 A 
ATOM      8  C   UNL     1       0.673   7.849  21.377  0.00  0.00    +0.000 A 
ATOM      9  C   UNL     1       1.499   8.008  20.248  0.00  0.00    +0.000 A 
ATOM     10  C   UNL     1       1.579   9.258  19.639  0.00  0.00    +0.000 A 
BRANCH   5  11
ATOM     11  S   UNL     1       0.752  11.830  19.201  0.00  0.00    +0.000 S 
ATOM     12  O   UNL     1      -0.601  12.022  18.715  0.00  0.00    +0.000 OA
ATOM     13  O   UNL     1       1.882  11.781  18.291  0.00  0.00    +0.000 OA
BRANCH  11  14
ATOM     14  N   UNL     1       1.100  13.034  20.371  0.00  0.00    +0.000 NA
BRANCH  14  16
ATOM     15  C   UNL     1       3.335  13.950  21.061  0.00  0.00    +0.000 C 
ATOM     16  C   UNL     1       2.233  13.937  20.013  0.00  0.00    +0.000 C 
ENDBRANCH  14  16
BRANCH  14  17
ATOM     17  C   UNL     1      -0.129  13.715  20.882  0.00  0.00    +0.000 C 
ATOM     18  C   UNL     1      -0.221  15.183  20.494  0.00  0.00    +0.000 C 
ENDBRANCH  14  17
ENDBRANCH  11  14
ENDBRANCH   5  11
ENDBRANCH   1   9
BRANCH   3  19
ATOM     19  C   UNL     1       2.286   4.313  19.505  0.00  0.00    +0.000 C 
BRANCH  19  20
ATOM     20  C   UNL     1       2.153   4.323  17.937  0.00  0.00    +0.000 C 
ATOM     21  O   UNL     1       1.059   4.314  17.363  0.00  0.00    +0.000 OA
ATOM     22  N   UNL     1       3.266   4.212  17.147  0.00  0.00    +0.000 N 
ATOM     23  H   UNL     1       3.074   4.139  16.155  0.00  0.00    +0.000 HD
BRANCH  22  24
ATOM     24  C   UNL     1       4.568   3.863  17.631  0.00  0.00    +0.000 C 
BRANCH  24  25
ATOM     25  C   UNL     1       5.550   4.985  17.681  0.00  0.00    +0.000 A 
ATOM     26  C   UNL     1       5.353   6.100  16.852  0.00  0.00    +0.000 A 
ATOM     27  C   UNL     1       6.217   7.187  16.923  0.00  0.00    +0.000 A 
ATOM     28  C   UNL     1       7.283   7.154  17.819  0.00  0.00    +0.000 A 
ATOM     29 CL   UNL     1       8.373   8.482  17.882  0.00  0.00    +0.000 Cl
ATOM     30  C   UNL     1       7.476   6.058  18.660  0.00  0.00    +0.000 A 
ATOM     31  C   UNL     1       6.608   4.969  18.593  0.00  0.00    +0.000 A 
ENDBRANCH  24  25
ENDBRANCH  22  24
ENDBRANCH  19  20
BRANCH  19  32
ATOM     32  C   UNL     1       1.556   3.087  20.118  0.00  0.00    +0.000 C 
ATOM     33  C   UNL     1       1.976   1.786  19.424  0.00  0.00    +0.000 C 
ATOM     34  C   UNL     1       1.758   2.945  21.632  0.00  0.00    +0.000 C 
ENDBRANCH  19  32
ENDBRANCH   3  19
TORSDOF 10
ENDMDL
MODEL 4
REMARK VINA RESULT:      -7.2      2.474      3.407
REMARK  Name = 
REMARK  14 active torsions:
REMARK  status: ('A' for Active; 'I' for Inactive)
REMARK    1  A    between atoms: C_1  and  C_2
REMARK    2  A    between atoms: C_2  and  N_3
REMARK    3  A    between atoms: N_3  and  C_4
REMARK    4  A    between atoms: N_3  and  S_6
REMARK    5  A    between atoms: C_4  and  C_5
REMARK    6  A    between atoms: S_6  and  C_9
REMARK    7  A    between atoms: C_13  and  C_14
REMARK    8  A    between atoms: N_16  and  C_17
REMARK    9  A    between atoms: C_17  and  C_18
REMARK   10  A    between atoms: C_17  and  C_29
REMARK   11  A    between atoms: N_20  and  C_21
REMARK   12  A    between atoms: C_21  and  C_22
REMARK   13  A    between atoms: C_29  and  C_30
REMARK   14  A    between atoms: C_29  and  C_31
REMARK                            x       y       z     vdW  Elec       q    Type
REMARK                         _______ _______ _______ _____ _____    ______ ____
ROOT
ATOM      1  C   UNL     1       2.051   5.388  20.021  0.00  0.00    +0.000 C 
ATOM      2  O   UNL     1       1.582   5.181  21.135  0.00  0.00    +0.000 OA
ATOM      3  N   UNL     1       2.755   4.429  19.306  0.00  0.00    +0.000 N 
ATOM      4  H   UNL     1       3.195   4.671  18.431  0.00  0.00    +0.000 HD
ENDROOT
BRANCH   1   9
ATOM      5  C   UNL     1       1.367   9.106  19.582  0.00  0.00    +0.000 A 
ATOM      6  C   UNL     1       2.123   9.403  18.448  0.00  0.00    +0.000 A 
ATOM      7  C   UNL     1       2.785   8.369  17.781  0.00  0.00    +0.000 A 
ATOM      8  C   UNL     1       2.722   7.064  18.285  0.00  0.00    +0.000 A 
ATOM      9  C   UNL     1       2.001   6.775  19.459  0.00  0.00    +0.000 A 
ATOM     10  C   UNL     1       1.283   7.794  20.081  0.00  0.00    +0.000 A 
BRANCH   5  11
ATOM     11  S   UNL     1       0.596  10.412  20.491  0.00  0.00    +0.000 S 
ATOM     12  O   UNL     1       1.652  11.130  21.180  0.00  0.00    +0.000 OA
ATOM     13  O   UNL     1      -0.507   9.810  21.219  0.00  0.00    +0.000 OA
BRANCH  11  14
ATOM     14  N   UNL     1      -0.085  11.433  19.296  0.00  0.00    +0.000 NA
BRANCH  14  16
ATOM     15  C   UNL     1      -1.622  10.213  17.728  0.00  0.00    +0.000 C 
ATOM     16  C   UNL     1      -1.502  11.117  18.945  0.00  0.00    +0.000 C 
ENDBRANCH  14  16
BRANCH  14  17
ATOM     17  C   UNL     1       0.211  12.880  19.535  0.00  0.00    +0.000 C 
ATOM     18  C   UNL     1       1.189  13.476  18.535  0.00  0.00    +0.000 C 
ENDBRANCH  14  17
ENDBRANCH  11  14
ENDBRANCH   5  11
ENDBRANCH   1   9
BRANCH   3  19
ATOM     19  C   UNL     1       3.138   3.120  19.882  0.00  0.00    +0.000 C 
BRANCH  19  20
ATOM     20  C   UNL     1       4.690   2.905  20.026  0.00  0.00    +0.000 C 
ATOM     21  O   UNL     1       5.182   2.171  20.890  0.00  0.00    +0.000 OA
ATOM     22  N   UNL     1       5.565   3.637  19.267  0.00  0.00    +0.000 N 
ATOM     23  H   UNL     1       6.542   3.493  19.492  0.00  0.00    +0.000 HD
BRANCH  22  24
ATOM     24  C   UNL     1       5.193   4.771  18.475  0.00  0.00    +0.000 C 
BRANCH  24  25
ATOM     25  C   UNL     1       5.641   4.728  17.053  0.00  0.00    +0.000 A 
ATOM     26  C   UNL     1       6.983   5.008  16.752  0.00  0.00    +0.000 A 
ATOM     27  C   UNL     1       7.440   4.914  15.443  0.00  0.00    +0.000 A 
ATOM     28  C   UNL     1       6.554   4.547  14.434  0.00  0.00    +0.000 A 
ATOM     29 CL   UNL     1       7.111   4.465  12.810  0.00  0.00    +0.000 Cl
ATOM     30  C   UNL     1       5.223   4.248  14.726  0.00  0.00    +0.000 A 
ATOM     31  C   UNL     1       4.763   4.338  16.039  0.00  0.00    +0.000 A 
ENDBRANCH  24  25
ENDBRANCH  22  24
ENDBRANCH  19  20
BRANCH  19  32
ATOM     32  C   UNL     1       2.486   1.955  19.090  0.00  0.00    +0.000 C 
ATOM     33  C   UNL     1       1.040   2.285  18.705  0.00  0.00    +0.000 C 
ATOM     34  C   UNL     1       3.268   1.551  17.834  0.00  0.00    +0.000 C 
ENDBRANCH  19  32
ENDBRANCH   3  19
TORSDOF 10
ENDMDL
MODEL 5
REMARK VINA RESULT:      -7.1      3.407      8.351
REMARK  Name = 
REMARK  14 active torsions:
REMARK  status: ('A' for Active; 'I' for Inactive)
REMARK    1  A    between atoms: C_1  and  C_2
REMARK    2  A    between atoms: C_2  and  N_3
REMARK    3  A    between atoms: N_3  and  C_4
REMARK    4  A    between atoms: N_3  and  S_6
REMARK    5  A    between atoms: C_4  and  C_5
REMARK    6  A    between atoms: S_6  and  C_9
REMARK    7  A    between atoms: C_13  and  C_14
REMARK    8  A    between atoms: N_16  and  C_17
REMARK    9  A    between atoms: C_17  and  C_18
REMARK   10  A    between atoms: C_17  and  C_29
REMARK   11  A    between atoms: N_20  and  C_21
REMARK   12  A    between atoms: C_21  and  C_22
REMARK   13  A    between atoms: C_29  and  C_30
REMARK   14  A    between atoms: C_29  and  C_31
REMARK                            x       y       z     vdW  Elec       q    Type
REMARK                         _______ _______ _______ _____ _____    ______ ____
ROOT
ATOM      1  C   UNL     1       1.847   9.174  18.278  0.00  0.00    +0.000 C 
ATOM      2  O   UNL     1       2.242  10.005  17.468  0.00  0.00    +0.000 OA
ATOM      3  N   UNL     1       0.869   9.445  19.225  0.00  0.00    +0.000 N 
ATOM      4  H   UNL     1       0.637   8.757  19.925  0.00  0.00    +0.000 HD
ENDROOT
BRANCH   1   9
ATOM      5  C   UNL     1       4.157   6.236  17.561  0.00  0.00    +0.000 A 
ATOM      6  C   UNL     1       3.963   5.439  18.689  0.00  0.00    +0.000 A 
ATOM      7  C   UNL     1       3.015   5.824  19.640  0.00  0.00    +0.000 A 
ATOM      8  C   UNL     1       2.310   7.021  19.473  0.00  0.00    +0.000 A 
ATOM      9  C   UNL     1       2.543   7.851  18.359  0.00  0.00    +0.000 A 
ATOM     10  C   UNL     1       3.437   7.430  17.378  0.00  0.00    +0.000 A 
BRANCH   5  11
ATOM     11  S   UNL     1       5.416   5.815  16.393  0.00  0.00    +0.000 S 
ATOM     12  O   UNL     1       5.162   6.593  15.195  0.00  0.00    +0.000 OA
ATOM     13  O   UNL     1       5.472   4.365  16.354  0.00  0.00    +0.000 OA
BRANCH  11  14
ATOM     14  N   UNL     1       6.876   6.357  17.110  0.00  0.00    +0.000 NA
BRANCH  14  16
ATOM     15  C   UNL     1       8.102   8.480  17.656  0.00  0.00    +0.000 C 
ATOM     16  C   UNL     1       6.793   7.710  17.737  0.00  0.00    +0.000 C 
ENDBRANCH  14  16
BRANCH  14  17
ATOM     17  C   UNL     1       7.538   5.303  17.939  0.00  0.00    +0.000 C 
ATOM     18  C   UNL     1       7.426   5.544  19.437  0.00  0.00    +0.000 C 
ENDBRANCH  14  17
ENDBRANCH  11  14
ENDBRANCH   5  11
ENDBRANCH   1   9
BRANCH   3  19
ATOM     19  C   UNL     1       0.325  10.804  19.449  0.00  0.00    +0.000 C 
BRANCH  19  20
ATOM     20  C   UNL     1       0.858  11.510  20.750  0.00  0.00    +0.000 C 
ATOM     21  O   UNL     1       0.536  11.144  21.885  0.00  0.00    +0.000 OA
ATOM     22  N   UNL     1       1.609  12.652  20.660  0.00  0.00    +0.000 N 
ATOM     23  H   UNL     1       1.831  13.083  21.550  0.00  0.00    +0.000 HD
BRANCH  22  24
ATOM     24  C   UNL     1       1.785  13.410  19.458  0.00  0.00    +0.000 C 
BRANCH  24  25
ATOM     25  C   UNL     1       3.080  14.143  19.351  0.00  0.00    +0.000 A 
ATOM     26  C   UNL     1       3.539  14.536  18.084  0.00  0.00    +0.000 A 
ATOM     27  C   UNL     1       4.710  15.274  17.962  0.00  0.00    +0.000 A 
ATOM     28  C   UNL     1       5.427  15.613  19.107  0.00  0.00    +0.000 A 
ATOM     29 CL   UNL     1       6.894  16.494  18.954  0.00  0.00    +0.000 Cl
ATOM     30  C   UNL     1       4.969  15.242  20.372  0.00  0.00    +0.000 A 
ATOM     31  C   UNL     1       3.792  14.506  20.497  0.00  0.00    +0.000 A 
ENDBRANCH  24  25
ENDBRANCH  22  24
ENDBRANCH  19  20
BRANCH  19  32
ATOM     32  C   UNL     1      -1.227  10.790  19.419  0.00  0.00    +0.000 C 
ATOM     33  C   UNL     1      -1.800  12.199  19.606  0.00  0.00    +0.000 C 
ATOM     34  C   UNL     1      -1.812  10.166  18.146  0.00  0.00    +0.000 C 
ENDBRANCH  19  32
ENDBRANCH   3  19
TORSDOF 10
ENDMDL
MODEL 6
REMARK VINA RESULT:      -7.1      1.066      1.798
REMARK  Name = 
REMARK  14 active torsions:
REMARK  status: ('A' for Active; 'I' for Inactive)
REMARK    1  A    between atoms: C_1  and  C_2
REMARK    2  A    between atoms: C_2  and  N_3
REMARK    3  A    between atoms: N_3  and  C_4
REMARK    4  A    between atoms: N_3  and  S_6
REMARK    5  A    between atoms: C_4  and  C_5
REMARK    6  A    between atoms: S_6  and  C_9
REMARK    7  A    between atoms: C_13  and  C_14
REMARK    8  A    between atoms: N_16  and  C_17
REMARK    9  A    between atoms: C_17  and  C_18
REMARK   10  A    between atoms: C_17  and  C_29
REMARK   11  A    between atoms: N_20  and  C_21
REMARK   12  A    between atoms: C_21  and  C_22
REMARK   13  A    between atoms: C_29  and  C_30
REMARK   14  A    between atoms: C_29  and  C_31
REMARK                            x       y       z     vdW  Elec       q    Type
REMARK                         _______ _______ _______ _____ _____    ______ ____
ROOT
ATOM      1  C   UNL     1       2.390   6.734  19.784  0.00  0.00    +0.000 C 
ATOM      2  O   UNL     1       3.324   7.007  19.038  0.00  0.00    +0.000 OA
ATOM      3  N   UNL     1       1.978   5.433  20.036  0.00  0.00    +0.000 N 
ATOM      4  H   UNL     1       1.152   5.261  20.588  0.00  0.00    +0.000 HD
ENDROOT
BRANCH   1   9
ATOM      5  C   UNL     1       0.659  10.092  20.243  0.00  0.00    +0.000 A 
ATOM      6  C   UNL     1      -0.203   9.825  21.307  0.00  0.00    +0.000 A 
ATOM      7  C   UNL     1      -0.154   8.573  21.926  0.00  0.00    +0.000 A 
ATOM      8  C   UNL     1       0.720   7.593  21.442  0.00  0.00    +0.000 A 
ATOM      9  C   UNL     1       1.552   7.846  20.335  0.00  0.00    +0.000 A 
ATOM     10  C   UNL     1       1.553   9.118  19.766  0.00  0.00    +0.000 A 
BRANCH   5  11
ATOM     11  S   UNL     1       0.549  11.636  19.389  0.00  0.00    +0.000 S 
ATOM     12  O   UNL     1       1.430  11.550  18.240  0.00  0.00    +0.000 OA
ATOM     13  O   UNL     1       0.714  12.673  20.391  0.00  0.00    +0.000 OA
BRANCH  11  14
ATOM     14  N   UNL     1      -1.074  11.718  18.842  0.00  0.00    +0.000 NA
BRANCH  14  16
ATOM     15  C   UNL     1      -1.563   9.907  17.172  0.00  0.00    +0.000 C 
ATOM     16  C   UNL     1      -1.716  10.391  18.606  0.00  0.00    +0.000 C 
ENDBRANCH  14  16
BRANCH  14  17
ATOM     17  C   UNL     1      -1.894  12.701  19.615  0.00  0.00    +0.000 C 
ATOM     18  C   UNL     1      -3.383  12.388  19.616  0.00  0.00    +0.000 C 
ENDBRANCH  14  17
ENDBRANCH  11  14
ENDBRANCH   5  11
ENDBRANCH   1   9
BRANCH   3  19
ATOM     19  C   UNL     1       2.526   4.264  19.311  0.00  0.00    +0.000 C 
BRANCH  19  20
ATOM     20  C   UNL     1       2.187   4.236  17.775  0.00  0.00    +0.000 C 
ATOM     21  O   UNL     1       1.027   4.232  17.349  0.00  0.00    +0.000 OA
ATOM     22  N   UNL     1       3.184   4.084  16.849  0.00  0.00    +0.000 N 
ATOM     23  H   UNL     1       2.862   3.989  15.893  0.00  0.00    +0.000 HD
BRANCH  22  24
ATOM     24  C   UNL     1       4.534   3.724  17.166  0.00  0.00    +0.000 C 
BRANCH  24  25
ATOM     25  C   UNL     1       5.454   4.870  17.423  0.00  0.00    +0.000 A 
ATOM     26  C   UNL     1       6.489   4.717  18.359  0.00  0.00    +0.000 A 
ATOM     27  C   UNL     1       7.398   5.746  18.572  0.00  0.00    +0.000 A 
ATOM     28  C   UNL     1       7.268   6.932  17.854  0.00  0.00    +0.000 A 
ATOM     29 CL   UNL     1       8.371   8.218  18.142  0.00  0.00    +0.000 Cl
ATOM     30  C   UNL     1       6.254   7.087  16.908  0.00  0.00    +0.000 A 
ATOM     31  C   UNL     1       5.344   6.053  16.690  0.00  0.00    +0.000 A 
ENDBRANCH  24  25
ENDBRANCH  22  24
ENDBRANCH  19  20
BRANCH  19  32
ATOM     32  C   UNL     1       2.101   2.938  19.999  0.00  0.00    +0.000 C 
ATOM     33  C   UNL     1       2.547   2.904  21.464  0.00  0.00    +0.000 C 
ATOM     34  C   UNL     1       0.595   2.659  19.918  0.00  0.00    +0.000 C 
ENDBRANCH  19  32
ENDBRANCH   3  19
TORSDOF 10
ENDMDL
MODEL 7
REMARK VINA RESULT:      -7.1      3.748      9.321
REMARK  Name = 
REMARK  14 active torsions:
REMARK  status: ('A' for Active; 'I' for Inactive)
REMARK    1  A    between atoms: C_1  and  C_2
REMARK    2  A    between atoms: C_2  and  N_3
REMARK    3  A    between atoms: N_3  and  C_4
REMARK    4  A    between atoms: N_3  and  S_6
REMARK    5  A    between atoms: C_4  and  C_5
REMARK    6  A    between atoms: S_6  and  C_9
REMARK    7  A    between atoms: C_13  and  C_14
REMARK    8  A    between atoms: N_16  and  C_17
REMARK    9  A    between atoms: C_17  and  C_18
REMARK   10  A    between atoms: C_17  and  C_29
REMARK   11  A    between atoms: N_20  and  C_21
REMARK   12  A    between atoms: C_21  and  C_22
REMARK   13  A    between atoms: C_29  and  C_30
REMARK   14  A    between atoms: C_29  and  C_31
REMARK                            x       y       z     vdW  Elec       q    Type
REMARK                         _______ _______ _______ _____ _____    ______ ____
ROOT
ATOM      1  C   UNL     1       1.919   8.693  18.106  0.00  0.00    +0.000 C 
ATOM      2  O   UNL     1       2.504   9.112  17.113  0.00  0.00    +0.000 OA
ATOM      3  N   UNL     1       0.960   9.431  18.787  0.00  0.00    +0.000 N 
ATOM      4  H   UNL     1       0.568   9.080  19.647  0.00  0.00    +0.000 HD
ENDROOT
BRANCH   1   9
ATOM      5  C   UNL     1       3.731   5.407  18.734  0.00  0.00    +0.000 A 
ATOM      6  C   UNL     1       3.270   5.065  20.006  0.00  0.00    +0.000 A 
ATOM      7  C   UNL     1       2.303   5.867  20.617  0.00  0.00    +0.000 A 
ATOM      8  C   UNL     1       1.848   7.022  19.971  0.00  0.00    +0.000 A 
ATOM      9  C   UNL     1       2.353   7.393  18.710  0.00  0.00    +0.000 A 
ATOM     10  C   UNL     1       3.263   6.554  18.071  0.00  0.00    +0.000 A 
BRANCH   5  11
ATOM     11  S   UNL     1       5.019   4.457  17.983  0.00  0.00    +0.000 S 
ATOM     12  O   UNL     1       4.379   3.423  17.192  0.00  0.00    +0.000 OA
ATOM     13  O   UNL     1       5.957   4.127  19.041  0.00  0.00    +0.000 OA
BRANCH  11  14
ATOM     14  N   UNL     1       5.813   5.553  16.931  0.00  0.00    +0.000 NA
BRANCH  14  16
ATOM     15  C   UNL     1       7.463   7.346  17.539  0.00  0.00    +0.000 C 
ATOM     16  C   UNL     1       7.224   5.862  17.307  0.00  0.00    +0.000 C 
ENDBRANCH  14  16
BRANCH  14  17
ATOM     17  C   UNL     1       5.587   5.234  15.487  0.00  0.00    +0.000 C 
ATOM     18  C   UNL     1       6.857   4.857  14.739  0.00  0.00    +0.000 C 
ENDBRANCH  14  17
ENDBRANCH  11  14
ENDBRANCH   5  11
ENDBRANCH   1   9
BRANCH   3  19
ATOM     19  C   UNL     1       0.667  10.848  18.473  0.00  0.00    +0.000 C 
BRANCH  19  20
ATOM     20  C   UNL     1       1.517  11.884  19.296  0.00  0.00    +0.000 C 
ATOM     21  O   UNL     1       2.506  12.456  18.826  0.00  0.00    +0.000 OA
ATOM     22  N   UNL     1       1.257  12.094  20.625  0.00  0.00    +0.000 N 
ATOM     23  H   UNL     1       1.911  12.711  21.091  0.00  0.00    +0.000 HD
BRANCH  22  24
ATOM     24  C   UNL     1       0.390  11.274  21.417  0.00  0.00    +0.000 C 
BRANCH  24  25
ATOM     25  C   UNL     1      -0.772  11.983  22.028  0.00  0.00    +0.000 A 
ATOM     26  C   UNL     1      -1.582  11.298  22.947  0.00  0.00    +0.000 A 
ATOM     27  C   UNL     1      -2.632  11.953  23.579  0.00  0.00    +0.000 A 
ATOM     28  C   UNL     1      -2.877  13.292  23.286  0.00  0.00    +0.000 A 
ATOM     29 CL   UNL     1      -4.198  14.093  24.040  0.00  0.00    +0.000 Cl
ATOM     30  C   UNL     1      -2.066  13.987  22.388  0.00  0.00    +0.000 A 
ATOM     31  C   UNL     1      -1.009  13.332  21.757  0.00  0.00    +0.000 A 
ENDBRANCH  24  25
ENDBRANCH  22  24
ENDBRANCH  19  20
BRANCH  19  32
ATOM     32  C   UNL     1      -0.852  11.141  18.608  0.00  0.00    +0.000 C 
ATOM     33  C   UNL     1      -1.189  12.559  18.136  0.00  0.00    +0.000 C 
ATOM     34  C   UNL     1      -1.741  10.132  17.870  0.00  0.00    +0.000 C 
ENDBRANCH  19  32
ENDBRANCH   3  19
TORSDOF 10
ENDMDL
MODEL 8
REMARK VINA RESULT:      -7.1      3.345      8.538
REMARK  Name = 
REMARK  14 active torsions:
REMARK  status: ('A' for Active; 'I' for Inactive)
REMARK    1  A    between atoms: C_1  and  C_2
REMARK    2  A    between atoms: C_2  and  N_3
REMARK    3  A    between atoms: N_3  and  C_4
REMARK    4  A    between atoms: N_3  and  S_6
REMARK    5  A    between atoms: C_4  and  C_5
REMARK    6  A    between atoms: S_6  and  C_9
REMARK    7  A    between atoms: C_13  and  C_14
REMARK    8  A    between atoms: N_16  and  C_17
REMARK    9  A    between atoms: C_17  and  C_18
REMARK   10  A    between atoms: C_17  and  C_29
REMARK   11  A    between atoms: N_20  and  C_21
REMARK   12  A    between atoms: C_21  and  C_22
REMARK   13  A    between atoms: C_29  and  C_30
REMARK   14  A    between atoms: C_29  and  C_31
REMARK                            x       y       z     vdW  Elec       q    Type
REMARK                         _______ _______ _______ _____ _____    ______ ____
ROOT
ATOM      1  C   UNL     1       1.774   9.352  17.938  0.00  0.00    +0.000 C 
ATOM      2  O   UNL     1       2.414  10.358  17.652  0.00  0.00    +0.000 OA
ATOM      3  N   UNL     1       0.420   9.376  18.241  0.00  0.00    +0.000 N 
ATOM      4  H   UNL     1      -0.045   8.536  18.552  0.00  0.00    +0.000 HD
ENDROOT
BRANCH   1   9
ATOM      5  C   UNL     1       4.164   6.431  17.448  0.00  0.00    +0.000 A 
ATOM      6  C   UNL     1       3.979   5.710  18.628  0.00  0.00    +0.000 A 
ATOM      7  C   UNL     1       3.011   6.136  19.541  0.00  0.00    +0.000 A 
ATOM      8  C   UNL     1       2.279   7.301  19.285  0.00  0.00    +0.000 A 
ATOM      9  C   UNL     1       2.503   8.056  18.118  0.00  0.00    +0.000 A 
ATOM     10  C   UNL     1       3.417   7.590  17.176  0.00  0.00    +0.000 A 
BRANCH   5  11
ATOM     11  S   UNL     1       5.445   5.961  16.323  0.00  0.00    +0.000 S 
ATOM     12  O   UNL     1       5.292   6.783  15.138  0.00  0.00    +0.000 OA
ATOM     13  O   UNL     1       5.413   4.512  16.246  0.00  0.00    +0.000 OA
BRANCH  11  14
ATOM     14  N   UNL     1       6.902   6.392  17.116  0.00  0.00    +0.000 NA
BRANCH  14  16
ATOM     15  C   UNL     1       8.113   8.545  17.569  0.00  0.00    +0.000 C 
ATOM     16  C   UNL     1       6.863   7.713  17.811  0.00  0.00    +0.000 C 
ENDBRANCH  14  16
BRANCH  14  17
ATOM     17  C   UNL     1       7.482   5.265  17.911  0.00  0.00    +0.000 C 
ATOM     18  C   UNL     1       7.687   5.595  19.381  0.00  0.00    +0.000 C 
ENDBRANCH  14  17
ENDBRANCH  11  14
ENDBRANCH   5  11
ENDBRANCH   1   9
BRANCH   3  19
ATOM     19  C   UNL     1      -0.344  10.634  18.400  0.00  0.00    +0.000 C 
BRANCH  19  20
ATOM     20  C   UNL     1      -0.108  11.367  19.772  0.00  0.00    +0.000 C 
ATOM     21  O   UNL     1      -0.505  10.908  20.848  0.00  0.00    +0.000 OA
ATOM     22  N   UNL     1       0.442  12.621  19.802  0.00  0.00    +0.000 N 
ATOM     23  H   UNL     1       0.473  13.046  20.720  0.00  0.00    +0.000 HD
BRANCH  22  24
ATOM     24  C   UNL     1       0.638  13.445  18.647  0.00  0.00    +0.000 C 
BRANCH  24  25
ATOM     25  C   UNL     1       1.840  14.328  18.691  0.00  0.00    +0.000 A 
ATOM     26  C   UNL     1       3.097  13.783  18.388  0.00  0.00    +0.000 A 
ATOM     27  C   UNL     1       4.224  14.596  18.360  0.00  0.00    +0.000 A 
ATOM     28  C   UNL     1       4.094  15.953  18.644  0.00  0.00    +0.000 A 
ATOM     29 CL   UNL     1       5.493  16.952  18.646  0.00  0.00    +0.000 Cl
ATOM     30  C   UNL     1       2.846  16.507  18.929  0.00  0.00    +0.000 A 
ATOM     31  C   UNL     1       1.714  15.693  18.953  0.00  0.00    +0.000 A 
ENDBRANCH  24  25
ENDBRANCH  22  24
ENDBRANCH  19  20
BRANCH  19  32
ATOM     32  C   UNL     1      -1.858  10.398  18.147  0.00  0.00    +0.000 C 
ATOM     33  C   UNL     1      -2.665  11.681  18.370  0.00  0.00    +0.000 C 
ATOM     34  C   UNL     1      -2.167   9.836  16.754  0.00  0.00    +0.000 C 
ENDBRANCH  19  32
ENDBRANCH   3  19
TORSDOF 10
ENDMDL
MODEL 9
REMARK VINA RESULT:      -7.0      2.099      3.015
REMARK  Name = 
REMARK  14 active torsions:
REMARK  status: ('A' for Active; 'I' for Inactive)
REMARK    1  A    between atoms: C_1  and  C_2
REMARK    2  A    between atoms: C_2  and  N_3
REMARK    3  A    between atoms: N_3  and  C_4
REMARK    4  A    between atoms: N_3  and  S_6
REMARK    5  A    between atoms: C_4  and  C_5
REMARK    6  A    between atoms: S_6  and  C_9
REMARK    7  A    between atoms: C_13  and  C_14
REMARK    8  A    between atoms: N_16  and  C_17
REMARK    9  A    between atoms: C_17  and  C_18
REMARK   10  A    between atoms: C_17  and  C_29
REMARK   11  A    between atoms: N_20  and  C_21
REMARK   12  A    between atoms: C_21  and  C_22
REMARK   13  A    between atoms: C_29  and  C_30
REMARK   14  A    between atoms: C_29  and  C_31
REMARK                            x       y       z     vdW  Elec       q    Type
REMARK                         _______ _______ _______ _____ _____    ______ ____
ROOT
ATOM      1  C   UNL     1       1.870   5.334  19.890  0.00  0.00    +0.000 C 
ATOM      2  O   UNL     1       1.223   4.976  20.868  0.00  0.00    +0.000 OA
ATOM      3  N   UNL     1       2.723   4.486  19.195  0.00  0.00    +0.000 N 
ATOM      4  H   UNL     1       3.299   4.847  18.450  0.00  0.00    +0.000 HD
ENDROOT
BRANCH   1   9
ATOM      5  C   UNL     1       1.487   9.118  20.001  0.00  0.00    +0.000 A 
ATOM      6  C   UNL     1       2.083   9.500  18.799  0.00  0.00    +0.000 A 
ATOM      7  C   UNL     1       2.532   8.514  17.918  0.00  0.00    +0.000 A 
ATOM      8  C   UNL     1       2.422   7.164  18.271  0.00  0.00    +0.000 A 
ATOM      9  C   UNL     1       1.867   6.781  19.507  0.00  0.00    +0.000 A 
ATOM     10  C   UNL     1       1.355   7.763  20.352  0.00  0.00    +0.000 A 
BRANCH   5  11
ATOM     11  S   UNL     1       0.995  10.350  21.169  0.00  0.00    +0.000 S 
ATOM     12  O   UNL     1       1.690  11.573  20.815  0.00  0.00    +0.000 OA
ATOM     13  O   UNL     1       1.141   9.752  22.484  0.00  0.00    +0.000 OA
BRANCH  11  14
ATOM     14  N   UNL     1      -0.684  10.565  20.897  0.00  0.00    +0.000 NA
BRANCH  14  16
ATOM     15  C   UNL     1      -1.641  11.498  23.024  0.00  0.00    +0.000 C 
ATOM     16  C   UNL     1      -1.273  11.759  21.571  0.00  0.00    +0.000 C 
ENDBRANCH  14  16
BRANCH  14  17
ATOM     17  C   UNL     1      -1.064  10.383  19.462  0.00  0.00    +0.000 C 
ATOM     18  C   UNL     1      -1.273  11.691  18.715  0.00  0.00    +0.000 C 
ENDBRANCH  14  17
ENDBRANCH  11  14
ENDBRANCH   5  11
ENDBRANCH   1   9
BRANCH   3  19
ATOM     19  C   UNL     1       3.049   3.119  19.660  0.00  0.00    +0.000 C 
BRANCH  19  20
ATOM     20  C   UNL     1       4.590   2.819  19.761  0.00  0.00    +0.000 C 
ATOM     21  O   UNL     1       5.085   2.192  20.704  0.00  0.00    +0.000 OA
ATOM     22  N   UNL     1       5.463   3.362  18.856  0.00  0.00    +0.000 N 
ATOM     23  H   UNL     1       6.440   3.186  19.053  0.00  0.00    +0.000 HD
BRANCH  22  24
ATOM     24  C   UNL     1       5.117   4.386  17.915  0.00  0.00    +0.000 C 
BRANCH  24  25
ATOM     25  C   UNL     1       5.980   5.602  17.953  0.00  0.00    +0.000 A 
ATOM     26  C   UNL     1       7.147   5.586  18.734  0.00  0.00    +0.000 A 
ATOM     27  C   UNL     1       8.001   6.682  18.738  0.00  0.00    +0.000 A 
ATOM     28  C   UNL     1       7.685   7.798  17.967  0.00  0.00    +0.000 A 
ATOM     29 CL   UNL     1       8.722   9.168  17.999  0.00  0.00    +0.000 Cl
ATOM     30  C   UNL     1       6.537   7.816  17.173  0.00  0.00    +0.000 A 
ATOM     31  C   UNL     1       5.681   6.715  17.165  0.00  0.00    +0.000 A 
ENDBRANCH  24  25
ENDBRANCH  22  24
ENDBRANCH  19  20
BRANCH  19  32
ATOM     32  C   UNL     1       2.330   2.053  18.791  0.00  0.00    +0.000 C 
ATOM     33  C   UNL     1       0.812   2.098  18.998  0.00  0.00    +0.000 C 
ATOM     34  C   UNL     1       2.643   2.167  17.294  0.00  0.00    +0.000 C 
ENDBRANCH  19  32
ENDBRANCH   3  19
TORSDOF 10
ENDMDL
