MODEL 1
REMARK VINA RESULT:      -6.5      0.000      0.000
REMARK  Name = 
REMARK  4 active torsions:
REMARK  status: ('A' for Active; 'I' for Inactive)
REMARK    1  A    between atoms: C_1  and  C_2
REMARK    2  A    between atoms: C_2  and  C_3
REMARK    3  A    between atoms: C_3  and  N_4
REMARK    4  A    between atoms: C_6  and  C_7
REMARK                            x       y       z     vdW  Elec       q    Type
REMARK                         _______ _______ _______ _____ _____    ______ ____
ROOT
ATOM      1  C   UNL     1       6.444   4.757  17.386  0.00  0.00    +0.000 C 
ATOM      2  C   UNL     1       5.663   5.592  16.404  0.00  0.00    +0.000 C 
ATOM      3  C   UNL     1       5.224   4.180  16.653  0.00  0.00    +0.000 C 
ENDROOT
BRANCH   3   4
ATOM      4  C   UNL     1       3.956   3.786  17.367  0.00  0.00    +0.000 A 
ATOM      5  C   UNL     1       2.880   4.665  17.561  0.00  0.00    +0.000 A 
ATOM      6  C   UNL     1       1.666   4.222  18.100  0.00  0.00    +0.000 A 
ATOM      7  C   UNL     1       1.516   2.885  18.442  0.00  0.00    +0.000 A 
ATOM      8  F   UNL     1       0.344   2.451  18.922  0.00  0.00    +0.000 F 
ATOM      9  C   UNL     1       2.560   1.990  18.275  0.00  0.00    +0.000 A 
ATOM     10  C   UNL     1       3.772   2.442  17.747  0.00  0.00    +0.000 A 
ENDBRANCH   3   4
BRANCH   1  11
ATOM     11  N   UNL     1       7.752   4.198  16.979  0.00  0.00    +0.000 NA
ATOM     12  H   UNL     1       8.043   3.442  17.599  0.00  0.00    +0.000 HD
ATOM     13  H   UNL     1       8.475   4.914  17.066  0.00  0.00    +0.000 HD
ENDBRANCH   1  11
BRANCH   1  15
ATOM     14  C   UNL     1       7.769   5.827  19.239  0.00  0.00    +0.000 C 
ATOM     15  C   UNL     1       6.409   5.266  18.820  0.00  0.00    +0.000 C 
ENDBRANCH   1  15
TORSDOF 3
ENDMDL
MODEL 2
REMARK VINA RESULT:      -6.2      0.384      1.388
REMARK  Name = 
REMARK  4 active torsions:
REMARK  status: ('A' for Active; 'I' for Inactive)
REMARK    1  A    between atoms: C_1  and  C_2
REMARK    2  A    between atoms: C_2  and  C_3
REMARK    3  A    between atoms: C_3  and  N_4
REMARK    4  A    between atoms: C_6  and  C_7
REMARK                            x       y       z     vdW  Elec       q    Type
REMARK                         _______ _______ _______ _____ _____    ______ ____
ROOT
ATOM      1  C   UNL     1       6.132   4.793  17.287  0.00  0.00    +0.000 C 
ATOM      2  C   UNL     1       5.292   5.532  16.279  0.00  0.00    +0.000 C 
ATOM      3  C   UNL     1       4.963   4.098  16.574  0.00  0.00    +0.000 C 
ENDROOT
BRANCH   3   4
ATOM      4  C   UNL     1       3.727   3.630  17.300  0.00  0.00    +0.000 A 
ATOM      5  C   UNL     1       3.611   2.355  17.873  0.00  0.00    +0.000 A 
ATOM      6  C   UNL     1       2.506   2.009  18.659  0.00  0.00    +0.000 A 
ATOM      7  C   UNL     1       1.508   2.946  18.889  0.00  0.00    +0.000 A 
ATOM      8  F   UNL     1       0.469   2.630  19.673  0.00  0.00    +0.000 F 
ATOM      9  C   UNL     1       1.583   4.212  18.331  0.00  0.00    +0.000 A 
ATOM     10  C   UNL     1       2.683   4.546  17.538  0.00  0.00    +0.000 A 
ENDBRANCH   3   4
BRANCH   1  11
ATOM     11  N   UNL     1       7.481   4.324  16.900  0.00  0.00    +0.000 NA
ATOM     12  H   UNL     1       8.141   4.409  17.672  0.00  0.00    +0.000 HD
ATOM     13  H   UNL     1       7.853   4.920  16.158  0.00  0.00    +0.000 HD
ENDBRANCH   1  11
BRANCH   1  15
ATOM     14  C   UNL     1       7.443   5.707  19.232  0.00  0.00    +0.000 C 
ATOM     15  C   UNL     1       6.054   5.344  18.704  0.00  0.00    +0.000 C 
ENDBRANCH   1  15
TORSDOF 3
ENDMDL
MODEL 3
REMARK VINA RESULT:      -6.2      1.113      1.319
REMARK  Name = 
REMARK  4 active torsions:
REMARK  status: ('A' for Active; 'I' for Inactive)
REMARK    1  A    between atoms: C_1  and  C_2
REMARK    2  A    between atoms: C_2  and  C_3
REMARK    3  A    between atoms: C_3  and  N_4
REMARK    4  A    between atoms: C_6  and  C_7
REMARK                            x       y       z     vdW  Elec       q    Type
REMARK                         _______ _______ _______ _____ _____    ______ ____
ROOT
ATOM      1  C   UNL     1       6.671   5.622  16.725  0.00  0.00    +0.000 C 
ATOM      2  C   UNL     1       6.021   6.950  17.017  0.00  0.00    +0.000 C 
ATOM      3  C   UNL     1       5.179   5.851  16.438  0.00  0.00    +0.000 C 
ENDROOT
BRANCH   3   4
ATOM      4  C   UNL     1       4.086   5.124  17.178  0.00  0.00    +0.000 A 
ATOM      5  C   UNL     1       3.212   5.759  18.074  0.00  0.00    +0.000 A 
ATOM      6  C   UNL     1       2.123   5.079  18.631  0.00  0.00    +0.000 A 
ATOM      7  C   UNL     1       1.891   3.755  18.286  0.00  0.00    +0.000 A 
ATOM      8  F   UNL     1       0.827   3.115  18.788  0.00  0.00    +0.000 F 
ATOM      9  C   UNL     1       2.739   3.092  17.414  0.00  0.00    +0.000 A 
ATOM     10  C   UNL     1       3.831   3.773  16.870  0.00  0.00    +0.000 A 
ENDBRANCH   3   4
BRANCH   1  11
ATOM     11  N   UNL     1       7.534   5.487  15.530  0.00  0.00    +0.000 NA
ATOM     12  H   UNL     1       8.462   5.146  15.778  0.00  0.00    +0.000 HD
ATOM     13  H   UNL     1       7.684   6.405  15.109  0.00  0.00    +0.000 HD
ENDBRANCH   1  11
BRANCH   1  15
ATOM     14  C   UNL     1       7.760   5.872  18.980  0.00  0.00    +0.000 C 
ATOM     15  C   UNL     1       7.196   4.890  17.952  0.00  0.00    +0.000 C 
ENDBRANCH   1  15
TORSDOF 3
ENDMDL
MODEL 4
REMARK VINA RESULT:      -6.0      1.076      1.076
REMARK  Name = 
REMARK  4 active torsions:
REMARK  status: ('A' for Active; 'I' for Inactive)
REMARK    1  A    between atoms: C_1  and  C_2
REMARK    2  A    between atoms: C_2  and  C_3
REMARK    3  A    between atoms: C_3  and  N_4
REMARK    4  A    between atoms: C_6  and  C_7
REMARK                            x       y       z     vdW  Elec       q    Type
REMARK                         _______ _______ _______ _____ _____    ______ ____
ROOT
ATOM      1  C   UNL     1       6.576   4.905  17.121  0.00  0.00    +0.000 C 
ATOM      2  C   UNL     1       5.658   5.137  15.948  0.00  0.00    +0.000 C 
ATOM      3  C   UNL     1       5.319   4.046  16.921  0.00  0.00    +0.000 C 
ENDROOT
BRANCH   3   4
ATOM      4  C   UNL     1       4.152   4.076  17.875  0.00  0.00    +0.000 A 
ATOM      5  C   UNL     1       2.986   4.820  17.638  0.00  0.00    +0.000 A 
ATOM      6  C   UNL     1       1.870   4.709  18.476  0.00  0.00    +0.000 A 
ATOM      7  C   UNL     1       1.908   3.840  19.558  0.00  0.00    +0.000 A 
ATOM      8  F   UNL     1       0.828   3.704  20.338  0.00  0.00    +0.000 F 
ATOM      9  C   UNL     1       3.046   3.098  19.829  0.00  0.00    +0.000 A 
ATOM     10  C   UNL     1       4.160   3.222  18.995  0.00  0.00    +0.000 A 
ENDBRANCH   3   4
BRANCH   1  11
ATOM     11  N   UNL     1       7.863   4.207  16.904  0.00  0.00    +0.000 NA
ATOM     12  H   UNL     1       7.991   3.446  17.570  0.00  0.00    +0.000 HD
ATOM     13  H   UNL     1       8.637   4.851  17.074  0.00  0.00    +0.000 HD
ENDBRANCH   1  11
BRANCH   1  15
ATOM     14  C   UNL     1       7.767   5.839  19.132  0.00  0.00    +0.000 C 
ATOM     15  C   UNL     1       6.662   6.068  18.099  0.00  0.00    +0.000 C 
ENDBRANCH   1  15
TORSDOF 3
ENDMDL
MODEL 5
REMARK VINA RESULT:      -6.0      1.331      2.535
REMARK  Name = 
REMARK  4 active torsions:
REMARK  status: ('A' for Active; 'I' for Inactive)
REMARK    1  A    between atoms: C_1  and  C_2
REMARK    2  A    between atoms: C_2  and  C_3
REMARK    3  A    between atoms: C_3  and  N_4
REMARK    4  A    between atoms: C_6  and  C_7
REMARK                            x       y       z     vdW  Elec       q    Type
REMARK                         _______ _______ _______ _____ _____    ______ ____
ROOT
ATOM      1  C   UNL     1       5.923   5.593  16.430  0.00  0.00    +0.000 C 
ATOM      2  C   UNL     1       6.623   4.511  17.210  0.00  0.00    +0.000 C 
ATOM      3  C   UNL     1       5.328   5.053  17.738  0.00  0.00    +0.000 C 
ENDROOT
BRANCH   3   4
ATOM      4  C   UNL     1       4.030   4.287  17.788  0.00  0.00    +0.000 A 
ATOM      5  C   UNL     1       3.963   2.887  17.724  0.00  0.00    +0.000 A 
ATOM      6  C   UNL     1       2.754   2.208  17.917  0.00  0.00    +0.000 A 
ATOM      7  C   UNL     1       1.598   2.928  18.188  0.00  0.00    +0.000 A 
ATOM      8  F   UNL     1       0.449   2.278  18.411  0.00  0.00    +0.000 F 
ATOM      9  C   UNL     1       1.624   4.312  18.248  0.00  0.00    +0.000 A 
ATOM     10  C   UNL     1       2.832   4.984  18.044  0.00  0.00    +0.000 A 
ENDBRANCH   3   4
BRANCH   1  11
ATOM     11  N   UNL     1       6.440   6.978  16.491  0.00  0.00    +0.000 NA
ATOM     12  H   UNL     1       6.115   7.461  17.328  0.00  0.00    +0.000 HD
ATOM     13  H   UNL     1       6.073   7.518  15.706  0.00  0.00    +0.000 HD
ENDBRANCH   1  11
BRANCH   1  15
ATOM     14  C   UNL     1       6.242   3.967  14.535  0.00  0.00    +0.000 C 
ATOM     15  C   UNL     1       5.449   5.172  15.045  0.00  0.00    +0.000 C 
ENDBRANCH   1  15
TORSDOF 3
ENDMDL
MODEL 6
REMARK VINA RESULT:      -6.0      2.217      2.434
REMARK  Name = 
REMARK  4 active torsions:
REMARK  status: ('A' for Active; 'I' for Inactive)
REMARK    1  A    between atoms: C_1  and  C_2
REMARK    2  A    between atoms: C_2  and  C_3
REMARK    3  A    between atoms: C_3  and  N_4
REMARK    4  A    between atoms: C_6  and  C_7
REMARK                            x       y       z     vdW  Elec       q    Type
REMARK                         _______ _______ _______ _____ _____    ______ ____
ROOT
ATOM      1  C   UNL     1       6.975   5.303  17.348  0.00  0.00    +0.000 C 
ATOM      2  C   UNL     1       6.154   5.822  16.196  0.00  0.00    +0.000 C 
ATOM      3  C   UNL     1       5.491   4.935  17.207  0.00  0.00    +0.000 C 
ENDROOT
BRANCH   3   4
ATOM      4  C   UNL     1       4.442   5.385  18.192  0.00  0.00    +0.000 A 
ATOM      5  C   UNL     1       3.658   6.534  18.006  0.00  0.00    +0.000 A 
ATOM      6  C   UNL     1       2.599   6.839  18.869  0.00  0.00    +0.000 A 
ATOM      7  C   UNL     1       2.309   5.986  19.926  0.00  0.00    +0.000 A 
ATOM      8  F   UNL     1       1.272   6.256  20.730  0.00  0.00    +0.000 F 
ATOM      9  C   UNL     1       3.067   4.849  20.147  0.00  0.00    +0.000 A 
ATOM     10  C   UNL     1       4.129   4.556  19.288  0.00  0.00    +0.000 A 
ENDBRANCH   3   4
BRANCH   1  11
ATOM     11  N   UNL     1       7.929   4.197  17.115  0.00  0.00    +0.000 NA
ATOM     12  H   UNL     1       8.556   4.072  17.909  0.00  0.00    +0.000 HD
ATOM     13  H   UNL     1       8.534   4.425  16.325  0.00  0.00    +0.000 HD
ENDBRANCH   1  11
BRANCH   1  15
ATOM     14  C   UNL     1       7.675   7.712  17.562  0.00  0.00    +0.000 C 
ATOM     15  C   UNL     1       7.495   6.379  18.291  0.00  0.00    +0.000 C 
ENDBRANCH   1  15
TORSDOF 3
ENDMDL
MODEL 7
REMARK VINA RESULT:      -5.9      1.289      1.912
REMARK  Name = 
REMARK  4 active torsions:
REMARK  status: ('A' for Active; 'I' for Inactive)
REMARK    1  A    between atoms: C_1  and  C_2
REMARK    2  A    between atoms: C_2  and  C_3
REMARK    3  A    between atoms: C_3  and  N_4
REMARK    4  A    between atoms: C_6  and  C_7
REMARK                            x       y       z     vdW  Elec       q    Type
REMARK                         _______ _______ _______ _____ _____    ______ ____
ROOT
ATOM      1  C   UNL     1       6.714   5.608  16.672  0.00  0.00    +0.000 C 
ATOM      2  C   UNL     1       6.159   6.974  16.987  0.00  0.00    +0.000 C 
ATOM      3  C   UNL     1       5.236   5.937  16.418  0.00  0.00    +0.000 C 
ENDROOT
BRANCH   3   4
ATOM      4  C   UNL     1       4.111   5.277  17.174  0.00  0.00    +0.000 A 
ATOM      5  C   UNL     1       3.706   3.954  16.946  0.00  0.00    +0.000 A 
ATOM      6  C   UNL     1       2.756   3.333  17.765  0.00  0.00    +0.000 A 
ATOM      7  C   UNL     1       2.208   4.032  18.832  0.00  0.00    +0.000 A 
ATOM      8  F   UNL     1       1.328   3.428  19.640  0.00  0.00    +0.000 F 
ATOM      9  C   UNL     1       2.576   5.344  19.082  0.00  0.00    +0.000 A 
ATOM     10  C   UNL     1       3.517   5.961  18.254  0.00  0.00    +0.000 A 
ENDBRANCH   3   4
BRANCH   1  11
ATOM     11  N   UNL     1       7.542   5.426  15.460  0.00  0.00    +0.000 NA
ATOM     12  H   UNL     1       8.225   6.176  15.359  0.00  0.00    +0.000 HD
ATOM     13  H   UNL     1       6.952   5.481  14.629  0.00  0.00    +0.000 HD
ENDBRANCH   1  11
BRANCH   1  15
ATOM     14  C   UNL     1       7.683   5.780  18.990  0.00  0.00    +0.000 C 
ATOM     15  C   UNL     1       7.213   4.833  17.884  0.00  0.00    +0.000 C 
ENDBRANCH   1  15
TORSDOF 3
ENDMDL
MODEL 8
REMARK VINA RESULT:      -5.9      1.380      1.728
REMARK  Name = 
REMARK  4 active torsions:
REMARK  status: ('A' for Active; 'I' for Inactive)
REMARK    1  A    between atoms: C_1  and  C_2
REMARK    2  A    between atoms: C_2  and  C_3
REMARK    3  A    between atoms: C_3  and  N_4
REMARK    4  A    between atoms: C_6  and  C_7
REMARK                            x       y       z     vdW  Elec       q    Type
REMARK                         _______ _______ _______ _____ _____    ______ ____
ROOT
ATOM      1  C   UNL     1       6.262   4.869  16.866  0.00  0.00    +0.000 C 
ATOM      2  C   UNL     1       5.359   4.641  15.682  0.00  0.00    +0.000 C 
ATOM      3  C   UNL     1       5.193   3.767  16.889  0.00  0.00    +0.000 C 
ENDROOT
BRANCH   3   4
ATOM      4  C   UNL     1       4.008   3.800  17.820  0.00  0.00    +0.000 A 
ATOM      5  C   UNL     1       4.119   3.636  19.209  0.00  0.00    +0.000 A 
ATOM      6  C   UNL     1       3.016   3.815  20.052  0.00  0.00    +0.000 A 
ATOM      7  C   UNL     1       1.788   4.172  19.510  0.00  0.00    +0.000 A 
ATOM      8  F   UNL     1       0.741   4.381  20.318  0.00  0.00    +0.000 F 
ATOM      9  C   UNL     1       1.639   4.332  18.142  0.00  0.00    +0.000 A 
ATOM     10  C   UNL     1       2.741   4.140  17.306  0.00  0.00    +0.000 A 
ENDBRANCH   3   4
BRANCH   1  11
ATOM     11  N   UNL     1       7.663   4.396  16.809  0.00  0.00    +0.000 NA
ATOM     12  H   UNL     1       7.835   3.843  15.970  0.00  0.00    +0.000 HD
ATOM     13  H   UNL     1       7.845   3.766  17.592  0.00  0.00    +0.000 HD
ENDBRANCH   1  11
BRANCH   1  15
ATOM     14  C   UNL     1       7.449   6.910  17.740  0.00  0.00    +0.000 C 
ATOM     15  C   UNL     1       6.096   6.225  17.538  0.00  0.00    +0.000 C 
ENDBRANCH   1  15
TORSDOF 3
ENDMDL
MODEL 9
REMARK VINA RESULT:      -5.9      2.229      2.746
REMARK  Name = 
REMARK  4 active torsions:
REMARK  status: ('A' for Active; 'I' for Inactive)
REMARK    1  A    between atoms: C_1  and  C_2
REMARK    2  A    between atoms: C_2  and  C_3
REMARK    3  A    between atoms: C_3  and  N_4
REMARK    4  A    between atoms: C_6  and  C_7
REMARK                            x       y       z     vdW  Elec       q    Type
REMARK                         _______ _______ _______ _____ _____    ______ ____
ROOT
ATOM      1  C   UNL     1       6.757   5.251  16.938  0.00  0.00    +0.000 C 
ATOM      2  C   UNL     1       5.887   5.630  15.767  0.00  0.00    +0.000 C 
ATOM      3  C   UNL     1       5.294   4.791  16.861  0.00  0.00    +0.000 C 
ENDROOT
BRANCH   3   4
ATOM      4  C   UNL     1       4.239   5.260  17.830  0.00  0.00    +0.000 A 
ATOM      5  C   UNL     1       3.953   4.596  19.033  0.00  0.00    +0.000 A 
ATOM      6  C   UNL     1       3.069   5.142  19.972  0.00  0.00    +0.000 A 
ATOM      7  C   UNL     1       2.469   6.367  19.717  0.00  0.00    +0.000 A 
ATOM      8  F   UNL     1       1.653   6.909  20.631  0.00  0.00    +0.000 F 
ATOM      9  C   UNL     1       2.719   7.046  18.536  0.00  0.00    +0.000 A 
ATOM     10  C   UNL     1       3.594   6.491  17.599  0.00  0.00    +0.000 A 
ENDBRANCH   3   4
BRANCH   1  11
ATOM     11  N   UNL     1       7.768   4.183  16.771  0.00  0.00    +0.000 NA
ATOM     12  H   UNL     1       8.210   4.228  15.854  0.00  0.00    +0.000 HD
ATOM     13  H   UNL     1       7.314   3.270  16.810  0.00  0.00    +0.000 HD
ENDBRANCH   1  11
BRANCH   1  15
ATOM     14  C   UNL     1       7.895   5.945  19.074  0.00  0.00    +0.000 C 
ATOM     15  C   UNL     1       7.233   6.426  17.781  0.00  0.00    +0.000 C 
ENDBRANCH   1  15
TORSDOF 3
ENDMDL
