MODEL 1
REMARK VINA RESULT:      -7.4      0.000      0.000
REMARK  Name = 
REMARK  3 active torsions:
REMARK  status: ('A' for Active; 'I' for Inactive)
REMARK    1  A    between atoms: N_2  and  C_4
REMARK    2  A    between atoms: C_7  and  O_8
REMARK    3  A    between atoms: O_8  and  C_9
REMARK                            x       y       z     vdW  Elec       q    Type
REMARK                         _______ _______ _______ _____ _____    ______ ____
ROOT
ATOM      1  C   UNL     1       6.499   5.113  15.528  0.00  0.00    +0.000 A 
ATOM      2  C   UNL     1       5.318   5.828  15.747  0.00  0.00    +0.000 A 
ATOM      3  C   UNL     1       4.853   5.973  17.055  0.00  0.00    +0.000 A 
ATOM      4  C   UNL     1       5.581   5.389  18.084  0.00  0.00    +0.000 A 
ATOM      5  N   UNL     1       6.748   4.728  17.891  0.00  0.00    +0.000 NA
ATOM      6  C   UNL     1       7.184   4.594  16.616  0.00  0.00    +0.000 A 
ENDROOT
BRANCH   1   8
ATOM      7  O   UNL     1       7.987   5.569  13.825  0.00  0.00    +0.000 OA
ATOM      8  N   UNL     1       7.012   4.893  14.184  0.00  0.00    +0.000 N 
ATOM      9  O   UNL     1       6.439   4.055  13.477  0.00  0.00    +0.000 OA
ENDBRANCH   1   8
BRANCH   4  10
ATOM     10  O   UNL     1       5.060   5.500  19.365  0.00  0.00    +0.000 OA
BRANCH  10  11
ATOM     11  C   UNL     1       3.929   4.768  19.652  0.00  0.00    +0.000 A 
ATOM     12  C   UNL     1       3.898   3.368  19.618  0.00  0.00    +0.000 A 
ATOM     13  C   UNL     1       2.715   2.690  19.910  0.00  0.00    +0.000 A 
ATOM     14  C   UNL     1       1.562   3.413  20.197  0.00  0.00    +0.000 A 
ATOM     15  F   UNL     1       0.428   2.757  20.472  0.00  0.00    +0.000 F 
ATOM     16  C   UNL     1       1.565   4.802  20.194  0.00  0.00    +0.000 A 
ATOM     17  C   UNL     1       2.752   5.471  19.917  0.00  0.00    +0.000 A 
ATOM     18  F   UNL     1       2.752   6.814  19.909  0.00  0.00    +0.000 F 
ENDBRANCH  10  11
ENDBRANCH   4  10
TORSDOF 3
ENDMDL
MODEL 2
REMARK VINA RESULT:      -7.3      1.100      1.746
REMARK  Name = 
REMARK  3 active torsions:
REMARK  status: ('A' for Active; 'I' for Inactive)
REMARK    1  A    between atoms: N_2  and  C_4
REMARK    2  A    between atoms: C_7  and  O_8
REMARK    3  A    between atoms: O_8  and  C_9
REMARK                            x       y       z     vdW  Elec       q    Type
REMARK                         _______ _______ _______ _____ _____    ______ ____
ROOT
ATOM      1  C   UNL     1       6.557   5.080  15.529  0.00  0.00    +0.000 A 
ATOM      2  C   UNL     1       5.388   5.810  15.767  0.00  0.00    +0.000 A 
ATOM      3  C   UNL     1       4.936   5.943  17.081  0.00  0.00    +0.000 A 
ATOM      4  C   UNL     1       5.663   5.335  18.096  0.00  0.00    +0.000 A 
ATOM      5  N   UNL     1       6.819   4.658  17.885  0.00  0.00    +0.000 NA
ATOM      6  C   UNL     1       7.242   4.535  16.604  0.00  0.00    +0.000 A 
ENDROOT
BRANCH   1   8
ATOM      7  O   UNL     1       6.566   3.938  13.524  0.00  0.00    +0.000 OA
ATOM      8  N   UNL     1       7.056   4.870  14.178  0.00  0.00    +0.000 N 
ATOM      9  O   UNL     1       7.947   5.626  13.768  0.00  0.00    +0.000 OA
ENDBRANCH   1   8
BRANCH   4  10
ATOM     10  O   UNL     1       5.154   5.436  19.382  0.00  0.00    +0.000 OA
BRANCH  10  11
ATOM     11  C   UNL     1       3.921   4.870  19.620  0.00  0.00    +0.000 A 
ATOM     12  C   UNL     1       2.770   5.627  19.871  0.00  0.00    +0.000 A 
ATOM     13  C   UNL     1       1.555   4.988  20.115  0.00  0.00    +0.000 A 
ATOM     14  C   UNL     1       1.504   3.598  20.144  0.00  0.00    +0.000 A 
ATOM     15  F   UNL     1       0.337   2.988  20.384  0.00  0.00    +0.000 F 
ATOM     16  C   UNL     1       2.645   2.832  19.939  0.00  0.00    +0.000 A 
ATOM     17  C   UNL     1       3.850   3.477  19.681  0.00  0.00    +0.000 A 
ATOM     18  F   UNL     1       4.953   2.736  19.489  0.00  0.00    +0.000 F 
ENDBRANCH  10  11
ENDBRANCH   4  10
TORSDOF 3
ENDMDL
MODEL 3
REMARK VINA RESULT:      -7.2      2.576      2.804
REMARK  Name = 
REMARK  3 active torsions:
REMARK  status: ('A' for Active; 'I' for Inactive)
REMARK    1  A    between atoms: N_2  and  C_4
REMARK    2  A    between atoms: C_7  and  O_8
REMARK    3  A    between atoms: O_8  and  C_9
REMARK                            x       y       z     vdW  Elec       q    Type
REMARK                         _______ _______ _______ _____ _____    ______ ____
ROOT
ATOM      1  C   UNL     1       6.690   6.399  17.910  0.00  0.00    +0.000 A 
ATOM      2  C   UNL     1       5.621   6.376  17.010  0.00  0.00    +0.000 A 
ATOM      3  C   UNL     1       4.715   5.316  17.070  0.00  0.00    +0.000 A 
ATOM      4  C   UNL     1       4.922   4.322  18.018  0.00  0.00    +0.000 A 
ATOM      5  N   UNL     1       5.931   4.351  18.923  0.00  0.00    +0.000 NA
ATOM      6  C   UNL     1       6.803   5.385  18.849  0.00  0.00    +0.000 A 
ENDROOT
BRANCH   1   8
ATOM      7  O   UNL     1       8.533   7.482  18.778  0.00  0.00    +0.000 OA
ATOM      8  N   UNL     1       7.691   7.455  17.870  0.00  0.00    +0.000 N 
ATOM      9  O   UNL     1       7.633   8.270  16.940  0.00  0.00    +0.000 OA
ENDBRANCH   1   8
BRANCH   4  10
ATOM     10  O   UNL     1       4.039   3.253  18.011  0.00  0.00    +0.000 OA
BRANCH  10  11
ATOM     11  C   UNL     1       3.245   3.083  19.125  0.00  0.00    +0.000 A 
ATOM     12  C   UNL     1       3.707   2.494  20.308  0.00  0.00    +0.000 A 
ATOM     13  C   UNL     1       2.846   2.344  21.394  0.00  0.00    +0.000 A 
ATOM     14  C   UNL     1       1.520   2.748  21.280  0.00  0.00    +0.000 A 
ATOM     15  F   UNL     1       0.695   2.597  22.324  0.00  0.00    +0.000 F 
ATOM     16  C   UNL     1       1.034   3.296  20.099  0.00  0.00    +0.000 A 
ATOM     17  C   UNL     1       1.903   3.457  19.026  0.00  0.00    +0.000 A 
ATOM     18  F   UNL     1       1.431   3.981  17.883  0.00  0.00    +0.000 F 
ENDBRANCH  10  11
ENDBRANCH   4  10
TORSDOF 3
ENDMDL
MODEL 4
REMARK VINA RESULT:      -7.2      1.340      1.903
REMARK  Name = 
REMARK  3 active torsions:
REMARK  status: ('A' for Active; 'I' for Inactive)
REMARK    1  A    between atoms: N_2  and  C_4
REMARK    2  A    between atoms: C_7  and  O_8
REMARK    3  A    between atoms: O_8  and  C_9
REMARK                            x       y       z     vdW  Elec       q    Type
REMARK                         _______ _______ _______ _____ _____    ______ ____
ROOT
ATOM      1  C   UNL     1       6.603   4.616  15.538  0.00  0.00    +0.000 A 
ATOM      2  C   UNL     1       5.247   4.404  15.806  0.00  0.00    +0.000 A 
ATOM      3  C   UNL     1       4.846   4.220  17.130  0.00  0.00    +0.000 A 
ATOM      4  C   UNL     1       5.815   4.245  18.125  0.00  0.00    +0.000 A 
ATOM      5  N   UNL     1       7.127   4.490  17.884  0.00  0.00    +0.000 NA
ATOM      6  C   UNL     1       7.500   4.664  16.594  0.00  0.00    +0.000 A 
ENDROOT
BRANCH   1   8
ATOM      7  O   UNL     1       7.979   5.612  13.977  0.00  0.00    +0.000 OA
ATOM      8  N   UNL     1       7.088   4.774  14.175  0.00  0.00    +0.000 N 
ATOM      9  O   UNL     1       6.575   4.071  13.294  0.00  0.00    +0.000 OA
ENDBRANCH   1   8
BRANCH   4  10
ATOM     10  O   UNL     1       5.392   3.999  19.423  0.00  0.00    +0.000 OA
BRANCH  10  11
ATOM     11  C   UNL     1       4.036   3.863  19.629  0.00  0.00    +0.000 A 
ATOM     12  C   UNL     1       3.201   4.942  19.944  0.00  0.00    +0.000 A 
ATOM     13  C   UNL     1       1.838   4.731  20.151  0.00  0.00    +0.000 A 
ATOM     14  C   UNL     1       1.325   3.440  20.080  0.00  0.00    +0.000 A 
ATOM     15  F   UNL     1       0.017   3.241  20.284  0.00  0.00    +0.000 F 
ATOM     16  C   UNL     1       2.147   2.353  19.810  0.00  0.00    +0.000 A 
ATOM     17  C   UNL     1       3.502   2.574  19.589  0.00  0.00    +0.000 A 
ATOM     18  F   UNL     1       4.296   1.522  19.335  0.00  0.00    +0.000 F 
ENDBRANCH  10  11
ENDBRANCH   4  10
TORSDOF 3
ENDMDL
MODEL 5
REMARK VINA RESULT:      -7.2      0.685      1.144
REMARK  Name = 
REMARK  3 active torsions:
REMARK  status: ('A' for Active; 'I' for Inactive)
REMARK    1  A    between atoms: N_2  and  C_4
REMARK    2  A    between atoms: C_7  and  O_8
REMARK    3  A    between atoms: O_8  and  C_9
REMARK                            x       y       z     vdW  Elec       q    Type
REMARK                         _______ _______ _______ _____ _____    ______ ____
ROOT
ATOM      1  C   UNL     1       6.524   4.930  15.566  0.00  0.00    +0.000 A 
ATOM      2  C   UNL     1       7.322   4.658  16.681  0.00  0.00    +0.000 A 
ATOM      3  C   UNL     1       6.779   4.837  17.954  0.00  0.00    +0.000 A 
ATOM      4  C   UNL     1       5.470   5.289  18.058  0.00  0.00    +0.000 A 
ATOM      5  N   UNL     1       4.672   5.518  16.986  0.00  0.00    +0.000 NA
ATOM      6  C   UNL     1       5.215   5.342  15.758  0.00  0.00    +0.000 A 
ENDROOT
BRANCH   1   8
ATOM      7  O   UNL     1       7.991   5.538  13.891  0.00  0.00    +0.000 OA
ATOM      8  N   UNL     1       7.047   4.803  14.213  0.00  0.00    +0.000 N 
ATOM      9  O   UNL     1       6.510   3.978  13.462  0.00  0.00    +0.000 OA
ENDBRANCH   1   8
BRANCH   4  10
ATOM     10  O   UNL     1       4.980   5.513  19.336  0.00  0.00    +0.000 OA
BRANCH  10  11
ATOM     11  C   UNL     1       3.893   4.767  19.736  0.00  0.00    +0.000 A 
ATOM     12  C   UNL     1       3.908   3.368  19.793  0.00  0.00    +0.000 A 
ATOM     13  C   UNL     1       2.766   2.675  20.197  0.00  0.00    +0.000 A 
ATOM     14  C   UNL     1       1.608   3.381  20.503  0.00  0.00    +0.000 A 
ATOM     15  F   UNL     1       0.513   2.712  20.885  0.00  0.00    +0.000 F 
ATOM     16  C   UNL     1       1.564   4.767  20.411  0.00  0.00    +0.000 A 
ATOM     17  C   UNL     1       2.710   5.451  20.023  0.00  0.00    +0.000 A 
ATOM     18  F   UNL     1       2.664   6.789  19.928  0.00  0.00    +0.000 F 
ENDBRANCH  10  11
ENDBRANCH   4  10
TORSDOF 3
ENDMDL
MODEL 6
REMARK VINA RESULT:      -7.1      2.128      2.660
REMARK  Name = 
REMARK  3 active torsions:
REMARK  status: ('A' for Active; 'I' for Inactive)
REMARK    1  A    between atoms: N_2  and  C_4
REMARK    2  A    between atoms: C_7  and  O_8
REMARK    3  A    between atoms: O_8  and  C_9
REMARK                            x       y       z     vdW  Elec       q    Type
REMARK                         _______ _______ _______ _____ _____    ______ ____
ROOT
ATOM      1  C   UNL     1       5.774   5.821  16.678  0.00  0.00    +0.000 A 
ATOM      2  C   UNL     1       5.168   4.562  16.670  0.00  0.00    +0.000 A 
ATOM      3  C   UNL     1       3.871   4.438  17.171  0.00  0.00    +0.000 A 
ATOM      4  C   UNL     1       3.241   5.573  17.666  0.00  0.00    +0.000 A 
ATOM      5  N   UNL     1       3.801   6.807  17.643  0.00  0.00    +0.000 NA
ATOM      6  C   UNL     1       5.061   6.909  17.157  0.00  0.00    +0.000 A 
ENDROOT
BRANCH   1   8
ATOM      7  O   UNL     1       7.810   6.904  16.737  0.00  0.00    +0.000 OA
ATOM      8  N   UNL     1       7.139   6.007  16.208  0.00  0.00    +0.000 N 
ATOM      9  O   UNL     1       7.543   5.267  15.301  0.00  0.00    +0.000 OA
ENDBRANCH   1   8
BRANCH   4  10
ATOM     10  O   UNL     1       1.977   5.404  18.210  0.00  0.00    +0.000 OA
BRANCH  10  11
ATOM     11  C   UNL     1       1.866   4.574  19.305  0.00  0.00    +0.000 A 
ATOM     12  C   UNL     1       2.431   4.877  20.550  0.00  0.00    +0.000 A 
ATOM     13  C   UNL     1       2.290   3.986  21.614  0.00  0.00    +0.000 A 
ATOM     14  C   UNL     1       1.618   2.784  21.418  0.00  0.00    +0.000 A 
ATOM     15  F   UNL     1       1.489   1.929  22.440  0.00  0.00    +0.000 F 
ATOM     16  C   UNL     1       1.088   2.450  20.178  0.00  0.00    +0.000 A 
ATOM     17  C   UNL     1       1.219   3.350  19.126  0.00  0.00    +0.000 A 
ATOM     18  F   UNL     1       0.712   3.024  17.927  0.00  0.00    +0.000 F 
ENDBRANCH  10  11
ENDBRANCH   4  10
TORSDOF 3
ENDMDL
MODEL 7
REMARK VINA RESULT:      -7.1      1.301      2.092
REMARK  Name = 
REMARK  3 active torsions:
REMARK  status: ('A' for Active; 'I' for Inactive)
REMARK    1  A    between atoms: N_2  and  C_4
REMARK    2  A    between atoms: C_7  and  O_8
REMARK    3  A    between atoms: O_8  and  C_9
REMARK                            x       y       z     vdW  Elec       q    Type
REMARK                         _______ _______ _______ _____ _____    ______ ____
ROOT
ATOM      1  C   UNL     1       6.526   4.856  15.546  0.00  0.00    +0.000 A 
ATOM      2  C   UNL     1       7.348   4.563  16.639  0.00  0.00    +0.000 A 
ATOM      3  C   UNL     1       6.829   4.707  17.927  0.00  0.00    +0.000 A 
ATOM      4  C   UNL     1       5.519   5.146  18.067  0.00  0.00    +0.000 A 
ATOM      5  N   UNL     1       4.698   5.396  17.017  0.00  0.00    +0.000 NA
ATOM      6  C   UNL     1       5.217   5.254  15.774  0.00  0.00    +0.000 A 
ENDROOT
BRANCH   1   8
ATOM      7  O   UNL     1       6.471   3.954  13.424  0.00  0.00    +0.000 OA
ATOM      8  N   UNL     1       7.022   4.766  14.181  0.00  0.00    +0.000 N 
ATOM      9  O   UNL     1       7.970   5.494  13.861  0.00  0.00    +0.000 OA
ENDBRANCH   1   8
BRANCH   4  10
ATOM     10  O   UNL     1       5.054   5.336  19.360  0.00  0.00    +0.000 OA
BRANCH  10  11
ATOM     11  C   UNL     1       3.843   4.764  19.685  0.00  0.00    +0.000 A 
ATOM     12  C   UNL     1       2.694   5.516  19.960  0.00  0.00    +0.000 A 
ATOM     13  C   UNL     1       1.503   4.872  20.294  0.00  0.00    +0.000 A 
ATOM     14  C   UNL     1       1.476   3.484  20.388  0.00  0.00    +0.000 A 
ATOM     15  F   UNL     1       0.332   2.871  20.714  0.00  0.00    +0.000 F 
ATOM     16  C   UNL     1       2.617   2.726  20.160  0.00  0.00    +0.000 A 
ATOM     17  C   UNL     1       3.797   3.374  19.812  0.00  0.00    +0.000 A 
ATOM     18  F   UNL     1       4.901   2.641  19.598  0.00  0.00    +0.000 F 
ENDBRANCH  10  11
ENDBRANCH   4  10
TORSDOF 3
ENDMDL
MODEL 8
REMARK VINA RESULT:      -7.1      2.721      3.264
REMARK  Name = 
REMARK  3 active torsions:
REMARK  status: ('A' for Active; 'I' for Inactive)
REMARK    1  A    between atoms: N_2  and  C_4
REMARK    2  A    between atoms: C_7  and  O_8
REMARK    3  A    between atoms: O_8  and  C_9
REMARK                            x       y       z     vdW  Elec       q    Type
REMARK                         _______ _______ _______ _____ _____    ______ ____
ROOT
ATOM      1  C   UNL     1       6.418   6.332  17.600  0.00  0.00    +0.000 A 
ATOM      2  C   UNL     1       6.437   4.943  17.758  0.00  0.00    +0.000 A 
ATOM      3  C   UNL     1       5.239   4.237  17.634  0.00  0.00    +0.000 A 
ATOM      4  C   UNL     1       4.076   4.948  17.368  0.00  0.00    +0.000 A 
ATOM      5  N   UNL     1       4.049   6.290  17.172  0.00  0.00    +0.000 NA
ATOM      6  C   UNL     1       5.219   6.960  17.299  0.00  0.00    +0.000 A 
ENDROOT
BRANCH   1   8
ATOM      7  O   UNL     1       8.302   6.947  18.782  0.00  0.00    +0.000 OA
ATOM      8  N   UNL     1       7.626   7.128  17.759  0.00  0.00    +0.000 N 
ATOM      9  O   UNL     1       7.899   7.946  16.871  0.00  0.00    +0.000 OA
ENDBRANCH   1   8
BRANCH   4  10
ATOM     10  O   UNL     1       2.895   4.223  17.309  0.00  0.00    +0.000 OA
BRANCH  10  11
ATOM     11  C   UNL     1       2.339   3.825  18.505  0.00  0.00    +0.000 A 
ATOM     12  C   UNL     1       1.839   4.729  19.452  0.00  0.00    +0.000 A 
ATOM     13  C   UNL     1       1.298   4.257  20.647  0.00  0.00    +0.000 A 
ATOM     14  C   UNL     1       1.294   2.891  20.907  0.00  0.00    +0.000 A 
ATOM     15  F   UNL     1       0.779   2.443  22.059  0.00  0.00    +0.000 F 
ATOM     16  C   UNL     1       1.824   1.984  19.997  0.00  0.00    +0.000 A 
ATOM     17  C   UNL     1       2.347   2.461  18.801  0.00  0.00    +0.000 A 
ATOM     18  F   UNL     1       2.865   1.584  17.925  0.00  0.00    +0.000 F 
ENDBRANCH  10  11
ENDBRANCH   4  10
TORSDOF 3
ENDMDL
MODEL 9
REMARK VINA RESULT:      -7.0      1.945      2.386
REMARK  Name = 
REMARK  3 active torsions:
REMARK  status: ('A' for Active; 'I' for Inactive)
REMARK    1  A    between atoms: N_2  and  C_4
REMARK    2  A    between atoms: C_7  and  O_8
REMARK    3  A    between atoms: O_8  and  C_9
REMARK                            x       y       z     vdW  Elec       q    Type
REMARK                         _______ _______ _______ _____ _____    ______ ____
ROOT
ATOM      1  C   UNL     1       5.846   5.455  16.709  0.00  0.00    +0.000 A 
ATOM      2  C   UNL     1       5.181   4.233  16.572  0.00  0.00    +0.000 A 
ATOM      3  C   UNL     1       3.853   4.140  16.992  0.00  0.00    +0.000 A 
ATOM      4  C   UNL     1       3.253   5.266  17.540  0.00  0.00    +0.000 A 
ATOM      5  N   UNL     1       3.872   6.468  17.643  0.00  0.00    +0.000 NA
ATOM      6  C   UNL     1       5.160   6.541  17.233  0.00  0.00    +0.000 A 
ENDROOT
BRANCH   1   8
ATOM      7  O   UNL     1       7.858   4.581  15.996  0.00  0.00    +0.000 OA
ATOM      8  N   UNL     1       7.243   5.604  16.328  0.00  0.00    +0.000 N 
ATOM      9  O   UNL     1       7.735   6.739  16.369  0.00  0.00    +0.000 OA
ENDBRANCH   1   8
BRANCH   4  10
ATOM     10  O   UNL     1       1.952   5.124  18.002  0.00  0.00    +0.000 OA
BRANCH  10  11
ATOM     11  C   UNL     1       1.753   4.290  19.081  0.00  0.00    +0.000 A 
ATOM     12  C   UNL     1       1.182   3.016  18.964  0.00  0.00    +0.000 A 
ATOM     13  C   UNL     1       1.000   2.228  20.099  0.00  0.00    +0.000 A 
ATOM     14  C   UNL     1       1.354   2.730  21.348  0.00  0.00    +0.000 A 
ATOM     15  F   UNL     1       1.172   1.971  22.436  0.00  0.00    +0.000 F 
ATOM     16  C   UNL     1       1.882   4.007  21.486  0.00  0.00    +0.000 A 
ATOM     17  C   UNL     1       2.075   4.781  20.347  0.00  0.00    +0.000 A 
ATOM     18  F   UNL     1       2.580   6.018  20.483  0.00  0.00    +0.000 F 
ENDBRANCH  10  11
ENDBRANCH   4  10
TORSDOF 3
ENDMDL
