MODEL 1
REMARK VINA RESULT:      -9.0      0.000      0.000
REMARK  Name = 
REMARK  7 active torsions:
REMARK  status: ('A' for Active; 'I' for Inactive)
REMARK    1  A    between atoms: C_1  and  O_2
REMARK    2  A    between atoms: O_2  and  C_3
REMARK    3  A    between atoms: C_7  and  S_8
REMARK    4  A    between atoms: S_8  and  C_11
REMARK    5  A    between atoms: C_14  and  C_15
REMARK    6  A    between atoms: C_15  and  N_16
REMARK    7  A    between atoms: C_17  and  C_19
REMARK                            x       y       z     vdW  Elec       q    Type
REMARK                         _______ _______ _______ _____ _____    ______ ____
ROOT
ATOM      1  C   UNL     1       0.975   9.697  19.319  0.00  0.00    +0.000 A 
ATOM      2  C   UNL     1       1.594   9.351  18.122  0.00  0.00    +0.000 A 
ATOM      3  C   UNL     1       2.325   8.166  18.063  0.00  0.00    +0.000 A 
ATOM      4  C   UNL     1       2.407   7.360  19.199  0.00  0.00    +0.000 A 
ATOM      5  N   UNL     1       1.814   7.703  20.376  0.00  0.00    +0.000 NA
ATOM      6  C   UNL     1       1.111   8.863  20.413  0.00  0.00    +0.000 A 
ENDROOT
BRANCH   1   7
ATOM      7  S   UNL     1       0.032  11.180  19.449  0.00  0.00    +0.000 S 
ATOM      8  O   UNL     1       0.807  12.214  18.788  0.00  0.00    +0.000 OA
ATOM      9  O   UNL     1      -0.375  11.329  20.835  0.00  0.00    +0.000 OA
BRANCH   7  14
ATOM     10  C   UNL     1      -3.777  11.509  18.142  0.00  0.00    +0.000 A 
ATOM     11  C   UNL     1      -3.832  10.530  17.143  0.00  0.00    +0.000 A 
ATOM     12  C   UNL     1      -2.707   9.764  16.826  0.00  0.00    +0.000 A 
ATOM     13  C   UNL     1      -1.515   9.962  17.517  0.00  0.00    +0.000 A 
ATOM     14  C   UNL     1      -1.462  10.935  18.518  0.00  0.00    +0.000 A 
ATOM     15  C   UNL     1      -2.579  11.726  18.820  0.00  0.00    +0.000 A 
BRANCH  10  17
ATOM     16  C   UNL     1      -5.254  12.517  19.711  0.00  0.00    +0.000 C 
ATOM     17  O   UNL     1      -4.955  12.166  18.365  0.00  0.00    +0.000 OA
ENDBRANCH  10  17
ENDBRANCH   7  14
ENDBRANCH   1   7
BRANCH   4  18
ATOM     18  C   UNL     1       3.187   6.063  19.159  0.00  0.00    +0.000 C 
BRANCH  18  19
ATOM     19  N   UNL     1       4.029   5.948  17.982  0.00  0.00    +0.000 N 
ATOM     20  C   UNL     1       4.602   4.753  17.616  0.00  0.00    +0.000 C 
ATOM     21  O   UNL     1       4.451   3.710  18.243  0.00  0.00    +0.000 OA
ATOM     22  H   UNL     1       3.973   6.707  17.316  0.00  0.00    +0.000 HD
BRANCH  20  23
ATOM     23  C   UNL     1       5.419   4.764  16.377  0.00  0.00    +0.000 A 
ATOM     24  C   UNL     1       6.532   5.601  16.320  0.00  0.00    +0.000 A 
ATOM     25  N   UNL     1       7.387   5.720  15.267  0.00  0.00    +0.000 NA
ATOM     26  C   UNL     1       7.036   4.937  14.229  0.00  0.00    +0.000 A 
ATOM     27  N   UNL     1       7.691   4.831  13.036  0.00  0.00    +0.000 N 
ATOM     28  N   UNL     1       7.106   3.975  12.168  0.00  0.00    +0.000 NA
ATOM     29  C   UNL     1       6.044   3.529  12.848  0.00  0.00    +0.000 A 
ATOM     30  C   UNL     1       5.947   4.083  14.145  0.00  0.00    +0.000 A 
ATOM     31  C   UNL     1       5.094   3.988  15.255  0.00  0.00    +0.000 A 
ATOM     32  H   UNL     1       8.538   5.315  12.762  0.00  0.00    +0.000 HD
ENDBRANCH  20  23
ENDBRANCH  18  19
ENDBRANCH   4  18
TORSDOF 6
ENDMDL
MODEL 2
REMARK VINA RESULT:      -8.9      1.735      2.678
REMARK  Name = 
REMARK  7 active torsions:
REMARK  status: ('A' for Active; 'I' for Inactive)
REMARK    1  A    between atoms: C_1  and  O_2
REMARK    2  A    between atoms: O_2  and  C_3
REMARK    3  A    between atoms: C_7  and  S_8
REMARK    4  A    between atoms: S_8  and  C_11
REMARK    5  A    between atoms: C_14  and  C_15
REMARK    6  A    between atoms: C_15  and  N_16
REMARK    7  A    between atoms: C_17  and  C_19
REMARK                            x       y       z     vdW  Elec       q    Type
REMARK                         _______ _______ _______ _____ _____    ______ ____
ROOT
ATOM      1  C   UNL     1      -0.241  10.600  19.866  0.00  0.00    +0.000 A 
ATOM      2  C   UNL     1       0.730  10.159  18.973  0.00  0.00    +0.000 A 
ATOM      3  C   UNL     1       1.425   8.986  19.264  0.00  0.00    +0.000 A 
ATOM      4  C   UNL     1       1.123   8.289  20.434  0.00  0.00    +0.000 A 
ATOM      5  N   UNL     1       0.182   8.725  21.316  0.00  0.00    +0.000 NA
ATOM      6  C   UNL     1      -0.480   9.871  21.015  0.00  0.00    +0.000 A 
ENDROOT
BRANCH   1   7
ATOM      7  S   UNL     1      -1.157  12.072  19.545  0.00  0.00    +0.000 S 
ATOM      8  O   UNL     1      -0.225  13.007  18.942  0.00  0.00    +0.000 OA
ATOM      9  O   UNL     1      -1.878  12.419  20.755  0.00  0.00    +0.000 OA
BRANCH   7  14
ATOM     10  C   UNL     1      -2.920  10.936  16.092  0.00  0.00    +0.000 A 
ATOM     11  C   UNL     1      -4.279  11.102  16.386  0.00  0.00    +0.000 A 
ATOM     12  C   UNL     1      -4.693  11.539  17.646  0.00  0.00    +0.000 A 
ATOM     13  C   UNL     1      -3.747  11.828  18.626  0.00  0.00    +0.000 A 
ATOM     14  C   UNL     1      -2.391  11.668  18.331  0.00  0.00    +0.000 A 
ATOM     15  C   UNL     1      -1.972  11.202  17.077  0.00  0.00    +0.000 A 
BRANCH  10  17
ATOM     16  C   UNL     1      -3.754  10.039  14.052  0.00  0.00    +0.000 C 
ATOM     17  O   UNL     1      -2.656  10.527  14.815  0.00  0.00    +0.000 OA
ENDBRANCH  10  17
ENDBRANCH   7  14
ENDBRANCH   1   7
BRANCH   4  18
ATOM     18  C   UNL     1       1.857   7.008  20.769  0.00  0.00    +0.000 C 
BRANCH  18  19
ATOM     19  N   UNL     1       2.930   6.713  19.837  0.00  0.00    +0.000 N 
ATOM     20  C   UNL     1       3.415   5.437  19.670  0.00  0.00    +0.000 C 
ATOM     21  O   UNL     1       2.986   4.465  20.284  0.00  0.00    +0.000 OA
ATOM     22  H   UNL     1       3.131   7.425  19.146  0.00  0.00    +0.000 HD
BRANCH  20  23
ATOM     23  C   UNL     1       4.495   5.265  18.667  0.00  0.00    +0.000 A 
ATOM     24  C   UNL     1       5.751   4.848  19.105  0.00  0.00    +0.000 A 
ATOM     25  N   UNL     1       6.839   4.634  18.315  0.00  0.00    +0.000 NA
ATOM     26  C   UNL     1       6.591   4.891  17.017  0.00  0.00    +0.000 A 
ATOM     27  N   UNL     1       7.475   4.769  15.984  0.00  0.00    +0.000 N 
ATOM     28  N   UNL     1       6.957   5.109  14.782  0.00  0.00    +0.000 NA
ATOM     29  C   UNL     1       5.700   5.456  15.078  0.00  0.00    +0.000 A 
ATOM     30  C   UNL     1       5.404   5.333  16.455  0.00  0.00    +0.000 A 
ATOM     31  C   UNL     1       4.306   5.538  17.305  0.00  0.00    +0.000 A 
ATOM     32  H   UNL     1       8.438   4.459  16.040  0.00  0.00    +0.000 HD
ENDBRANCH  20  23
ENDBRANCH  18  19
ENDBRANCH   4  18
TORSDOF 6
ENDMDL
MODEL 3
REMARK VINA RESULT:      -8.9      3.859     10.095
REMARK  Name = 
REMARK  7 active torsions:
REMARK  status: ('A' for Active; 'I' for Inactive)
REMARK    1  A    between atoms: C_1  and  O_2
REMARK    2  A    between atoms: O_2  and  C_3
REMARK    3  A    between atoms: C_7  and  S_8
REMARK    4  A    between atoms: S_8  and  C_11
REMARK    5  A    between atoms: C_14  and  C_15
REMARK    6  A    between atoms: C_15  and  N_16
REMARK    7  A    between atoms: C_17  and  C_19
REMARK                            x       y       z     vdW  Elec       q    Type
REMARK                         _______ _______ _______ _____ _____    ______ ____
ROOT
ATOM      1  C   UNL     1       2.649   5.112  18.994  0.00  0.00    +0.000 A 
ATOM      2  C   UNL     1       2.904   6.373  18.463  0.00  0.00    +0.000 A 
ATOM      3  C   UNL     1       2.468   7.496  19.165  0.00  0.00    +0.000 A 
ATOM      4  C   UNL     1       1.798   7.324  20.376  0.00  0.00    +0.000 A 
ATOM      5  N   UNL     1       1.535   6.091  20.891  0.00  0.00    +0.000 NA
ATOM      6  C   UNL     1       1.964   5.012  20.190  0.00  0.00    +0.000 A 
ENDROOT
BRANCH   1   7
ATOM      7  S   UNL     1       3.183   3.658  18.155  0.00  0.00    +0.000 S 
ATOM      8  O   UNL     1       2.235   3.437  17.079  0.00  0.00    +0.000 OA
ATOM      9  O   UNL     1       3.426   2.632  19.153  0.00  0.00    +0.000 OA
BRANCH   7  14
ATOM     10  C   UNL     1       6.144   4.151  15.451  0.00  0.00    +0.000 A 
ATOM     11  C   UNL     1       7.228   4.508  16.261  0.00  0.00    +0.000 A 
ATOM     12  C   UNL     1       7.080   4.632  17.645  0.00  0.00    +0.000 A 
ATOM     13  C   UNL     1       5.844   4.386  18.235  0.00  0.00    +0.000 A 
ATOM     14  C   UNL     1       4.763   4.024  17.426  0.00  0.00    +0.000 A 
ATOM     15  C   UNL     1       4.900   3.926  16.035  0.00  0.00    +0.000 A 
BRANCH  10  17
ATOM     16  C   UNL     1       7.359   4.982  13.581  0.00  0.00    +0.000 C 
ATOM     17  O   UNL     1       6.436   4.043  14.119  0.00  0.00    +0.000 OA
ENDBRANCH  10  17
ENDBRANCH   7  14
ENDBRANCH   1   7
BRANCH   4  18
ATOM     18  C   UNL     1       1.322   8.528  21.162  0.00  0.00    +0.000 C 
BRANCH  18  19
ATOM     19  N   UNL     1       0.129   9.133  20.597  0.00  0.00    +0.000 N 
ATOM     20  C   UNL     1       0.195  10.234  19.775  0.00  0.00    +0.000 C 
ATOM     21  O   UNL     1       1.247  10.780  19.460  0.00  0.00    +0.000 OA
ATOM     22  H   UNL     1      -0.714   8.574  20.628  0.00  0.00    +0.000 HD
BRANCH  20  23
ATOM     23  C   UNL     1      -1.094  10.739  19.243  0.00  0.00    +0.000 A 
ATOM     24  C   UNL     1      -1.773  11.722  19.962  0.00  0.00    +0.000 A 
ATOM     25  N   UNL     1      -2.955  12.296  19.607  0.00  0.00    +0.000 NA
ATOM     26  C   UNL     1      -3.445  11.795  18.457  0.00  0.00    +0.000 A 
ATOM     27  N   UNL     1      -4.605  12.166  17.841  0.00  0.00    +0.000 N 
ATOM     28  N   UNL     1      -4.858  11.485  16.701  0.00  0.00    +0.000 NA
ATOM     29  C   UNL     1      -3.813  10.656  16.603  0.00  0.00    +0.000 A 
ATOM     30  C   UNL     1      -2.889  10.805  17.662  0.00  0.00    +0.000 A 
ATOM     31  C   UNL     1      -1.668  10.242  18.064  0.00  0.00    +0.000 A 
ATOM     32  H   UNL     1      -5.259  12.876  18.151  0.00  0.00    +0.000 HD
ENDBRANCH  20  23
ENDBRANCH  18  19
ENDBRANCH   4  18
TORSDOF 6
ENDMDL
MODEL 4
REMARK VINA RESULT:      -8.8      3.470      9.945
REMARK  Name = 
REMARK  7 active torsions:
REMARK  status: ('A' for Active; 'I' for Inactive)
REMARK    1  A    between atoms: C_1  and  O_2
REMARK    2  A    between atoms: O_2  and  C_3
REMARK    3  A    between atoms: C_7  and  S_8
REMARK    4  A    between atoms: S_8  and  C_11
REMARK    5  A    between atoms: C_14  and  C_15
REMARK    6  A    between atoms: C_15  and  N_16
REMARK    7  A    between atoms: C_17  and  C_19
REMARK                            x       y       z     vdW  Elec       q    Type
REMARK                         _______ _______ _______ _____ _____    ______ ____
ROOT
ATOM      1  C   UNL     1       2.697   4.937  19.012  0.00  0.00    +0.000 A 
ATOM      2  C   UNL     1       1.923   4.755  20.154  0.00  0.00    +0.000 A 
ATOM      3  C   UNL     1       1.475   5.879  20.847  0.00  0.00    +0.000 A 
ATOM      4  C   UNL     1       1.808   7.148  20.372  0.00  0.00    +0.000 A 
ATOM      5  N   UNL     1       2.576   7.329  19.262  0.00  0.00    +0.000 NA
ATOM      6  C   UNL     1       3.005   6.221  18.605  0.00  0.00    +0.000 A 
ENDROOT
BRANCH   1   7
ATOM      7  S   UNL     1       3.284   3.552  18.092  0.00  0.00    +0.000 S 
ATOM      8  O   UNL     1       2.301   3.308  17.053  0.00  0.00    +0.000 OA
ATOM      9  O   UNL     1       3.640   2.510  19.037  0.00  0.00    +0.000 OA
BRANCH   7  14
ATOM     10  C   UNL     1       5.993   4.586  15.279  0.00  0.00    +0.000 A 
ATOM     11  C   UNL     1       7.159   4.747  16.036  0.00  0.00    +0.000 A 
ATOM     12  C   UNL     1       7.145   4.569  17.422  0.00  0.00    +0.000 A 
ATOM     13  C   UNL     1       5.962   4.215  18.065  0.00  0.00    +0.000 A 
ATOM     14  C   UNL     1       4.799   4.049  17.307  0.00  0.00    +0.000 A 
ATOM     15  C   UNL     1       4.802   4.254  15.921  0.00  0.00    +0.000 A 
BRANCH  10  17
ATOM     16  C   UNL     1       6.222   3.594  13.129  0.00  0.00    +0.000 C 
ATOM     17  O   UNL     1       6.155   4.765  13.933  0.00  0.00    +0.000 OA
ENDBRANCH  10  17
ENDBRANCH   7  14
ENDBRANCH   1   7
BRANCH   4  18
ATOM     18  C   UNL     1       1.327   8.385  21.100  0.00  0.00    +0.000 C 
BRANCH  18  19
ATOM     19  N   UNL     1       0.182   9.005  20.461  0.00  0.00    +0.000 N 
ATOM     20  C   UNL     1       0.325  10.033  19.557  0.00  0.00    +0.000 C 
ATOM     21  O   UNL     1       1.412  10.497  19.228  0.00  0.00    +0.000 OA
ATOM     22  H   UNL     1      -0.691   8.495  20.512  0.00  0.00    +0.000 HD
BRANCH  20  23
ATOM     23  C   UNL     1      -0.924  10.562  18.955  0.00  0.00    +0.000 A 
ATOM     24  C   UNL     1      -1.664  11.502  19.672  0.00  0.00    +0.000 A 
ATOM     25  N   UNL     1      -2.819  12.090  19.257  0.00  0.00    +0.000 NA
ATOM     26  C   UNL     1      -3.215  11.651  18.047  0.00  0.00    +0.000 A 
ATOM     27  N   UNL     1      -4.327  12.051  17.364  0.00  0.00    +0.000 N 
ATOM     28  N   UNL     1      -4.485  11.432  16.173  0.00  0.00    +0.000 NA
ATOM     29  C   UNL     1      -3.429  10.614  16.111  0.00  0.00    +0.000 A 
ATOM     30  C   UNL     1      -2.591  10.708  17.245  0.00  0.00    +0.000 A 
ATOM     31  C   UNL     1      -1.400  10.129  17.709  0.00  0.00    +0.000 A 
ATOM     32  H   UNL     1      -5.008  12.741  17.660  0.00  0.00    +0.000 HD
ENDBRANCH  20  23
ENDBRANCH  18  19
ENDBRANCH   4  18
TORSDOF 6
ENDMDL
MODEL 5
REMARK VINA RESULT:      -8.8      0.922      1.230
REMARK  Name = 
REMARK  7 active torsions:
REMARK  status: ('A' for Active; 'I' for Inactive)
REMARK    1  A    between atoms: C_1  and  O_2
REMARK    2  A    between atoms: O_2  and  C_3
REMARK    3  A    between atoms: C_7  and  S_8
REMARK    4  A    between atoms: S_8  and  C_11
REMARK    5  A    between atoms: C_14  and  C_15
REMARK    6  A    between atoms: C_15  and  N_16
REMARK    7  A    between atoms: C_17  and  C_19
REMARK                            x       y       z     vdW  Elec       q    Type
REMARK                         _______ _______ _______ _____ _____    ______ ____
ROOT
ATOM      1  C   UNL     1       0.567  10.041  19.619  0.00  0.00    +0.000 A 
ATOM      2  C   UNL     1       0.539   9.276  20.782  0.00  0.00    +0.000 A 
ATOM      3  C   UNL     1       1.259   8.083  20.817  0.00  0.00    +0.000 A 
ATOM      4  C   UNL     1       1.990   7.696  19.694  0.00  0.00    +0.000 A 
ATOM      5  N   UNL     1       2.009   8.435  18.550  0.00  0.00    +0.000 NA
ATOM      6  C   UNL     1       1.297   9.591  18.536  0.00  0.00    +0.000 A 
ENDROOT
BRANCH   1   7
ATOM      7  S   UNL     1      -0.318  11.562  19.521  0.00  0.00    +0.000 S 
ATOM      8  O   UNL     1       0.481  12.444  18.691  0.00  0.00    +0.000 OA
ATOM      9  O   UNL     1      -0.692  11.947  20.869  0.00  0.00    +0.000 OA
BRANCH   7  14
ATOM     10  C   UNL     1      -4.203  11.645  18.415  0.00  0.00    +0.000 A 
ATOM     11  C   UNL     1      -4.242  10.681  17.400  0.00  0.00    +0.000 A 
ATOM     12  C   UNL     1      -3.085  10.002  17.011  0.00  0.00    +0.000 A 
ATOM     13  C   UNL     1      -1.875  10.271  17.644  0.00  0.00    +0.000 A 
ATOM     14  C   UNL     1      -1.838  11.228  18.661  0.00  0.00    +0.000 A 
ATOM     15  C   UNL     1      -2.990  11.934  19.035  0.00  0.00    +0.000 A 
BRANCH  10  17
ATOM     16  C   UNL     1      -6.567  11.605  18.149  0.00  0.00    +0.000 C 
ATOM     17  O   UNL     1      -5.410  12.214  18.711  0.00  0.00    +0.000 OA
ENDBRANCH  10  17
ENDBRANCH   7  14
ENDBRANCH   1   7
BRANCH   4  18
ATOM     18  C   UNL     1       2.788   6.410  19.709  0.00  0.00    +0.000 C 
BRANCH  18  19
ATOM     19  N   UNL     1       3.657   6.271  18.555  0.00  0.00    +0.000 N 
ATOM     20  C   UNL     1       4.598   5.272  18.472  0.00  0.00    +0.000 C 
ATOM     21  O   UNL     1       4.774   4.435  19.352  0.00  0.00    +0.000 OA
ATOM     22  H   UNL     1       3.378   6.773  17.722  0.00  0.00    +0.000 HD
BRANCH  20  23
ATOM     23  C   UNL     1       5.404   5.224  17.228  0.00  0.00    +0.000 A 
ATOM     24  C   UNL     1       6.537   6.032  17.136  0.00  0.00    +0.000 A 
ATOM     25  N   UNL     1       7.385   6.097  16.073  0.00  0.00    +0.000 NA
ATOM     26  C   UNL     1       7.007   5.291  15.062  0.00  0.00    +0.000 A 
ATOM     27  N   UNL     1       7.649   5.133  13.869  0.00  0.00    +0.000 N 
ATOM     28  N   UNL     1       7.036   4.265  13.032  0.00  0.00    +0.000 NA
ATOM     29  C   UNL     1       5.970   3.867  13.734  0.00  0.00    +0.000 A 
ATOM     30  C   UNL     1       5.897   4.462  15.014  0.00  0.00    +0.000 A 
ATOM     31  C   UNL     1       5.051   4.423  16.133  0.00  0.00    +0.000 A 
ATOM     32  H   UNL     1       8.505   5.587  13.573  0.00  0.00    +0.000 HD
ENDBRANCH  20  23
ENDBRANCH  18  19
ENDBRANCH   4  18
TORSDOF 6
ENDMDL
MODEL 6
REMARK VINA RESULT:      -8.8      3.739     10.468
REMARK  Name = 
REMARK  7 active torsions:
REMARK  status: ('A' for Active; 'I' for Inactive)
REMARK    1  A    between atoms: C_1  and  O_2
REMARK    2  A    between atoms: O_2  and  C_3
REMARK    3  A    between atoms: C_7  and  S_8
REMARK    4  A    between atoms: S_8  and  C_11
REMARK    5  A    between atoms: C_14  and  C_15
REMARK    6  A    between atoms: C_15  and  N_16
REMARK    7  A    between atoms: C_17  and  C_19
REMARK                            x       y       z     vdW  Elec       q    Type
REMARK                         _______ _______ _______ _____ _____    ______ ____
ROOT
ATOM      1  C   UNL     1       2.551   6.838  18.836  0.00  0.00    +0.000 A 
ATOM      2  C   UNL     1       2.531   7.623  17.687  0.00  0.00    +0.000 A 
ATOM      3  C   UNL     1       1.981   8.902  17.758  0.00  0.00    +0.000 A 
ATOM      4  C   UNL     1       1.476   9.358  18.977  0.00  0.00    +0.000 A 
ATOM      5  N   UNL     1       1.482   8.587  20.099  0.00  0.00    +0.000 NA
ATOM      6  C   UNL     1       2.018   7.344  20.006  0.00  0.00    +0.000 A 
ENDROOT
BRANCH   1   7
ATOM      7  S   UNL     1       3.241   5.216  18.806  0.00  0.00    +0.000 S 
ATOM      8  O   UNL     1       2.181   4.332  18.359  0.00  0.00    +0.000 OA
ATOM      9  O   UNL     1       3.909   4.994  20.075  0.00  0.00    +0.000 OA
BRANCH   7  14
ATOM     10  C   UNL     1       6.616   6.095  16.765  0.00  0.00    +0.000 A 
ATOM     11  C   UNL     1       6.488   5.295  15.624  0.00  0.00    +0.000 A 
ATOM     12  C   UNL     1       5.387   4.451  15.459  0.00  0.00    +0.000 A 
ATOM     13  C   UNL     1       4.392   4.409  16.431  0.00  0.00    +0.000 A 
ATOM     14  C   UNL     1       4.517   5.213  17.568  0.00  0.00    +0.000 A 
ATOM     15  C   UNL     1       5.634   6.039  17.752  0.00  0.00    +0.000 A 
BRANCH  10  17
ATOM     16  C   UNL     1       7.675   8.055  17.599  0.00  0.00    +0.000 C 
ATOM     17  O   UNL     1       7.729   6.889  16.786  0.00  0.00    +0.000 OA
ENDBRANCH  10  17
ENDBRANCH   7  14
ENDBRANCH   1   7
BRANCH   4  18
ATOM     18  C   UNL     1       0.881  10.746  19.083  0.00  0.00    +0.000 C 
BRANCH  18  19
ATOM     19  N   UNL     1      -0.558  10.759  18.891  0.00  0.00    +0.000 N 
ATOM     20  C   UNL     1      -1.213  11.863  18.397  0.00  0.00    +0.000 C 
ATOM     21  O   UNL     1      -0.644  12.905  18.087  0.00  0.00    +0.000 OA
ATOM     22  H   UNL     1      -1.018   9.858  18.895  0.00  0.00    +0.000 HD
BRANCH  20  23
ATOM     23  C   UNL     1      -2.681  11.738  18.224  0.00  0.00    +0.000 A 
ATOM     24  C   UNL     1      -3.172  11.292  16.997  0.00  0.00    +0.000 A 
ATOM     25  N   UNL     1      -4.484  11.113  16.681  0.00  0.00    +0.000 NA
ATOM     26  C   UNL     1      -5.307  11.437  17.697  0.00  0.00    +0.000 A 
ATOM     27  N   UNL     1      -6.669  11.363  17.691  0.00  0.00    +0.000 N 
ATOM     28  N   UNL     1      -7.241  11.766  18.848  0.00  0.00    +0.000 NA
ATOM     29  C   UNL     1      -6.192  12.104  19.605  0.00  0.00    +0.000 A 
ATOM     30  C   UNL     1      -4.954  11.913  18.950  0.00  0.00    +0.000 A 
ATOM     31  C   UNL     1      -3.590  12.081  19.235  0.00  0.00    +0.000 A 
ATOM     32  H   UNL     1      -7.258  11.046  16.930  0.00  0.00    +0.000 HD
ENDBRANCH  20  23
ENDBRANCH  18  19
ENDBRANCH   4  18
TORSDOF 6
ENDMDL
MODEL 7
REMARK VINA RESULT:      -8.8      3.816     10.006
REMARK  Name = 
REMARK  7 active torsions:
REMARK  status: ('A' for Active; 'I' for Inactive)
REMARK    1  A    between atoms: C_1  and  O_2
REMARK    2  A    between atoms: O_2  and  C_3
REMARK    3  A    between atoms: C_7  and  S_8
REMARK    4  A    between atoms: S_8  and  C_11
REMARK    5  A    between atoms: C_14  and  C_15
REMARK    6  A    between atoms: C_15  and  N_16
REMARK    7  A    between atoms: C_17  and  C_19
REMARK                            x       y       z     vdW  Elec       q    Type
REMARK                         _______ _______ _______ _____ _____    ______ ____
ROOT
ATOM      1  C   UNL     1       2.559   5.222  18.825  0.00  0.00    +0.000 A 
ATOM      2  C   UNL     1       2.661   6.465  18.209  0.00  0.00    +0.000 A 
ATOM      3  C   UNL     1       2.269   7.599  18.918  0.00  0.00    +0.000 A 
ATOM      4  C   UNL     1       1.795   7.456  20.223  0.00  0.00    +0.000 A 
ATOM      5  N   UNL     1       1.681   6.239  20.824  0.00  0.00    +0.000 NA
ATOM      6  C   UNL     1       2.064   5.148  20.113  0.00  0.00    +0.000 A 
ENDROOT
BRANCH   1   7
ATOM      7  S   UNL     1       3.047   3.755  17.979  0.00  0.00    +0.000 S 
ATOM      8  O   UNL     1       2.048   3.527  16.952  0.00  0.00    +0.000 OA
ATOM      9  O   UNL     1       3.332   2.740  18.976  0.00  0.00    +0.000 OA
BRANCH   7  14
ATOM     10  C   UNL     1       6.768   5.147  17.245  0.00  0.00    +0.000 A 
ATOM     11  C   UNL     1       6.981   4.738  15.924  0.00  0.00    +0.000 A 
ATOM     12  C   UNL     1       6.011   4.009  15.233  0.00  0.00    +0.000 A 
ATOM     13  C   UNL     1       4.807   3.691  15.855  0.00  0.00    +0.000 A 
ATOM     14  C   UNL     1       4.592   4.105  17.172  0.00  0.00    +0.000 A 
ATOM     15  C   UNL     1       5.574   4.812  17.880  0.00  0.00    +0.000 A 
BRANCH  10  17
ATOM     16  C   UNL     1       7.959   5.792  19.202  0.00  0.00    +0.000 C 
ATOM     17  O   UNL     1       7.789   5.874  17.792  0.00  0.00    +0.000 OA
ENDBRANCH  10  17
ENDBRANCH   7  14
ENDBRANCH   1   7
BRANCH   4  18
ATOM     18  C   UNL     1       1.371   8.672  21.018  0.00  0.00    +0.000 C 
BRANCH  18  19
ATOM     19  N   UNL     1       0.151   9.277  20.515  0.00  0.00    +0.000 N 
ATOM     20  C   UNL     1       0.175  10.371  19.681  0.00  0.00    +0.000 C 
ATOM     21  O   UNL     1       1.210  10.911  19.304  0.00  0.00    +0.000 OA
ATOM     22  H   UNL     1      -0.690   8.721  20.597  0.00  0.00    +0.000 HD
BRANCH  20  23
ATOM     23  C   UNL     1      -1.140  10.877  19.217  0.00  0.00    +0.000 A 
ATOM     24  C   UNL     1      -1.821  11.794  20.016  0.00  0.00    +0.000 A 
ATOM     25  N   UNL     1      -3.026  12.360  19.730  0.00  0.00    +0.000 NA
ATOM     26  C   UNL     1      -3.536  11.921  18.563  0.00  0.00    +0.000 A 
ATOM     27  N   UNL     1      -4.722  12.301  18.003  0.00  0.00    +0.000 N 
ATOM     28  N   UNL     1      -4.990  11.688  16.829  0.00  0.00    +0.000 NA
ATOM     29  C   UNL     1      -3.929  10.893  16.650  0.00  0.00    +0.000 A 
ATOM     30  C   UNL     1      -2.979  10.998  17.691  0.00  0.00    +0.000 A 
ATOM     31  C   UNL     1      -1.734  10.442  18.024  0.00  0.00    +0.000 A 
ATOM     32  H   UNL     1      -5.383  12.973  18.375  0.00  0.00    +0.000 HD
ENDBRANCH  20  23
ENDBRANCH  18  19
ENDBRANCH   4  18
TORSDOF 6
ENDMDL
MODEL 8
REMARK VINA RESULT:      -8.7      3.368     10.252
REMARK  Name = 
REMARK  7 active torsions:
REMARK  status: ('A' for Active; 'I' for Inactive)
REMARK    1  A    between atoms: C_1  and  O_2
REMARK    2  A    between atoms: O_2  and  C_3
REMARK    3  A    between atoms: C_7  and  S_8
REMARK    4  A    between atoms: S_8  and  C_11
REMARK    5  A    between atoms: C_14  and  C_15
REMARK    6  A    between atoms: C_15  and  N_16
REMARK    7  A    between atoms: C_17  and  C_19
REMARK                            x       y       z     vdW  Elec       q    Type
REMARK                         _______ _______ _______ _____ _____    ______ ____
ROOT
ATOM      1  C   UNL     1       2.639   5.430  19.123  0.00  0.00    +0.000 A 
ATOM      2  C   UNL     1       2.041   5.470  20.379  0.00  0.00    +0.000 A 
ATOM      3  C   UNL     1       1.551   6.687  20.849  0.00  0.00    +0.000 A 
ATOM      4  C   UNL     1       1.666   7.823  20.047  0.00  0.00    +0.000 A 
ATOM      5  N   UNL     1       2.262   7.789  18.823  0.00  0.00    +0.000 NA
ATOM      6  C   UNL     1       2.737   6.595  18.387  0.00  0.00    +0.000 A 
ENDROOT
BRANCH   1   7
ATOM      7  S   UNL     1       3.270   3.917  18.475  0.00  0.00    +0.000 S 
ATOM      8  O   UNL     1       2.412   3.564  17.359  0.00  0.00    +0.000 OA
ATOM      9  O   UNL     1       3.459   3.002  19.585  0.00  0.00    +0.000 OA
BRANCH   7  14
ATOM     10  C   UNL     1       6.411   4.254  15.956  0.00  0.00    +0.000 A 
ATOM     11  C   UNL     1       7.426   4.704  16.808  0.00  0.00    +0.000 A 
ATOM     12  C   UNL     1       7.175   4.940  18.162  0.00  0.00    +0.000 A 
ATOM     13  C   UNL     1       5.904   4.714  18.682  0.00  0.00    +0.000 A 
ATOM     14  C   UNL     1       4.892   4.259  17.832  0.00  0.00    +0.000 A 
ATOM     15  C   UNL     1       5.131   4.049  16.467  0.00  0.00    +0.000 A 
BRANCH  10  17
ATOM     16  C   UNL     1       5.778   4.025  13.673  0.00  0.00    +0.000 C 
ATOM     17  O   UNL     1       6.801   4.041  14.663  0.00  0.00    +0.000 OA
ENDBRANCH  10  17
ENDBRANCH   7  14
ENDBRANCH   1   7
BRANCH   4  18
ATOM     18  C   UNL     1       1.133   9.155  20.530  0.00  0.00    +0.000 C 
BRANCH  18  19
ATOM     19  N   UNL     1      -0.135   9.509  19.920  0.00  0.00    +0.000 N 
ATOM     20  C   UNL     1      -0.216  10.426  18.898  0.00  0.00    +0.000 C 
ATOM     21  O   UNL     1       0.759  11.006  18.431  0.00  0.00    +0.000 OA
ATOM     22  H   UNL     1      -0.910   8.883  20.100  0.00  0.00    +0.000 HD
BRANCH  20  23
ATOM     23  C   UNL     1      -1.569  10.680  18.343  0.00  0.00    +0.000 A 
ATOM     24  C   UNL     1      -1.901  10.117  17.111  0.00  0.00    +0.000 A 
ATOM     25  N   UNL     1      -3.097  10.244  16.474  0.00  0.00    +0.000 NA
ATOM     26  C   UNL     1      -3.966  11.013  17.158  0.00  0.00    +0.000 A 
ATOM     27  N   UNL     1      -5.241  11.324  16.784  0.00  0.00    +0.000 N 
ATOM     28  N   UNL     1      -5.884  12.128  17.660  0.00  0.00    +0.000 NA
ATOM     29  C   UNL     1      -4.972  12.325  18.619  0.00  0.00    +0.000 A 
ATOM     30  C   UNL     1      -3.756  11.649  18.372  0.00  0.00    +0.000 A 
ATOM     31  C   UNL     1      -2.510  11.489  18.996  0.00  0.00    +0.000 A 
ATOM     32  H   UNL     1      -5.722  11.016  15.946  0.00  0.00    +0.000 HD
ENDBRANCH  20  23
ENDBRANCH  18  19
ENDBRANCH   4  18
TORSDOF 6
ENDMDL
MODEL 9
REMARK VINA RESULT:      -8.7      2.139      3.112
REMARK  Name = 
REMARK  7 active torsions:
REMARK  status: ('A' for Active; 'I' for Inactive)
REMARK    1  A    between atoms: C_1  and  O_2
REMARK    2  A    between atoms: O_2  and  C_3
REMARK    3  A    between atoms: C_7  and  S_8
REMARK    4  A    between atoms: S_8  and  C_11
REMARK    5  A    between atoms: C_14  and  C_15
REMARK    6  A    between atoms: C_15  and  N_16
REMARK    7  A    between atoms: C_17  and  C_19
REMARK                            x       y       z     vdW  Elec       q    Type
REMARK                         _______ _______ _______ _____ _____    ______ ____
ROOT
ATOM      1  C   UNL     1      -0.195  10.913  19.689  0.00  0.00    +0.000 A 
ATOM      2  C   UNL     1       0.784  10.349  18.876  0.00  0.00    +0.000 A 
ATOM      3  C   UNL     1       1.383   9.156  19.278  0.00  0.00    +0.000 A 
ATOM      4  C   UNL     1       0.980   8.562  20.475  0.00  0.00    +0.000 A 
ATOM      5  N   UNL     1       0.033   9.119  21.279  0.00  0.00    +0.000 NA
ATOM      6  C   UNL     1      -0.534  10.282  20.871  0.00  0.00    +0.000 A 
ENDROOT
BRANCH   1   7
ATOM      7  S   UNL     1      -0.992  12.416  19.227  0.00  0.00    +0.000 S 
ATOM      8  O   UNL     1      -0.193  12.988  18.159  0.00  0.00    +0.000 OA
ATOM      9  O   UNL     1      -1.259  13.168  20.439  0.00  0.00    +0.000 OA
BRANCH   7  14
ATOM     10  C   UNL     1      -3.868  11.128  16.699  0.00  0.00    +0.000 A 
ATOM     11  C   UNL     1      -5.035  11.365  17.434  0.00  0.00    +0.000 A 
ATOM     12  C   UNL     1      -4.976  11.899  18.723  0.00  0.00    +0.000 A 
ATOM     13  C   UNL     1      -3.743  12.214  19.288  0.00  0.00    +0.000 A 
ATOM     14  C   UNL     1      -2.578  11.982  18.552  0.00  0.00    +0.000 A 
ATOM     15  C   UNL     1      -2.631  11.420  17.269  0.00  0.00    +0.000 A 
BRANCH  10  17
ATOM     16  C   UNL     1      -2.938  10.112  14.759  0.00  0.00    +0.000 C 
ATOM     17  O   UNL     1      -4.074  10.627  15.443  0.00  0.00    +0.000 OA
ENDBRANCH  10  17
ENDBRANCH   7  14
ENDBRANCH   1   7
BRANCH   4  18
ATOM     18  C   UNL     1       1.609   7.262  20.930  0.00  0.00    +0.000 C 
BRANCH  18  19
ATOM     19  N   UNL     1       2.602   6.760  19.998  0.00  0.00    +0.000 N 
ATOM     20  C   UNL     1       2.998   5.442  20.001  0.00  0.00    +0.000 C 
ATOM     21  O   UNL     1       2.552   4.604  20.778  0.00  0.00    +0.000 OA
ATOM     22  H   UNL     1       2.801   7.345  19.197  0.00  0.00    +0.000 HD
BRANCH  20  23
ATOM     23  C   UNL     1       4.000   5.051  18.980  0.00  0.00    +0.000 A 
ATOM     24  C   UNL     1       3.551   4.482  17.788  0.00  0.00    +0.000 A 
ATOM     25  N   UNL     1       4.336   4.080  16.751  0.00  0.00    +0.000 NA
ATOM     26  C   UNL     1       5.647   4.271  16.995  0.00  0.00    +0.000 A 
ATOM     27  N   UNL     1       6.679   3.974  16.152  0.00  0.00    +0.000 N 
ATOM     28  N   UNL     1       7.898   4.260  16.663  0.00  0.00    +0.000 NA
ATOM     29  C   UNL     1       7.613   4.755  17.872  0.00  0.00    +0.000 A 
ATOM     30  C   UNL     1       6.226   4.799  18.138  0.00  0.00    +0.000 A 
ATOM     31  C   UNL     1       5.379   5.203  19.182  0.00  0.00    +0.000 A 
ATOM     32  H   UNL     1       6.610   3.578  15.222  0.00  0.00    +0.000 HD
ENDBRANCH  20  23
ENDBRANCH  18  19
ENDBRANCH   4  18
TORSDOF 6
ENDMDL
