MODEL 1
REMARK VINA RESULT:      -7.0      0.000      0.000
REMARK  Name = 
REMARK  9 active torsions:
REMARK  status: ('A' for Active; 'I' for Inactive)
REMARK    1  A    between atoms: C_2  and  C_3
REMARK    2  A    between atoms: C_3  and  C_4
REMARK    3  A    between atoms: C_4  and  N_5
REMARK    4  A    between atoms: N_5  and  S_6
REMARK    5  A    between atoms: S_6  and  C_9
REMARK    6  A    between atoms: N_15  and  N_16
REMARK    7  A    between atoms: N_16  and  S_17
REMARK    8  A    between atoms: S_17  and  C_20
REMARK    9  A    between atoms: C_20  and  C_21
REMARK                            x       y       z     vdW  Elec       q    Type
REMARK                         _______ _______ _______ _____ _____    ______ ____
ROOT
ATOM      1  O   UNL     1       2.593   6.317  18.521  0.00  0.00    +0.000 OA
ATOM      2  C   UNL     1       2.287   6.447  19.708  0.00  0.00    +0.000 C 
ATOM      3  N   UNL     1       2.198   7.709  20.238  0.00  0.00    +0.000 N 
ATOM      4  H   UNL     1       2.126   8.446  19.530  0.00  0.00    +0.000 HD
ENDROOT
BRANCH   3   5
ATOM      5  N   UNL     1       1.544   7.990  21.543  0.00  0.00    +0.000 NA
ATOM      6  H   UNL     1       2.280   8.256  22.210  0.00  0.00    +0.000 HD
BRANCH   5   7
ATOM      7  S   UNL     1       0.504   9.394  21.453  0.00  0.00    +0.000 S 
ATOM      8  O   UNL     1      -0.799   8.908  21.857  0.00  0.00    +0.000 OA
ATOM      9  O   UNL     1       1.187  10.450  22.165  0.00  0.00    +0.000 OA
BRANCH   7  10
ATOM     10  C   UNL     1       0.532   9.715  19.675  0.00  0.00    +0.000 C 
BRANCH  10  11
ATOM     11  C   UNL     1      -0.674  10.523  19.310  0.00  0.00    +0.000 A 
ATOM     12  C   UNL     1      -1.171  11.654  19.933  0.00  0.00    +0.000 A 
ATOM     13  C   UNL     1      -2.364  12.135  19.315  0.00  0.00    +0.000 A 
ATOM     14  C   UNL     1      -2.711  11.361  18.239  0.00  0.00    +0.000 A 
ATOM     15 CL   UNL     1      -4.080  11.571  17.224  0.00  0.00    +0.000 Cl
ATOM     16  S   UNL     1      -1.628  10.096  17.945  0.00  0.00    +0.000 S 
ENDBRANCH  10  11
ENDBRANCH   7  10
ENDBRANCH   5   7
ENDBRANCH   3   5
BRANCH   2  17
ATOM     17  C   UNL     1       2.045   5.268  20.626  0.00  0.00    +0.000 C 
BRANCH  17  18
ATOM     18  C   UNL     1       1.780   4.031  19.771  0.00  0.00    +0.000 C 
BRANCH  18  19
ATOM     19  N   UNL     1       3.030   3.297  19.488  0.00  0.00    +0.000 NA
ATOM     20  H   UNL     1       3.237   2.494  20.088  0.00  0.00    +0.000 HD
BRANCH  19  21
ATOM     21  S   UNL     1       3.270   2.853  17.863  0.00  0.00    +0.000 S 
ATOM     22  O   UNL     1       3.648   1.457  17.866  0.00  0.00    +0.000 OA
ATOM     23  O   UNL     1       2.118   3.319  17.115  0.00  0.00    +0.000 OA
BRANCH  21  24
ATOM     24  C   UNL     1       4.685   3.818  17.418  0.00  0.00    +0.000 A 
ATOM     25  C   UNL     1       5.539   4.273  18.426  0.00  0.00    +0.000 A 
ATOM     26  C   UNL     1       6.602   5.111  18.089  0.00  0.00    +0.000 A 
ATOM     27  C   UNL     1       6.811   5.480  16.758  0.00  0.00    +0.000 A 
ATOM     28  C   UNL     1       5.966   5.000  15.755  0.00  0.00    +0.000 A 
ATOM     29  C   UNL     1       4.903   4.159  16.081  0.00  0.00    +0.000 A 
ENDBRANCH  21  24
ENDBRANCH  19  21
ENDBRANCH  18  19
ENDBRANCH  17  18
ENDBRANCH   2  17
TORSDOF 9
ENDMDL
MODEL 2
REMARK VINA RESULT:      -7.0      1.819      2.294
REMARK  Name = 
REMARK  9 active torsions:
REMARK  status: ('A' for Active; 'I' for Inactive)
REMARK    1  A    between atoms: C_2  and  C_3
REMARK    2  A    between atoms: C_3  and  C_4
REMARK    3  A    between atoms: C_4  and  N_5
REMARK    4  A    between atoms: N_5  and  S_6
REMARK    5  A    between atoms: S_6  and  C_9
REMARK    6  A    between atoms: N_15  and  N_16
REMARK    7  A    between atoms: N_16  and  S_17
REMARK    8  A    between atoms: S_17  and  C_20
REMARK    9  A    between atoms: C_20  and  C_21
REMARK                            x       y       z     vdW  Elec       q    Type
REMARK                         _______ _______ _______ _____ _____    ______ ____
ROOT
ATOM      1  O   UNL     1       2.075   4.346  21.484  0.00  0.00    +0.000 OA
ATOM      2  C   UNL     1       1.814   5.309  20.762  0.00  0.00    +0.000 C 
ATOM      3  N   UNL     1       1.773   6.564  21.315  0.00  0.00    +0.000 N 
ATOM      4  H   UNL     1       2.232   6.624  22.228  0.00  0.00    +0.000 HD
ENDROOT
BRANCH   3   5
ATOM      5  N   UNL     1       1.779   7.805  20.496  0.00  0.00    +0.000 NA
ATOM      6  H   UNL     1       1.247   7.614  19.637  0.00  0.00    +0.000 HD
BRANCH   5   7
ATOM      7  S   UNL     1       0.898   9.097  21.280  0.00  0.00    +0.000 S 
ATOM      8  O   UNL     1      -0.475   8.640  21.302  0.00  0.00    +0.000 OA
ATOM      9  O   UNL     1       1.627   9.410  22.489  0.00  0.00    +0.000 OA
BRANCH   7  10
ATOM     10  C   UNL     1       1.100  10.421  20.065  0.00  0.00    +0.000 C 
BRANCH  10  11
ATOM     11  C   UNL     1      -0.114  10.465  19.192  0.00  0.00    +0.000 A 
ATOM     12  C   UNL     1      -0.365   9.753  18.032  0.00  0.00    +0.000 A 
ATOM     13  C   UNL     1      -1.628  10.082  17.454  0.00  0.00    +0.000 A 
ATOM     14  C   UNL     1      -2.290  11.015  18.209  0.00  0.00    +0.000 A 
ATOM     15 CL   UNL     1      -3.826  11.704  17.873  0.00  0.00    +0.000 Cl
ATOM     16  S   UNL     1      -1.443  11.478  19.598  0.00  0.00    +0.000 S 
ENDBRANCH  10  11
ENDBRANCH   7  10
ENDBRANCH   5   7
ENDBRANCH   3   5
BRANCH   2  17
ATOM     17  C   UNL     1       1.493   5.166  19.289  0.00  0.00    +0.000 C 
BRANCH  17  18
ATOM     18  C   UNL     1       2.800   5.002  18.519  0.00  0.00    +0.000 C 
BRANCH  18  19
ATOM     19  N   UNL     1       3.951   5.492  19.304  0.00  0.00    +0.000 NA
ATOM     20  H   UNL     1       3.817   5.570  20.316  0.00  0.00    +0.000 HD
BRANCH  19  21
ATOM     21  S   UNL     1       5.434   4.716  18.998  0.00  0.00    +0.000 S 
ATOM     22  O   UNL     1       6.464   5.544  19.586  0.00  0.00    +0.000 OA
ATOM     23  O   UNL     1       5.278   3.325  19.377  0.00  0.00    +0.000 OA
BRANCH  21  24
ATOM     24  C   UNL     1       5.558   4.832  17.236  0.00  0.00    +0.000 A 
ATOM     25  C   UNL     1       5.866   3.684  16.501  0.00  0.00    +0.000 A 
ATOM     26  C   UNL     1       6.055   3.790  15.123  0.00  0.00    +0.000 A 
ATOM     27  C   UNL     1       5.929   5.028  14.490  0.00  0.00    +0.000 A 
ATOM     28  C   UNL     1       5.596   6.166  15.230  0.00  0.00    +0.000 A 
ATOM     29  C   UNL     1       5.401   6.069  16.607  0.00  0.00    +0.000 A 
ENDBRANCH  21  24
ENDBRANCH  19  21
ENDBRANCH  18  19
ENDBRANCH  17  18
ENDBRANCH   2  17
TORSDOF 9
ENDMDL
MODEL 3
REMARK VINA RESULT:      -6.9      1.689      2.143
REMARK  Name = 
REMARK  9 active torsions:
REMARK  status: ('A' for Active; 'I' for Inactive)
REMARK    1  A    between atoms: C_2  and  C_3
REMARK    2  A    between atoms: C_3  and  C_4
REMARK    3  A    between atoms: C_4  and  N_5
REMARK    4  A    between atoms: N_5  and  S_6
REMARK    5  A    between atoms: S_6  and  C_9
REMARK    6  A    between atoms: N_15  and  N_16
REMARK    7  A    between atoms: N_16  and  S_17
REMARK    8  A    between atoms: S_17  and  C_20
REMARK    9  A    between atoms: C_20  and  C_21
REMARK                            x       y       z     vdW  Elec       q    Type
REMARK                         _______ _______ _______ _____ _____    ______ ____
ROOT
ATOM      1  O   UNL     1       1.828   5.228  20.080  0.00  0.00    +0.000 OA
ATOM      2  C   UNL     1       1.916   6.457  20.110  0.00  0.00    +0.000 C 
ATOM      3  N   UNL     1       1.510   7.126  21.236  0.00  0.00    +0.000 N 
ATOM      4  H   UNL     1       1.423   6.525  22.060  0.00  0.00    +0.000 HD
ENDROOT
BRANCH   3   5
ATOM      5  N   UNL     1       1.858   8.548  21.496  0.00  0.00    +0.000 NA
ATOM      6  H   UNL     1       2.080   8.986  20.592  0.00  0.00    +0.000 HD
BRANCH   5   7
ATOM      7  S   UNL     1       0.483   9.448  22.094  0.00  0.00    +0.000 S 
ATOM      8  O   UNL     1      -0.669   8.709  21.621  0.00  0.00    +0.000 OA
ATOM      9  O   UNL     1       0.728   9.676  23.501  0.00  0.00    +0.000 OA
BRANCH   7  10
ATOM     10  C   UNL     1       0.665  10.989  21.167  0.00  0.00    +0.000 C 
BRANCH  10  11
ATOM     11  C   UNL     1      -0.368  11.028  20.085  0.00  0.00    +0.000 A 
ATOM     12  C   UNL     1      -1.579  11.697  20.076  0.00  0.00    +0.000 A 
ATOM     13  C   UNL     1      -2.315  11.474  18.874  0.00  0.00    +0.000 A 
ATOM     14  C   UNL     1      -1.624  10.661  18.014  0.00  0.00    +0.000 A 
ATOM     15 CL   UNL     1      -2.146  10.123  16.469  0.00  0.00    +0.000 Cl
ATOM     16  S   UNL     1      -0.113  10.187  18.607  0.00  0.00    +0.000 S 
ENDBRANCH  10  11
ENDBRANCH   7  10
ENDBRANCH   5   7
ENDBRANCH   3   5
BRANCH   2  17
ATOM     17  C   UNL     1       2.417   7.271  18.935  0.00  0.00    +0.000 C 
BRANCH  17  18
ATOM     18  C   UNL     1       3.214   6.354  18.011  0.00  0.00    +0.000 C 
BRANCH  18  19
ATOM     19  N   UNL     1       4.476   5.920  18.643  0.00  0.00    +0.000 NA
ATOM     20  H   UNL     1       4.563   6.076  19.651  0.00  0.00    +0.000 HD
BRANCH  19  21
ATOM     21  S   UNL     1       4.972   4.333  18.283  0.00  0.00    +0.000 S 
ATOM     22  O   UNL     1       6.021   4.003  19.222  0.00  0.00    +0.000 OA
ATOM     23  O   UNL     1       3.774   3.522  18.176  0.00  0.00    +0.000 OA
BRANCH  21  24
ATOM     24  C   UNL     1       5.693   4.524  16.678  0.00  0.00    +0.000 A 
ATOM     25  C   UNL     1       4.945   4.171  15.552  0.00  0.00    +0.000 A 
ATOM     26  C   UNL     1       5.542   4.232  14.292  0.00  0.00    +0.000 A 
ATOM     27  C   UNL     1       6.868   4.651  14.164  0.00  0.00    +0.000 A 
ATOM     28  C   UNL     1       7.600   5.026  15.293  0.00  0.00    +0.000 A 
ATOM     29  C   UNL     1       7.011   4.972  16.555  0.00  0.00    +0.000 A 
ENDBRANCH  21  24
ENDBRANCH  19  21
ENDBRANCH  18  19
ENDBRANCH  17  18
ENDBRANCH   2  17
TORSDOF 9
ENDMDL
MODEL 4
REMARK VINA RESULT:      -6.8      4.561      6.264
REMARK  Name = 
REMARK  9 active torsions:
REMARK  status: ('A' for Active; 'I' for Inactive)
REMARK    1  A    between atoms: C_2  and  C_3
REMARK    2  A    between atoms: C_3  and  C_4
REMARK    3  A    between atoms: C_4  and  N_5
REMARK    4  A    between atoms: N_5  and  S_6
REMARK    5  A    between atoms: S_6  and  C_9
REMARK    6  A    between atoms: N_15  and  N_16
REMARK    7  A    between atoms: N_16  and  S_17
REMARK    8  A    between atoms: S_17  and  C_20
REMARK    9  A    between atoms: C_20  and  C_21
REMARK                            x       y       z     vdW  Elec       q    Type
REMARK                         _______ _______ _______ _____ _____    ______ ____
ROOT
ATOM      1  O   UNL     1       7.972   5.173  19.646  0.00  0.00    +0.000 OA
ATOM      2  C   UNL     1       6.869   5.089  19.102  0.00  0.00    +0.000 C 
ATOM      3  N   UNL     1       6.170   3.912  19.193  0.00  0.00    +0.000 N 
ATOM      4  H   UNL     1       6.504   3.294  19.938  0.00  0.00    +0.000 HD
ENDROOT
BRANCH   3   5
ATOM      5  N   UNL     1       4.726   3.806  18.854  0.00  0.00    +0.000 NA
ATOM      6  H   UNL     1       4.652   3.707  17.832  0.00  0.00    +0.000 HD
BRANCH   5   7
ATOM      7  S   UNL     1       4.023   2.335  19.489  0.00  0.00    +0.000 S 
ATOM      8  O   UNL     1       3.808   1.503  18.324  0.00  0.00    +0.000 OA
ATOM      9  O   UNL     1       4.869   1.922  20.586  0.00  0.00    +0.000 OA
BRANCH   7  10
ATOM     10  C   UNL     1       2.447   2.964  20.113  0.00  0.00    +0.000 C 
BRANCH  10  11
ATOM     11  C   UNL     1       2.250   4.359  19.609  0.00  0.00    +0.000 A 
ATOM     12  C   UNL     1       2.187   4.800  18.299  0.00  0.00    +0.000 A 
ATOM     13  C   UNL     1       2.017   6.214  18.208  0.00  0.00    +0.000 A 
ATOM     14  C   UNL     1       1.939   6.784  19.452  0.00  0.00    +0.000 A 
ATOM     15 CL   UNL     1       1.753   8.454  19.804  0.00  0.00    +0.000 Cl
ATOM     16  S   UNL     1       2.039   5.661  20.713  0.00  0.00    +0.000 S 
ENDBRANCH  10  11
ENDBRANCH   7  10
ENDBRANCH   5   7
ENDBRANCH   3   5
BRANCH   2  17
ATOM     17  C   UNL     1       6.264   6.220  18.296  0.00  0.00    +0.000 C 
BRANCH  17  18
ATOM     18  C   UNL     1       7.256   6.629  17.211  0.00  0.00    +0.000 C 
BRANCH  18  19
ATOM     19  N   UNL     1       7.224   5.688  16.072  0.00  0.00    +0.000 NA
ATOM     20  H   UNL     1       7.671   4.779  16.215  0.00  0.00    +0.000 HD
BRANCH  19  21
ATOM     21  S   UNL     1       5.699   5.452  15.356  0.00  0.00    +0.000 S 
ATOM     22  O   UNL     1       5.006   4.479  16.170  0.00  0.00    +0.000 OA
ATOM     23  O   UNL     1       5.134   6.764  15.104  0.00  0.00    +0.000 OA
BRANCH  21  24
ATOM     24  C   UNL     1       6.126   4.694  13.814  0.00  0.00    +0.000 A 
ATOM     25  C   UNL     1       5.288   3.706  13.290  0.00  0.00    +0.000 A 
ATOM     26  C   UNL     1       5.668   3.042  12.124  0.00  0.00    +0.000 A 
ATOM     27  C   UNL     1       6.867   3.370  11.488  0.00  0.00    +0.000 A 
ATOM     28  C   UNL     1       7.686   4.376  12.007  0.00  0.00    +0.000 A 
ATOM     29  C   UNL     1       7.313   5.048  13.169  0.00  0.00    +0.000 A 
ENDBRANCH  21  24
ENDBRANCH  19  21
ENDBRANCH  18  19
ENDBRANCH  17  18
ENDBRANCH   2  17
TORSDOF 9
ENDMDL
MODEL 5
REMARK VINA RESULT:      -6.7      4.649      7.941
REMARK  Name = 
REMARK  9 active torsions:
REMARK  status: ('A' for Active; 'I' for Inactive)
REMARK    1  A    between atoms: C_2  and  C_3
REMARK    2  A    between atoms: C_3  and  C_4
REMARK    3  A    between atoms: C_4  and  N_5
REMARK    4  A    between atoms: N_5  and  S_6
REMARK    5  A    between atoms: S_6  and  C_9
REMARK    6  A    between atoms: N_15  and  N_16
REMARK    7  A    between atoms: N_16  and  S_17
REMARK    8  A    between atoms: S_17  and  C_20
REMARK    9  A    between atoms: C_20  and  C_21
REMARK                            x       y       z     vdW  Elec       q    Type
REMARK                         _______ _______ _______ _____ _____    ______ ____
ROOT
ATOM      1  O   UNL     1       2.407   2.712  17.110  0.00  0.00    +0.000 OA
ATOM      2  C   UNL     1       3.516   2.627  17.641  0.00  0.00    +0.000 C 
ATOM      3  N   UNL     1       4.525   3.451  17.211  0.00  0.00    +0.000 N 
ATOM      4  H   UNL     1       4.194   4.256  16.672  0.00  0.00    +0.000 HD
ENDROOT
BRANCH   3   5
ATOM      5  N   UNL     1       5.783   3.649  17.977  0.00  0.00    +0.000 NA
ATOM      6  H   UNL     1       6.384   2.831  17.808  0.00  0.00    +0.000 HD
BRANCH   5   7
ATOM      7  S   UNL     1       6.704   5.004  17.363  0.00  0.00    +0.000 S 
ATOM      8  O   UNL     1       6.645   5.992  18.419  0.00  0.00    +0.000 OA
ATOM      9  O   UNL     1       7.956   4.460  16.885  0.00  0.00    +0.000 OA
BRANCH   7  10
ATOM     10  C   UNL     1       5.666   5.507  15.971  0.00  0.00    +0.000 C 
BRANCH  10  11
ATOM     11  C   UNL     1       6.282   5.005  14.703  0.00  0.00    +0.000 A 
ATOM     12  C   UNL     1       7.393   5.491  14.035  0.00  0.00    +0.000 A 
ATOM     13  C   UNL     1       7.665   4.768  12.835  0.00  0.00    +0.000 A 
ATOM     14  C   UNL     1       6.763   3.754  12.652  0.00  0.00    +0.000 A 
ATOM     15 CL   UNL     1       6.709   2.654  11.335  0.00  0.00    +0.000 Cl
ATOM     16  S   UNL     1       5.621   3.638  13.895  0.00  0.00    +0.000 S 
ENDBRANCH  10  11
ENDBRANCH   7  10
ENDBRANCH   5   7
ENDBRANCH   3   5
BRANCH   2  17
ATOM     17  C   UNL     1       3.830   1.618  18.726  0.00  0.00    +0.000 C 
BRANCH  17  18
ATOM     18  C   UNL     1       3.614   2.280  20.084  0.00  0.00    +0.000 C 
BRANCH  18  19
ATOM     19  N   UNL     1       3.523   3.749  19.957  0.00  0.00    +0.000 NA
ATOM     20  H   UNL     1       3.706   4.142  19.030  0.00  0.00    +0.000 HD
BRANCH  19  21
ATOM     21  S   UNL     1       2.112   4.456  20.592  0.00  0.00    +0.000 S 
ATOM     22  O   UNL     1       0.996   3.726  20.034  0.00  0.00    +0.000 OA
ATOM     23  O   UNL     1       2.295   4.570  22.026  0.00  0.00    +0.000 OA
BRANCH  21  24
ATOM     24  C   UNL     1       2.146   6.071  19.868  0.00  0.00    +0.000 A 
ATOM     25  C   UNL     1       1.625   7.148  20.589  0.00  0.00    +0.000 A 
ATOM     26  C   UNL     1       1.566   8.405  19.987  0.00  0.00    +0.000 A 
ATOM     27  C   UNL     1       2.032   8.580  18.682  0.00  0.00    +0.000 A 
ATOM     28  C   UNL     1       2.575   7.502  17.978  0.00  0.00    +0.000 A 
ATOM     29  C   UNL     1       2.642   6.243  18.574  0.00  0.00    +0.000 A 
ENDBRANCH  21  24
ENDBRANCH  19  21
ENDBRANCH  18  19
ENDBRANCH  17  18
ENDBRANCH   2  17
TORSDOF 9
ENDMDL
MODEL 6
REMARK VINA RESULT:      -6.6      1.434      1.856
REMARK  Name = 
REMARK  9 active torsions:
REMARK  status: ('A' for Active; 'I' for Inactive)
REMARK    1  A    between atoms: C_2  and  C_3
REMARK    2  A    between atoms: C_3  and  C_4
REMARK    3  A    between atoms: C_4  and  N_5
REMARK    4  A    between atoms: N_5  and  S_6
REMARK    5  A    between atoms: S_6  and  C_9
REMARK    6  A    between atoms: N_15  and  N_16
REMARK    7  A    between atoms: N_16  and  S_17
REMARK    8  A    between atoms: S_17  and  C_20
REMARK    9  A    between atoms: C_20  and  C_21
REMARK                            x       y       z     vdW  Elec       q    Type
REMARK                         _______ _______ _______ _____ _____    ______ ____
ROOT
ATOM      1  O   UNL     1       3.074   6.624  17.927  0.00  0.00    +0.000 OA
ATOM      2  C   UNL     1       2.381   6.350  18.908  0.00  0.00    +0.000 C 
ATOM      3  N   UNL     1       2.486   7.124  20.035  0.00  0.00    +0.000 N 
ATOM      4  H   UNL     1       2.932   8.031  19.869  0.00  0.00    +0.000 HD
ENDROOT
BRANCH   3   5
ATOM      5  N   UNL     1       1.491   7.078  21.139  0.00  0.00    +0.000 NA
ATOM      6  H   UNL     1       1.991   6.820  22.000  0.00  0.00    +0.000 HD
BRANCH   5   7
ATOM      7  S   UNL     1       0.828   8.662  21.475  0.00  0.00    +0.000 S 
ATOM      8  O   UNL     1      -0.568   8.416  21.770  0.00  0.00    +0.000 OA
ATOM      9  O   UNL     1       1.720   9.281  22.430  0.00  0.00    +0.000 OA
BRANCH   7  10
ATOM     10  C   UNL     1       1.001   9.445  19.855  0.00  0.00    +0.000 C 
BRANCH  10  11
ATOM     11  C   UNL     1      -0.096  10.448  19.683  0.00  0.00    +0.000 A 
ATOM     12  C   UNL     1      -1.124  10.449  18.757  0.00  0.00    +0.000 A 
ATOM     13  C   UNL     1      -1.969  11.592  18.882  0.00  0.00    +0.000 A 
ATOM     14  C   UNL     1      -1.558  12.401  19.909  0.00  0.00    +0.000 A 
ATOM     15 CL   UNL     1      -2.273  13.885  20.395  0.00  0.00    +0.000 Cl
ATOM     16  S   UNL     1      -0.206  11.806  20.734  0.00  0.00    +0.000 S 
ENDBRANCH  10  11
ENDBRANCH   7  10
ENDBRANCH   5   7
ENDBRANCH   3   5
BRANCH   2  17
ATOM     17  C   UNL     1       1.442   5.162  18.942  0.00  0.00    +0.000 C 
BRANCH  17  18
ATOM     18  C   UNL     1       1.978   4.146  19.948  0.00  0.00    +0.000 C 
BRANCH  18  19
ATOM     19  N   UNL     1       3.452   4.193  20.025  0.00  0.00    +0.000 NA
ATOM     20  H   UNL     1       3.862   4.251  20.961  0.00  0.00    +0.000 HD
BRANCH  19  21
ATOM     21  S   UNL     1       4.273   2.999  19.131  0.00  0.00    +0.000 S 
ATOM     22  O   UNL     1       5.200   2.366  20.042  0.00  0.00    +0.000 OA
ATOM     23  O   UNL     1       3.270   2.229  18.420  0.00  0.00    +0.000 OA
BRANCH  21  24
ATOM     24  C   UNL     1       5.195   3.969  17.974  0.00  0.00    +0.000 A 
ATOM     25  C   UNL     1       4.895   3.867  16.613  0.00  0.00    +0.000 A 
ATOM     26  C   UNL     1       5.680   4.558  15.690  0.00  0.00    +0.000 A 
ATOM     27  C   UNL     1       6.745   5.349  16.127  0.00  0.00    +0.000 A 
ATOM     28  C   UNL     1       7.021   5.465  17.492  0.00  0.00    +0.000 A 
ATOM     29  C   UNL     1       6.240   4.780  18.421  0.00  0.00    +0.000 A 
ENDBRANCH  21  24
ENDBRANCH  19  21
ENDBRANCH  18  19
ENDBRANCH  17  18
ENDBRANCH   2  17
TORSDOF 9
ENDMDL
MODEL 7
REMARK VINA RESULT:      -6.6      0.961      1.415
REMARK  Name = 
REMARK  9 active torsions:
REMARK  status: ('A' for Active; 'I' for Inactive)
REMARK    1  A    between atoms: C_2  and  C_3
REMARK    2  A    between atoms: C_3  and  C_4
REMARK    3  A    between atoms: C_4  and  N_5
REMARK    4  A    between atoms: N_5  and  S_6
REMARK    5  A    between atoms: S_6  and  C_9
REMARK    6  A    between atoms: N_15  and  N_16
REMARK    7  A    between atoms: N_16  and  S_17
REMARK    8  A    between atoms: S_17  and  C_20
REMARK    9  A    between atoms: C_20  and  C_21
REMARK                            x       y       z     vdW  Elec       q    Type
REMARK                         _______ _______ _______ _____ _____    ______ ____
ROOT
ATOM      1  O   UNL     1       3.087   6.544  18.996  0.00  0.00    +0.000 OA
ATOM      2  C   UNL     1       2.263   6.597  19.910  0.00  0.00    +0.000 C 
ATOM      3  N   UNL     1       1.874   7.823  20.386  0.00  0.00    +0.000 N 
ATOM      4  H   UNL     1       2.097   8.597  19.754  0.00  0.00    +0.000 HD
ENDROOT
BRANCH   3   5
ATOM      5  N   UNL     1       0.678   8.009  21.250  0.00  0.00    +0.000 NA
ATOM      6  H   UNL     1       0.747   7.337  22.026  0.00  0.00    +0.000 HD
BRANCH   5   7
ATOM      7  S   UNL     1       0.682   9.577  22.026  0.00  0.00    +0.000 S 
ATOM      8  O   UNL     1      -0.686   9.772  22.457  0.00  0.00    +0.000 OA
ATOM      9  O   UNL     1       1.789   9.566  22.956  0.00  0.00    +0.000 OA
BRANCH   7  10
ATOM     10  C   UNL     1       1.056  10.644  20.616  0.00  0.00    +0.000 C 
BRANCH  10  11
ATOM     11  C   UNL     1      -0.224  11.210  20.085  0.00  0.00    +0.000 A 
ATOM     12  C   UNL     1      -0.896  12.348  20.496  0.00  0.00    +0.000 A 
ATOM     13  C   UNL     1      -2.107  12.556  19.769  0.00  0.00    +0.000 A 
ATOM     14  C   UNL     1      -2.293  11.579  18.827  0.00  0.00    +0.000 A 
ATOM     15 CL   UNL     1      -3.622  11.433  17.750  0.00  0.00    +0.000 Cl
ATOM     16  S   UNL     1      -1.041  10.443  18.781  0.00  0.00    +0.000 S 
ENDBRANCH  10  11
ENDBRANCH   7  10
ENDBRANCH   5   7
ENDBRANCH   3   5
BRANCH   2  17
ATOM     17  C   UNL     1       1.687   5.360  20.567  0.00  0.00    +0.000 C 
BRANCH  17  18
ATOM     18  C   UNL     1       2.734   4.249  20.515  0.00  0.00    +0.000 C 
BRANCH  18  19
ATOM     19  N   UNL     1       2.679   3.520  19.232  0.00  0.00    +0.000 NA
ATOM     20  H   UNL     1       2.324   4.038  18.424  0.00  0.00    +0.000 HD
BRANCH  19  21
ATOM     21  S   UNL     1       4.105   2.705  18.788  0.00  0.00    +0.000 S 
ATOM     22  O   UNL     1       4.830   2.442  20.011  0.00  0.00    +0.000 OA
ATOM     23  O   UNL     1       3.724   1.630  17.892  0.00  0.00    +0.000 OA
BRANCH  21  24
ATOM     24  C   UNL     1       4.974   3.947  17.874  0.00  0.00    +0.000 A 
ATOM     25  C   UNL     1       4.636   4.166  16.536  0.00  0.00    +0.000 A 
ATOM     26  C   UNL     1       5.380   5.078  15.788  0.00  0.00    +0.000 A 
ATOM     27  C   UNL     1       6.443   5.768  16.376  0.00  0.00    +0.000 A 
ATOM     28  C   UNL     1       6.757   5.561  17.721  0.00  0.00    +0.000 A 
ATOM     29  C   UNL     1       6.017   4.654  18.478  0.00  0.00    +0.000 A 
ENDBRANCH  21  24
ENDBRANCH  19  21
ENDBRANCH  18  19
ENDBRANCH  17  18
ENDBRANCH   2  17
TORSDOF 9
ENDMDL
MODEL 8
REMARK VINA RESULT:      -6.6      2.384      2.725
REMARK  Name = 
REMARK  9 active torsions:
REMARK  status: ('A' for Active; 'I' for Inactive)
REMARK    1  A    between atoms: C_2  and  C_3
REMARK    2  A    between atoms: C_3  and  C_4
REMARK    3  A    between atoms: C_4  and  N_5
REMARK    4  A    between atoms: N_5  and  S_6
REMARK    5  A    between atoms: S_6  and  C_9
REMARK    6  A    between atoms: N_15  and  N_16
REMARK    7  A    between atoms: N_16  and  S_17
REMARK    8  A    between atoms: S_17  and  C_20
REMARK    9  A    between atoms: C_20  and  C_21
REMARK                            x       y       z     vdW  Elec       q    Type
REMARK                         _______ _______ _______ _____ _____    ______ ____
ROOT
ATOM      1  O   UNL     1       2.053   8.933  17.216  0.00  0.00    +0.000 OA
ATOM      2  C   UNL     1       2.153   8.400  18.322  0.00  0.00    +0.000 C 
ATOM      3  N   UNL     1       1.503   8.959  19.393  0.00  0.00    +0.000 N 
ATOM      4  H   UNL     1       0.766   9.618  19.125  0.00  0.00    +0.000 HD
ENDROOT
BRANCH   3   5
ATOM      5  N   UNL     1       1.302   8.239  20.678  0.00  0.00    +0.000 NA
ATOM      6  H   UNL     1       2.217   8.170  21.143  0.00  0.00    +0.000 HD
BRANCH   5   7
ATOM      7  S   UNL     1       0.314   9.164  21.786  0.00  0.00    +0.000 S 
ATOM      8  O   UNL     1      -0.739   8.253  22.182  0.00  0.00    +0.000 OA
ATOM      9  O   UNL     1       1.223   9.755  22.743  0.00  0.00    +0.000 OA
BRANCH   7  10
ATOM     10  C   UNL     1      -0.337  10.431  20.672  0.00  0.00    +0.000 C 
BRANCH  10  11
ATOM     11  C   UNL     1      -0.429  11.727  21.416  0.00  0.00    +0.000 A 
ATOM     12  C   UNL     1       0.269  12.900  21.188  0.00  0.00    +0.000 A 
ATOM     13  C   UNL     1      -0.067  13.923  22.125  0.00  0.00    +0.000 A 
ATOM     14  C   UNL     1      -1.016  13.490  23.012  0.00  0.00    +0.000 A 
ATOM     15 CL   UNL     1      -1.691  14.386  24.312  0.00  0.00    +0.000 Cl
ATOM     16  S   UNL     1      -1.527  11.902  22.728  0.00  0.00    +0.000 S 
ENDBRANCH  10  11
ENDBRANCH   7  10
ENDBRANCH   5   7
ENDBRANCH   3   5
BRANCH   2  17
ATOM     17  C   UNL     1       3.004   7.171  18.565  0.00  0.00    +0.000 C 
BRANCH  17  18
ATOM     18  C   UNL     1       2.275   5.955  17.998  0.00  0.00    +0.000 C 
BRANCH  18  19
ATOM     19  N   UNL     1       2.406   4.785  18.890  0.00  0.00    +0.000 NA
ATOM     20  H   UNL     1       1.584   4.538  19.448  0.00  0.00    +0.000 HD
BRANCH  19  21
ATOM     21  S   UNL     1       3.033   3.377  18.169  0.00  0.00    +0.000 S 
ATOM     22  O   UNL     1       3.203   2.410  19.230  0.00  0.00    +0.000 OA
ATOM     23  O   UNL     1       2.212   3.086  17.009  0.00  0.00    +0.000 OA
BRANCH  21  24
ATOM     24  C   UNL     1       4.632   3.913  17.634  0.00  0.00    +0.000 A 
ATOM     25  C   UNL     1       5.563   4.330  18.590  0.00  0.00    +0.000 A 
ATOM     26  C   UNL     1       6.790   4.840  18.166  0.00  0.00    +0.000 A 
ATOM     27  C   UNL     1       7.084   4.921  16.803  0.00  0.00    +0.000 A 
ATOM     28  C   UNL     1       6.157   4.479  15.856  0.00  0.00    +0.000 A 
ATOM     29  C   UNL     1       4.929   3.964  16.270  0.00  0.00    +0.000 A 
ENDBRANCH  21  24
ENDBRANCH  19  21
ENDBRANCH  18  19
ENDBRANCH  17  18
ENDBRANCH   2  17
TORSDOF 9
ENDMDL
MODEL 9
REMARK VINA RESULT:      -6.6      2.412      3.375
REMARK  Name = 
REMARK  9 active torsions:
REMARK  status: ('A' for Active; 'I' for Inactive)
REMARK    1  A    between atoms: C_2  and  C_3
REMARK    2  A    between atoms: C_3  and  C_4
REMARK    3  A    between atoms: C_4  and  N_5
REMARK    4  A    between atoms: N_5  and  S_6
REMARK    5  A    between atoms: S_6  and  C_9
REMARK    6  A    between atoms: N_15  and  N_16
REMARK    7  A    between atoms: N_16  and  S_17
REMARK    8  A    between atoms: S_17  and  C_20
REMARK    9  A    between atoms: C_20  and  C_21
REMARK                            x       y       z     vdW  Elec       q    Type
REMARK                         _______ _______ _______ _____ _____    ______ ____
ROOT
ATOM      1  O   UNL     1       2.800   8.861  16.951  0.00  0.00    +0.000 OA
ATOM      2  C   UNL     1       2.329   8.659  18.071  0.00  0.00    +0.000 C 
ATOM      3  N   UNL     1       1.680   9.680  18.716  0.00  0.00    +0.000 N 
ATOM      4  H   UNL     1       1.404  10.446  18.094  0.00  0.00    +0.000 HD
ENDROOT
BRANCH   3   5
ATOM      5  N   UNL     1       0.818   9.462  19.908  0.00  0.00    +0.000 NA
ATOM      6  H   UNL     1       1.416   9.097  20.662  0.00  0.00    +0.000 HD
BRANCH   5   7
ATOM      7  S   UNL     1       0.193  10.970  20.535  0.00  0.00    +0.000 S 
ATOM      8  O   UNL     1      -0.994  10.593  21.273  0.00  0.00    +0.000 OA
ATOM      9  O   UNL     1       1.309  11.643  21.161  0.00  0.00    +0.000 OA
BRANCH   7  10
ATOM     10  C   UNL     1      -0.262  11.806  18.998  0.00  0.00    +0.000 C 
BRANCH  10  11
ATOM     11  C   UNL     1      -1.557  11.239  18.504  0.00  0.00    +0.000 A 
ATOM     12  C   UNL     1      -1.760  10.122  17.714  0.00  0.00    +0.000 A 
ATOM     13  C   UNL     1      -3.140   9.906  17.422  0.00  0.00    +0.000 A 
ATOM     14  C   UNL     1      -3.927  10.857  18.018  0.00  0.00    +0.000 A 
ATOM     15 CL   UNL     1      -5.636  10.986  17.914  0.00  0.00    +0.000 Cl
ATOM     16  S   UNL     1      -3.050  11.977  18.933  0.00  0.00    +0.000 S 
ENDBRANCH  10  11
ENDBRANCH   7  10
ENDBRANCH   5   7
ENDBRANCH   3   5
BRANCH   2  17
ATOM     17  C   UNL     1       2.472   7.335  18.793  0.00  0.00    +0.000 C 
BRANCH  17  18
ATOM     18  C   UNL     1       3.063   6.313  17.825  0.00  0.00    +0.000 C 
BRANCH  18  19
ATOM     19  N   UNL     1       4.391   5.850  18.277  0.00  0.00    +0.000 NA
ATOM     20  H   UNL     1       4.770   6.293  19.118  0.00  0.00    +0.000 HD
BRANCH  19  21
ATOM     21  S   UNL     1       4.577   4.163  18.405  0.00  0.00    +0.000 S 
ATOM     22  O   UNL     1       4.683   3.655  17.056  0.00  0.00    +0.000 OA
ATOM     23  O   UNL     1       5.617   3.919  19.386  0.00  0.00    +0.000 OA
BRANCH  21  24
ATOM     24  C   UNL     1       3.015   3.666  19.072  0.00  0.00    +0.000 A 
ATOM     25  C   UNL     1       2.739   3.925  20.417  0.00  0.00    +0.000 A 
ATOM     26  C   UNL     1       1.548   3.453  20.970  0.00  0.00    +0.000 A 
ATOM     27  C   UNL     1       0.643   2.739  20.182  0.00  0.00    +0.000 A 
ATOM     28  C   UNL     1       0.917   2.507  18.832  0.00  0.00    +0.000 A 
ATOM     29  C   UNL     1       2.102   2.978  18.270  0.00  0.00    +0.000 A 
ENDBRANCH  21  24
ENDBRANCH  19  21
ENDBRANCH  18  19
ENDBRANCH  17  18
ENDBRANCH   2  17
TORSDOF 9
ENDMDL
