MODEL 1
REMARK VINA RESULT:      -8.5      0.000      0.000
REMARK  Name = 
REMARK  4 active torsions:
REMARK  status: ('A' for Active; 'I' for Inactive)
REMARK    1  A    between atoms: C_1  and  S_2
REMARK    2  A    between atoms: S_2  and  N_5
REMARK    3  A    between atoms: N_12  and  C_13
REMARK    4  A    between atoms: C_13  and  C_14
REMARK                            x       y       z     vdW  Elec       q    Type
REMARK                         _______ _______ _______ _____ _____    ______ ____
ROOT
ATOM      1  N   UNL     1       3.665   4.644  19.169  0.00  0.00    +0.000 NA
ATOM      2  C   UNL     1       4.603   3.585  18.756  0.00  0.00    +0.000 C 
ATOM      3  C   UNL     1       4.884   3.649  17.263  0.00  0.00    +0.000 C 
ATOM      4  C   UNL     1       5.366   5.032  16.743  0.00  0.00    +0.000 C 
ATOM      5  C   UNL     1       4.376   6.103  17.273  0.00  0.00    +0.000 C 
ATOM      6  C   UNL     1       4.060   6.013  18.761  0.00  0.00    +0.000 C 
ATOM      7  C   UNL     1       5.212   4.971  15.187  0.00  0.00    +0.000 C 
ATOM      8  N   UNL     1       6.478   5.355  14.580  0.00  0.00    +0.000 NA
ATOM      9  C   UNL     1       7.523   5.077  15.560  0.00  0.00    +0.000 C 
ATOM     10  C   UNL     1       6.903   5.328  16.943  0.00  0.00    +0.000 C 
ATOM     11  C   UNL     1       7.694   4.499  17.993  0.00  0.00    +0.000 C 
ATOM     12  C   UNL     1       7.693   5.343  19.248  0.00  0.00    +0.000 C 
ATOM     13  N   UNL     1       7.716   6.668  18.727  0.00  0.00    +0.000 N 
ATOM     14  C   UNL     1       7.277   6.741  17.417  0.00  0.00    +0.000 C 
ATOM     15  O   UNL     1       7.227   7.787  16.793  0.00  0.00    +0.000 OA
ATOM     16  H   UNL     1       8.090   7.484  19.195  0.00  0.00    +0.000 HD
ENDROOT
BRANCH   1  18
ATOM     17  C   UNL     1       2.077   2.486  19.420  0.00  0.00    +0.000 C 
ATOM     18  S   UNL     1       2.016   4.245  19.167  0.00  0.00    +0.000 S 
ATOM     19  O   UNL     1       1.497   4.461  17.834  0.00  0.00    +0.000 OA
ATOM     20  O   UNL     1       1.394   4.864  20.320  0.00  0.00    +0.000 OA
ENDBRANCH   1  18
BRANCH   8  21
ATOM     21  C   UNL     1       6.749   4.658  13.315  0.00  0.00    +0.000 C 
BRANCH  21  22
ATOM     22  C   UNL     1       5.807   3.516  13.065  0.00  0.00    +0.000 C 
ATOM     23  C   UNL     1       4.839   3.521  11.911  0.00  0.00    +0.000 C 
ATOM     24  C   UNL     1       6.029   2.604  11.883  0.00  0.00    +0.000 C 
ENDBRANCH  21  22
ENDBRANCH   8  21
TORSDOF 3
ENDMDL
MODEL 2
REMARK VINA RESULT:      -7.7      2.860      6.889
REMARK  Name = 
REMARK  4 active torsions:
REMARK  status: ('A' for Active; 'I' for Inactive)
REMARK    1  A    between atoms: C_1  and  S_2
REMARK    2  A    between atoms: S_2  and  N_5
REMARK    3  A    between atoms: N_12  and  C_13
REMARK    4  A    between atoms: C_13  and  C_14
REMARK                            x       y       z     vdW  Elec       q    Type
REMARK                         _______ _______ _______ _____ _____    ______ ____
ROOT
ATOM      1  N   UNL     1       5.807   4.430  17.078  0.00  0.00    +0.000 NA
ATOM      2  C   UNL     1       5.953   4.375  18.544  0.00  0.00    +0.000 C 
ATOM      3  C   UNL     1       4.920   5.251  19.234  0.00  0.00    +0.000 C 
ATOM      4  C   UNL     1       3.446   4.976  18.828  0.00  0.00    +0.000 C 
ATOM      5  C   UNL     1       3.379   4.976  17.277  0.00  0.00    +0.000 C 
ATOM      6  C   UNL     1       4.441   4.132  16.583  0.00  0.00    +0.000 C 
ATOM      7  C   UNL     1       2.632   6.210  19.338  0.00  0.00    +0.000 C 
ATOM      8  N   UNL     1       1.514   5.731  20.138  0.00  0.00    +0.000 NA
ATOM      9  C   UNL     1       1.885   4.413  20.645  0.00  0.00    +0.000 C 
ATOM     10  C   UNL     1       2.761   3.760  19.565  0.00  0.00    +0.000 C 
ATOM     11  C   UNL     1       3.662   2.692  20.244  0.00  0.00    +0.000 C 
ATOM     12  C   UNL     1       3.803   1.584  19.225  0.00  0.00    +0.000 C 
ATOM     13  N   UNL     1       2.546   1.621  18.557  0.00  0.00    +0.000 N 
ATOM     14  C   UNL     1       1.892   2.832  18.702  0.00  0.00    +0.000 C 
ATOM     15  O   UNL     1       0.801   3.057  18.208  0.00  0.00    +0.000 OA
ATOM     16  H   UNL     1       2.098   0.842  18.090  0.00  0.00    +0.000 HD
ENDROOT
BRANCH   1  18
ATOM     17  C   UNL     1       7.543   6.413  17.615  0.00  0.00    +0.000 C 
ATOM     18  S   UNL     1       6.725   5.599  16.263  0.00  0.00    +0.000 S 
ATOM     19  O   UNL     1       5.817   6.564  15.678  0.00  0.00    +0.000 OA
ATOM     20  O   UNL     1       7.716   4.921  15.453  0.00  0.00    +0.000 OA
ENDBRANCH   1  18
BRANCH   8  21
ATOM     21  C   UNL     1       1.159   6.635  21.239  0.00  0.00    +0.000 C 
BRANCH  21  22
ATOM     22  C   UNL     1       1.412   8.079  20.914  0.00  0.00    +0.000 C 
ATOM     23  C   UNL     1       0.302   9.096  20.891  0.00  0.00    +0.000 C 
ATOM     24  C   UNL     1       1.315   9.122  22.000  0.00  0.00    +0.000 C 
ENDBRANCH  21  22
ENDBRANCH   8  21
TORSDOF 3
ENDMDL
MODEL 3
REMARK VINA RESULT:      -7.6      2.836      6.899
REMARK  Name = 
REMARK  4 active torsions:
REMARK  status: ('A' for Active; 'I' for Inactive)
REMARK    1  A    between atoms: C_1  and  S_2
REMARK    2  A    between atoms: S_2  and  N_5
REMARK    3  A    between atoms: N_12  and  C_13
REMARK    4  A    between atoms: C_13  and  C_14
REMARK                            x       y       z     vdW  Elec       q    Type
REMARK                         _______ _______ _______ _____ _____    ______ ____
ROOT
ATOM      1  N   UNL     1       5.687   4.470  16.930  0.00  0.00    +0.000 NA
ATOM      2  C   UNL     1       5.914   4.433  18.386  0.00  0.00    +0.000 C 
ATOM      3  C   UNL     1       4.895   5.287  19.124  0.00  0.00    +0.000 C 
ATOM      4  C   UNL     1       3.410   4.968  18.801  0.00  0.00    +0.000 C 
ATOM      5  C   UNL     1       3.260   4.952  17.256  0.00  0.00    +0.000 C 
ATOM      6  C   UNL     1       4.306   4.131  16.512  0.00  0.00    +0.000 C 
ATOM      7  C   UNL     1       2.591   6.184  19.345  0.00  0.00    +0.000 C 
ATOM      8  N   UNL     1       1.530   5.682  20.207  0.00  0.00    +0.000 NA
ATOM      9  C   UNL     1       1.965   4.380  20.703  0.00  0.00    +0.000 C 
ATOM     10  C   UNL     1       2.799   3.740  19.583  0.00  0.00    +0.000 C 
ATOM     11  C   UNL     1       3.765   2.704  20.221  0.00  0.00    +0.000 C 
ATOM     12  C   UNL     1       3.882   1.591  19.204  0.00  0.00    +0.000 C 
ATOM     13  N   UNL     1       2.590   1.587  18.605  0.00  0.00    +0.000 N 
ATOM     14  C   UNL     1       1.911   2.781  18.776  0.00  0.00    +0.000 C 
ATOM     15  O   UNL     1       0.790   2.972  18.340  0.00  0.00    +0.000 OA
ATOM     16  H   UNL     1       2.139   0.792  18.169  0.00  0.00    +0.000 HD
ENDROOT
BRANCH   1  18
ATOM     17  C   UNL     1       7.019   4.750  14.610  0.00  0.00    +0.000 C 
ATOM     18  S   UNL     1       6.527   5.657  16.057  0.00  0.00    +0.000 S 
ATOM     19  O   UNL     1       7.737   5.983  16.781  0.00  0.00    +0.000 OA
ATOM     20  O   UNL     1       5.588   6.690  15.668  0.00  0.00    +0.000 OA
ENDBRANCH   1  18
BRANCH   8  21
ATOM     21  C   UNL     1       1.211   6.586  21.319  0.00  0.00    +0.000 C 
BRANCH  21  22
ATOM     22  C   UNL     1       1.311   8.036  20.940  0.00  0.00    +0.000 C 
ATOM     23  C   UNL     1       0.156   8.987  21.120  0.00  0.00    +0.000 C 
ATOM     24  C   UNL     1       1.358   9.092  22.017  0.00  0.00    +0.000 C 
ENDBRANCH  21  22
ENDBRANCH   8  21
TORSDOF 3
ENDMDL
MODEL 4
REMARK VINA RESULT:      -7.2      3.031      6.845
REMARK  Name = 
REMARK  4 active torsions:
REMARK  status: ('A' for Active; 'I' for Inactive)
REMARK    1  A    between atoms: C_1  and  S_2
REMARK    2  A    between atoms: S_2  and  N_5
REMARK    3  A    between atoms: N_12  and  C_13
REMARK    4  A    between atoms: C_13  and  C_14
REMARK                            x       y       z     vdW  Elec       q    Type
REMARK                         _______ _______ _______ _____ _____    ______ ____
ROOT
ATOM      1  N   UNL     1       6.093   4.037  17.712  0.00  0.00    +0.000 NA
ATOM      2  C   UNL     1       5.809   4.290  19.136  0.00  0.00    +0.000 C 
ATOM      3  C   UNL     1       5.000   5.563  19.320  0.00  0.00    +0.000 C 
ATOM      4  C   UNL     1       3.690   5.637  18.487  0.00  0.00    +0.000 C 
ATOM      5  C   UNL     1       4.049   5.291  17.017  0.00  0.00    +0.000 C 
ATOM      6  C   UNL     1       4.897   4.038  16.835  0.00  0.00    +0.000 C 
ATOM      7  C   UNL     1       3.251   7.138  18.527  0.00  0.00    +0.000 C 
ATOM      8  N   UNL     1       1.864   7.204  18.966  0.00  0.00    +0.000 NA
ATOM      9  C   UNL     1       1.602   5.993  19.739  0.00  0.00    +0.000 C 
ATOM     10  C   UNL     1       2.453   4.880  19.110  0.00  0.00    +0.000 C 
ATOM     11  C   UNL     1       2.708   3.789  20.186  0.00  0.00    +0.000 C 
ATOM     12  C   UNL     1       2.725   2.480  19.430  0.00  0.00    +0.000 C 
ATOM     13  N   UNL     1       1.789   2.719  18.383  0.00  0.00    +0.000 N 
ATOM     14  C   UNL     1       1.583   4.066  18.139  0.00  0.00    +0.000 C 
ATOM     15  O   UNL     1       0.816   4.473  17.285  0.00  0.00    +0.000 OA
ATOM     16  H   UNL     1       1.242   2.015  17.903  0.00  0.00    +0.000 HD
ENDROOT
BRANCH   1  18
ATOM     17  C   UNL     1       7.408   6.378  17.554  0.00  0.00    +0.000 C 
ATOM     18  S   UNL     1       7.544   4.665  17.099  0.00  0.00    +0.000 S 
ATOM     19  O   UNL     1       7.490   4.608  15.654  0.00  0.00    +0.000 OA
ATOM     20  O   UNL     1       8.645   4.071  17.830  0.00  0.00    +0.000 OA
ENDBRANCH   1  18
BRANCH   8  21
ATOM     21  C   UNL     1       1.563   8.405  19.755  0.00  0.00    +0.000 C 
BRANCH  21  22
ATOM     22  C   UNL     1       1.114   8.088  21.152  0.00  0.00    +0.000 C 
ATOM     23  C   UNL     1       1.134   9.121  22.248  0.00  0.00    +0.000 C 
ATOM     24  C   UNL     1      -0.178   8.664  21.676  0.00  0.00    +0.000 C 
ENDBRANCH  21  22
ENDBRANCH   8  21
TORSDOF 3
ENDMDL
MODEL 5
REMARK VINA RESULT:      -7.1      1.019      1.186
REMARK  Name = 
REMARK  4 active torsions:
REMARK  status: ('A' for Active; 'I' for Inactive)
REMARK    1  A    between atoms: C_1  and  S_2
REMARK    2  A    between atoms: S_2  and  N_5
REMARK    3  A    between atoms: N_12  and  C_13
REMARK    4  A    between atoms: C_13  and  C_14
REMARK                            x       y       z     vdW  Elec       q    Type
REMARK                         _______ _______ _______ _____ _____    ______ ____
ROOT
ATOM      1  N   UNL     1       3.683   4.641  19.929  0.00  0.00    +0.000 NA
ATOM      2  C   UNL     1       4.566   3.557  19.461  0.00  0.00    +0.000 C 
ATOM      3  C   UNL     1       4.549   3.449  17.945  0.00  0.00    +0.000 C 
ATOM      4  C   UNL     1       4.863   4.767  17.186  0.00  0.00    +0.000 C 
ATOM      5  C   UNL     1       3.952   5.876  17.777  0.00  0.00    +0.000 C 
ATOM      6  C   UNL     1       3.935   5.959  19.298  0.00  0.00    +0.000 C 
ATOM      7  C   UNL     1       4.412   4.519  15.709  0.00  0.00    +0.000 C 
ATOM      8  N   UNL     1       5.519   4.850  14.823  0.00  0.00    +0.000 NA
ATOM      9  C   UNL     1       6.745   4.711  15.603  0.00  0.00    +0.000 C 
ATOM     10  C   UNL     1       6.396   5.113  17.044  0.00  0.00    +0.000 C 
ATOM     11  C   UNL     1       7.409   4.430  18.003  0.00  0.00    +0.000 C 
ATOM     12  C   UNL     1       7.617   5.417  19.130  0.00  0.00    +0.000 C 
ATOM     13  N   UNL     1       7.485   6.670  18.467  0.00  0.00    +0.000 N 
ATOM     14  C   UNL     1       6.796   6.579  17.271  0.00  0.00    +0.000 C 
ATOM     15  O   UNL     1       6.584   7.542  16.555  0.00  0.00    +0.000 OA
ATOM     16  H   UNL     1       7.908   7.544  18.757  0.00  0.00    +0.000 HD
ENDROOT
BRANCH   1  18
ATOM     17  C   UNL     1       2.324   3.029  21.600  0.00  0.00    +0.000 C 
ATOM     18  S   UNL     1       2.083   4.216  20.299  0.00  0.00    +0.000 S 
ATOM     19  O   UNL     1       1.531   3.496  19.171  0.00  0.00    +0.000 OA
ATOM     20  O   UNL     1       1.413   5.380  20.842  0.00  0.00    +0.000 OA
ENDBRANCH   1  18
BRANCH   8  21
ATOM     21  C   UNL     1       5.567   4.013  13.618  0.00  0.00    +0.000 C 
BRANCH  21  22
ATOM     22  C   UNL     1       6.946   3.909  13.034  0.00  0.00    +0.000 C 
ATOM     23  C   UNL     1       7.202   3.233  11.712  0.00  0.00    +0.000 C 
ATOM     24  C   UNL     1       7.312   4.727  11.820  0.00  0.00    +0.000 C 
ENDBRANCH  21  22
ENDBRANCH   8  21
TORSDOF 3
ENDMDL
MODEL 6
REMARK VINA RESULT:      -7.0      1.010      1.401
REMARK  Name = 
REMARK  4 active torsions:
REMARK  status: ('A' for Active; 'I' for Inactive)
REMARK    1  A    between atoms: C_1  and  S_2
REMARK    2  A    between atoms: S_2  and  N_5
REMARK    3  A    between atoms: N_12  and  C_13
REMARK    4  A    between atoms: C_13  and  C_14
REMARK                            x       y       z     vdW  Elec       q    Type
REMARK                         _______ _______ _______ _____ _____    ______ ____
ROOT
ATOM      1  N   UNL     1       3.774   5.009  19.853  0.00  0.00    +0.000 NA
ATOM      2  C   UNL     1       4.708   3.889  19.638  0.00  0.00    +0.000 C 
ATOM      3  C   UNL     1       4.833   3.552  18.161  0.00  0.00    +0.000 C 
ATOM      4  C   UNL     1       5.202   4.748  17.241  0.00  0.00    +0.000 C 
ATOM      5  C   UNL     1       4.229   5.911  17.571  0.00  0.00    +0.000 C 
ATOM      6  C   UNL     1       4.070   6.222  19.054  0.00  0.00    +0.000 C 
ATOM      7  C   UNL     1       4.892   4.269  15.784  0.00  0.00    +0.000 C 
ATOM      8  N   UNL     1       6.074   4.489  14.962  0.00  0.00    +0.000 NA
ATOM      9  C   UNL     1       7.224   4.499  15.861  0.00  0.00    +0.000 C 
ATOM     10  C   UNL     1       6.738   5.106  17.186  0.00  0.00    +0.000 C 
ATOM     11  C   UNL     1       7.665   4.600  18.326  0.00  0.00    +0.000 C 
ATOM     12  C   UNL     1       7.758   5.751  19.303  0.00  0.00    +0.000 C 
ATOM     13  N   UNL     1       7.674   6.886  18.448  0.00  0.00    +0.000 N 
ATOM     14  C   UNL     1       7.100   6.598  17.222  0.00  0.00    +0.000 C 
ATOM     15  O   UNL     1       6.945   7.437  16.351  0.00  0.00    +0.000 OA
ATOM     16  H   UNL     1       8.060   7.803  18.637  0.00  0.00    +0.000 HD
ENDROOT
BRANCH   1  18
ATOM     17  C   UNL     1       1.488   6.165  20.673  0.00  0.00    +0.000 C 
ATOM     18  S   UNL     1       2.152   4.606  20.138  0.00  0.00    +0.000 S 
ATOM     19  O   UNL     1       2.098   3.713  21.276  0.00  0.00    +0.000 OA
ATOM     20  O   UNL     1       1.541   4.243  18.875  0.00  0.00    +0.000 OA
ENDBRANCH   1  18
BRANCH   8  21
ATOM     21  C   UNL     1       6.242   3.481  13.908  0.00  0.00    +0.000 C 
BRANCH  21  22
ATOM     22  C   UNL     1       5.707   3.931  12.579  0.00  0.00    +0.000 C 
ATOM     23  C   UNL     1       5.768   3.052  11.357  0.00  0.00    +0.000 C 
ATOM     24  C   UNL     1       4.447   3.309  12.027  0.00  0.00    +0.000 C 
ENDBRANCH  21  22
ENDBRANCH   8  21
TORSDOF 3
ENDMDL
MODEL 7
REMARK VINA RESULT:      -6.7      3.125      6.548
REMARK  Name = 
REMARK  4 active torsions:
REMARK  status: ('A' for Active; 'I' for Inactive)
REMARK    1  A    between atoms: C_1  and  S_2
REMARK    2  A    between atoms: S_2  and  N_5
REMARK    3  A    between atoms: N_12  and  C_13
REMARK    4  A    between atoms: C_13  and  C_14
REMARK                            x       y       z     vdW  Elec       q    Type
REMARK                         _______ _______ _______ _____ _____    ______ ____
ROOT
ATOM      1  N   UNL     1       6.130   4.072  17.794  0.00  0.00    +0.000 NA
ATOM      2  C   UNL     1       5.821   4.454  19.184  0.00  0.00    +0.000 C 
ATOM      3  C   UNL     1       4.998   5.730  19.236  0.00  0.00    +0.000 C 
ATOM      4  C   UNL     1       3.702   5.714  18.380  0.00  0.00    +0.000 C 
ATOM      5  C   UNL     1       4.088   5.236  16.954  0.00  0.00    +0.000 C 
ATOM      6  C   UNL     1       4.949   3.980  16.903  0.00  0.00    +0.000 C 
ATOM      7  C   UNL     1       3.249   7.207  18.274  0.00  0.00    +0.000 C 
ATOM      8  N   UNL     1       1.855   7.300  18.683  0.00  0.00    +0.000 NA
ATOM      9  C   UNL     1       1.591   6.165  19.561  0.00  0.00    +0.000 C 
ATOM     10  C   UNL     1       2.461   5.006  19.052  0.00  0.00    +0.000 C 
ATOM     11  C   UNL     1       2.708   4.023  20.229  0.00  0.00    +0.000 C 
ATOM     12  C   UNL     1       2.748   2.649  19.598  0.00  0.00    +0.000 C 
ATOM     13  N   UNL     1       1.827   2.780  18.520  0.00  0.00    +0.000 N 
ATOM     14  C   UNL     1       1.614   4.096  18.148  0.00  0.00    +0.000 C 
ATOM     15  O   UNL     1       0.857   4.415  17.248  0.00  0.00    +0.000 OA
ATOM     16  H   UNL     1       1.294   2.030  18.098  0.00  0.00    +0.000 HD
ENDROOT
BRANCH   1  18
ATOM     17  C   UNL     1       7.490   6.382  17.561  0.00  0.00    +0.000 C 
ATOM     18  S   UNL     1       7.585   4.655  17.148  0.00  0.00    +0.000 S 
ATOM     19  O   UNL     1       7.512   4.564  15.706  0.00  0.00    +0.000 OA
ATOM     20  O   UNL     1       8.684   4.057  17.880  0.00  0.00    +0.000 OA
ENDBRANCH   1  18
BRANCH   8  21
ATOM     21  C   UNL     1       1.531   8.566  19.352  0.00  0.00    +0.000 C 
BRANCH  21  22
ATOM     22  C   UNL     1       1.111   9.643  18.394  0.00  0.00    +0.000 C 
ATOM     23  C   UNL     1      -0.226  10.329  18.503  0.00  0.00    +0.000 C 
ATOM     24  C   UNL     1       1.028  11.075  18.862  0.00  0.00    +0.000 C 
ENDBRANCH  21  22
ENDBRANCH   8  21
TORSDOF 3
ENDMDL
MODEL 8
REMARK VINA RESULT:      -6.4      3.258      7.100
REMARK  Name = 
REMARK  4 active torsions:
REMARK  status: ('A' for Active; 'I' for Inactive)
REMARK    1  A    between atoms: C_1  and  S_2
REMARK    2  A    between atoms: S_2  and  N_5
REMARK    3  A    between atoms: N_12  and  C_13
REMARK    4  A    between atoms: C_13  and  C_14
REMARK                            x       y       z     vdW  Elec       q    Type
REMARK                         _______ _______ _______ _____ _____    ______ ____
ROOT
ATOM      1  N   UNL     1       5.100   4.110  17.016  0.00  0.00    +0.000 NA
ATOM      2  C   UNL     1       5.528   4.418  18.393  0.00  0.00    +0.000 C 
ATOM      3  C   UNL     1       4.704   5.548  18.987  0.00  0.00    +0.000 C 
ATOM      4  C   UNL     1       3.165   5.341  18.933  0.00  0.00    +0.000 C 
ATOM      5  C   UNL     1       2.796   4.951  17.477  0.00  0.00    +0.000 C 
ATOM      6  C   UNL     1       3.649   3.847  16.865  0.00  0.00    +0.000 C 
ATOM      7  C   UNL     1       2.542   6.746  19.221  0.00  0.00    +0.000 C 
ATOM      8  N   UNL     1       1.576   6.613  20.302  0.00  0.00    +0.000 NA
ATOM      9  C   UNL     1       1.961   5.437  21.076  0.00  0.00    +0.000 C 
ATOM     10  C   UNL     1       2.568   4.437  20.081  0.00  0.00    +0.000 C 
ATOM     11  C   UNL     1       3.521   3.487  20.858  0.00  0.00    +0.000 C 
ATOM     12  C   UNL     1       3.393   2.146  20.170  0.00  0.00    +0.000 C 
ATOM     13  N   UNL     1       2.034   2.148  19.746  0.00  0.00    +0.000 N 
ATOM     14  C   UNL     1       1.493   3.419  19.667  0.00  0.00    +0.000 C 
ATOM     15  O   UNL     1       0.342   3.629  19.328  0.00  0.00    +0.000 OA
ATOM     16  H   UNL     1       1.457   1.329  19.594  0.00  0.00    +0.000 HD
ENDROOT
BRANCH   1  18
ATOM     17  C   UNL     1       7.456   5.321  16.544  0.00  0.00    +0.000 C 
ATOM     18  S   UNL     1       5.907   4.925  15.767  0.00  0.00    +0.000 S 
ATOM     19  O   UNL     1       5.225   6.178  15.525  0.00  0.00    +0.000 OA
ATOM     20  O   UNL     1       6.149   3.986  14.689  0.00  0.00    +0.000 OA
ENDBRANCH   1  18
BRANCH   8  21
ATOM     21  C   UNL     1       1.498   7.802  21.160  0.00  0.00    +0.000 C 
BRANCH  21  22
ATOM     22  C   UNL     1       0.102   8.338  21.291  0.00  0.00    +0.000 C 
ATOM     23  C   UNL     1      -0.297   9.252  22.420  0.00  0.00    +0.000 C 
ATOM     24  C   UNL     1      -0.170   9.798  21.026  0.00  0.00    +0.000 C 
ENDBRANCH  21  22
ENDBRANCH   8  21
TORSDOF 3
ENDMDL
MODEL 9
REMARK VINA RESULT:      -6.2      2.067      4.694
REMARK  Name = 
REMARK  4 active torsions:
REMARK  status: ('A' for Active; 'I' for Inactive)
REMARK    1  A    between atoms: C_1  and  S_2
REMARK    2  A    between atoms: S_2  and  N_5
REMARK    3  A    between atoms: N_12  and  C_13
REMARK    4  A    between atoms: C_13  and  C_14
REMARK                            x       y       z     vdW  Elec       q    Type
REMARK                         _______ _______ _______ _____ _____    ______ ____
ROOT
ATOM      1  N   UNL     1       3.202   4.001  18.727  0.00  0.00    +0.000 NA
ATOM      2  C   UNL     1       3.010   5.076  17.737  0.00  0.00    +0.000 C 
ATOM      3  C   UNL     1       3.995   6.212  17.958  0.00  0.00    +0.000 C 
ATOM      4  C   UNL     1       5.489   5.788  18.013  0.00  0.00    +0.000 C 
ATOM      5  C   UNL     1       5.605   4.610  19.017  0.00  0.00    +0.000 C 
ATOM      6  C   UNL     1       4.590   3.490  18.822  0.00  0.00    +0.000 C 
ATOM      7  C   UNL     1       6.250   7.010  18.624  0.00  0.00    +0.000 C 
ATOM      8  N   UNL     1       7.355   7.356  17.742  0.00  0.00    +0.000 NA
ATOM      9  C   UNL     1       7.006   6.874  16.409  0.00  0.00    +0.000 C 
ATOM     10  C   UNL     1       6.184   5.592  16.609  0.00  0.00    +0.000 C 
ATOM     11  C   UNL     1       5.292   5.380  15.355  0.00  0.00    +0.000 C 
ATOM     12  C   UNL     1       5.215   3.881  15.170  0.00  0.00    +0.000 C 
ATOM     13  N   UNL     1       6.492   3.450  15.632  0.00  0.00    +0.000 N 
ATOM     14  C   UNL     1       7.106   4.372  16.461  0.00  0.00    +0.000 C 
ATOM     15  O   UNL     1       8.205   4.189  16.954  0.00  0.00    +0.000 OA
ATOM     16  H   UNL     1       6.977   2.610  15.341  0.00  0.00    +0.000 HD
ENDROOT
BRANCH   1  18
ATOM     17  C   UNL     1       0.767   3.308  19.639  0.00  0.00    +0.000 C 
ATOM     18  S   UNL     1       2.278   4.097  20.146  0.00  0.00    +0.000 S 
ATOM     19  O   UNL     1       1.963   5.488  20.391  0.00  0.00    +0.000 OA
ATOM     20  O   UNL     1       2.914   3.285  21.164  0.00  0.00    +0.000 OA
ENDBRANCH   1  18
BRANCH   8  21
ATOM     21  C   UNL     1       7.648   8.795  17.718  0.00  0.00    +0.000 C 
BRANCH  21  22
ATOM     22  C   UNL     1       8.926   9.143  18.424  0.00  0.00    +0.000 C 
ATOM     23  C   UNL     1       9.582  10.490  18.268  0.00  0.00    +0.000 C 
ATOM     24  C   UNL     1       8.910  10.132  19.563  0.00  0.00    +0.000 C 
ENDBRANCH  21  22
ENDBRANCH   8  21
TORSDOF 3
ENDMDL
