MODEL 1
REMARK VINA RESULT:      -7.9      0.000      0.000
REMARK  Name = 
REMARK  13 active torsions:
REMARK  status: ('A' for Active; 'I' for Inactive)
REMARK    1  A    between atoms: C_1  and  C_2
REMARK    2  A    between atoms: C_2  and  C_3
REMARK    3  A    between atoms: C_3  and  C_4
REMARK    4  A    between atoms: C_4  and  C_5
REMARK    5  A    between atoms: C_5  and  N_6
REMARK    6  A    between atoms: N_6  and  C_7
REMARK    7  A    between atoms: C_7  and  C_8
REMARK    8  A    between atoms: C_8  and  O_9
REMARK    9  A    between atoms: C_8  and  C_10
REMARK   10  A    between atoms: C_12  and  C_13
REMARK   11  A    between atoms: C_16  and  C_17
REMARK   12  A    between atoms: C_24  and  C_25
REMARK   13  A    between atoms: C_28  and  C_29
REMARK                            x       y       z     vdW  Elec       q    Type
REMARK                         _______ _______ _______ _____ _____    ______ ____
ROOT
ATOM      1  C   UNL     1       6.824   5.360  15.382  0.00  0.00    +0.000 A 
ATOM      2  C   UNL     1       5.664   4.929  16.024  0.00  0.00    +0.000 A 
ATOM      3  C   UNL     1       5.259   5.541  17.210  0.00  0.00    +0.000 A 
ATOM      4  N   UNL     1       5.926   6.603  17.727  0.00  0.00    +0.000 NA
ATOM      5  C   UNL     1       7.032   7.055  17.090  0.00  0.00    +0.000 A 
ATOM      6  C   UNL     1       7.512   6.443  15.935  0.00  0.00    +0.000 A 
ENDROOT
BRANCH   3   7
ATOM      7  C   UNL     1       4.115   5.044  17.999  0.00  0.00    +0.000 A 
ATOM      8  C   UNL     1       3.169   4.167  17.439  0.00  0.00    +0.000 A 
ATOM      9  C   UNL     1       2.093   3.679  18.184  0.00  0.00    +0.000 A 
ATOM     10  C   UNL     1       1.932   4.049  19.522  0.00  0.00    +0.000 A 
ATOM     11  C   UNL     1       2.870   4.916  20.099  0.00  0.00    +0.000 A 
ATOM     12  C   UNL     1       3.947   5.404  19.347  0.00  0.00    +0.000 A 
BRANCH  10  13
ATOM     13  C   UNL     1       0.781   3.517  20.337  0.00  0.00    +0.000 C 
ATOM     14  F   UNL     1       0.087   2.524  19.711  0.00  0.00    +0.000 F 
ATOM     15  F   UNL     1       1.182   2.994  21.529  0.00  0.00    +0.000 F 
ATOM     16  F   UNL     1      -0.135   4.478  20.636  0.00  0.00    +0.000 F 
ENDBRANCH  10  13
ENDBRANCH   3   7
BRANCH   5  17
ATOM     17  C   UNL     1       7.703   8.220  17.695  0.00  0.00    +0.000 A 
ATOM     18  C   UNL     1       8.557   8.067  18.802  0.00  0.00    +0.000 A 
ATOM     19  C   UNL     1       9.212   9.161  19.374  0.00  0.00    +0.000 A 
ATOM     20  C   UNL     1       9.029  10.450  18.857  0.00  0.00    +0.000 A 
ATOM     21  C   UNL     1       8.177  10.618  17.759  0.00  0.00    +0.000 A 
ATOM     22  C   UNL     1       7.523   9.521  17.192  0.00  0.00    +0.000 A 
BRANCH  20  23
ATOM     23  C   UNL     1       9.726  11.645  19.458  0.00  0.00    +0.000 C 
ATOM     24  F   UNL     1       9.774  12.728  18.636  0.00  0.00    +0.000 F 
ATOM     25  F   UNL     1       9.124  12.070  20.604  0.00  0.00    +0.000 F 
ATOM     26  F   UNL     1      11.017  11.375  19.795  0.00  0.00    +0.000 F 
ENDBRANCH  20  23
ENDBRANCH   5  17
BRANCH   1  27
ATOM     27  C   UNL     1       7.304   4.660  14.132  0.00  0.00    +0.000 C 
BRANCH  27  28
ATOM     28  O   UNL     1       8.139   5.543  13.373  0.00  0.00    +0.000 OA
ATOM     29  H   UNL     1       7.664   5.796  12.567  0.00  0.00    +0.000 HD
ENDBRANCH  27  28
BRANCH  27  30
ATOM     30  C   UNL     1       6.117   4.177  13.271  0.00  0.00    +0.000 C 
BRANCH  30  31
ATOM     31  N   UNL     1       6.380   2.852  12.698  0.00  0.00    +0.000 NA
ATOM     32  H   UNL     1       7.327   2.844  12.307  0.00  0.00    +0.000 HD
BRANCH  31  33
ATOM     33  C   UNL     1       5.392   2.531  11.677  0.00  0.00    +0.000 C 
BRANCH  33  34
ATOM     34  C   UNL     1       4.400   3.680  11.531  0.00  0.00    +0.000 C 
BRANCH  34  35
ATOM     35  C   UNL     1       3.281   3.296  10.564  0.00  0.00    +0.000 C 
BRANCH  35  37
ATOM     36  C   UNL     1       1.981   4.963   9.212  0.00  0.00    +0.000 C 
ATOM     37  C   UNL     1       3.284   4.189   9.329  0.00  0.00    +0.000 C 
ENDBRANCH  35  37
ENDBRANCH  34  35
ENDBRANCH  33  34
ENDBRANCH  31  33
ENDBRANCH  30  31
ENDBRANCH  27  30
ENDBRANCH   1  27
TORSDOF 12
ENDMDL
MODEL 2
REMARK VINA RESULT:      -7.7      0.798      1.527
REMARK  Name = 
REMARK  13 active torsions:
REMARK  status: ('A' for Active; 'I' for Inactive)
REMARK    1  A    between atoms: C_1  and  C_2
REMARK    2  A    between atoms: C_2  and  C_3
REMARK    3  A    between atoms: C_3  and  C_4
REMARK    4  A    between atoms: C_4  and  C_5
REMARK    5  A    between atoms: C_5  and  N_6
REMARK    6  A    between atoms: N_6  and  C_7
REMARK    7  A    between atoms: C_7  and  C_8
REMARK    8  A    between atoms: C_8  and  O_9
REMARK    9  A    between atoms: C_8  and  C_10
REMARK   10  A    between atoms: C_12  and  C_13
REMARK   11  A    between atoms: C_16  and  C_17
REMARK   12  A    between atoms: C_24  and  C_25
REMARK   13  A    between atoms: C_28  and  C_29
REMARK                            x       y       z     vdW  Elec       q    Type
REMARK                         _______ _______ _______ _____ _____    ______ ____
ROOT
ATOM      1  C   UNL     1       6.959   5.310  15.581  0.00  0.00    +0.000 A 
ATOM      2  C   UNL     1       5.914   4.788  16.341  0.00  0.00    +0.000 A 
ATOM      3  C   UNL     1       5.581   5.378  17.560  0.00  0.00    +0.000 A 
ATOM      4  N   UNL     1       6.201   6.500  18.001  0.00  0.00    +0.000 NA
ATOM      5  C   UNL     1       7.192   7.038  17.252  0.00  0.00    +0.000 A 
ATOM      6  C   UNL     1       7.603   6.455  16.056  0.00  0.00    +0.000 A 
ENDROOT
BRANCH   3   7
ATOM      7  C   UNL     1       4.571   4.794  18.465  0.00  0.00    +0.000 A 
ATOM      8  C   UNL     1       4.640   3.447  18.863  0.00  0.00    +0.000 A 
ATOM      9  C   UNL     1       3.699   2.892  19.732  0.00  0.00    +0.000 A 
ATOM     10  C   UNL     1       2.657   3.673  20.241  0.00  0.00    +0.000 A 
ATOM     11  C   UNL     1       2.577   5.020  19.861  0.00  0.00    +0.000 A 
ATOM     12  C   UNL     1       3.523   5.571  18.987  0.00  0.00    +0.000 A 
BRANCH  10  13
ATOM     13  C   UNL     1       1.643   3.085  21.190  0.00  0.00    +0.000 C 
ATOM     14  F   UNL     1       1.937   3.310  22.502  0.00  0.00    +0.000 F 
ATOM     15  F   UNL     1       0.393   3.589  20.998  0.00  0.00    +0.000 F 
ATOM     16  F   UNL     1       1.530   1.735  21.061  0.00  0.00    +0.000 F 
ENDBRANCH  10  13
ENDBRANCH   3   7
BRANCH   5  17
ATOM     17  C   UNL     1       7.818   8.265  17.780  0.00  0.00    +0.000 A 
ATOM     18  C   UNL     1       7.526   9.521  17.221  0.00  0.00    +0.000 A 
ATOM     19  C   UNL     1       8.099  10.694  17.723  0.00  0.00    +0.000 A 
ATOM     20  C   UNL     1       8.991  10.643  18.802  0.00  0.00    +0.000 A 
ATOM     21  C   UNL     1       9.296   9.398  19.365  0.00  0.00    +0.000 A 
ATOM     22  C   UNL     1       8.722   8.230  18.858  0.00  0.00    +0.000 A 
BRANCH  20  23
ATOM     23  C   UNL     1       9.621  11.895  19.360  0.00  0.00    +0.000 C 
ATOM     24  F   UNL     1      10.325  11.695  20.508  0.00  0.00    +0.000 F 
ATOM     25  F   UNL     1      10.490  12.470  18.482  0.00  0.00    +0.000 F 
ATOM     26  F   UNL     1       8.699  12.854  19.650  0.00  0.00    +0.000 F 
ENDBRANCH  20  23
ENDBRANCH   5  17
BRANCH   1  27
ATOM     27  C   UNL     1       7.368   4.638  14.291  0.00  0.00    +0.000 C 
BRANCH  27  28
ATOM     28  O   UNL     1       8.020   5.586  13.437  0.00  0.00    +0.000 OA
ATOM     29  H   UNL     1       8.977   5.460  13.513  0.00  0.00    +0.000 HD
ENDBRANCH  27  28
BRANCH  27  30
ATOM     30  C   UNL     1       6.149   4.023  13.570  0.00  0.00    +0.000 C 
BRANCH  30  31
ATOM     31  N   UNL     1       6.549   3.351  12.329  0.00  0.00    +0.000 NA
ATOM     32  H   UNL     1       6.905   4.053  11.674  0.00  0.00    +0.000 HD
BRANCH  31  33
ATOM     33  C   UNL     1       5.423   2.625  11.755  0.00  0.00    +0.000 C 
BRANCH  33  34
ATOM     34  C   UNL     1       4.181   3.509  11.749  0.00  0.00    +0.000 C 
BRANCH  34  35
ATOM     35  C   UNL     1       3.255   3.115  10.599  0.00  0.00    +0.000 C 
BRANCH  35  37
ATOM     36  C   UNL     1       2.204   4.880   9.158  0.00  0.00    +0.000 C 
ATOM     37  C   UNL     1       3.443   4.033   9.396  0.00  0.00    +0.000 C 
ENDBRANCH  35  37
ENDBRANCH  34  35
ENDBRANCH  33  34
ENDBRANCH  31  33
ENDBRANCH  30  31
ENDBRANCH  27  30
ENDBRANCH   1  27
TORSDOF 12
ENDMDL
MODEL 3
REMARK VINA RESULT:      -7.6      4.928      8.011
REMARK  Name = 
REMARK  13 active torsions:
REMARK  status: ('A' for Active; 'I' for Inactive)
REMARK    1  A    between atoms: C_1  and  C_2
REMARK    2  A    between atoms: C_2  and  C_3
REMARK    3  A    between atoms: C_3  and  C_4
REMARK    4  A    between atoms: C_4  and  C_5
REMARK    5  A    between atoms: C_5  and  N_6
REMARK    6  A    between atoms: N_6  and  C_7
REMARK    7  A    between atoms: C_7  and  C_8
REMARK    8  A    between atoms: C_8  and  O_9
REMARK    9  A    between atoms: C_8  and  C_10
REMARK   10  A    between atoms: C_12  and  C_13
REMARK   11  A    between atoms: C_16  and  C_17
REMARK   12  A    between atoms: C_24  and  C_25
REMARK   13  A    between atoms: C_28  and  C_29
REMARK                            x       y       z     vdW  Elec       q    Type
REMARK                         _______ _______ _______ _____ _____    ______ ____
ROOT
ATOM      1  C   UNL     1       4.414   3.884  19.612  0.00  0.00    +0.000 A 
ATOM      2  C   UNL     1       5.129   3.839  18.417  0.00  0.00    +0.000 A 
ATOM      3  C   UNL     1       4.945   4.837  17.461  0.00  0.00    +0.000 A 
ATOM      4  N   UNL     1       4.136   5.902  17.688  0.00  0.00    +0.000 NA
ATOM      5  C   UNL     1       3.466   5.975  18.862  0.00  0.00    +0.000 A 
ATOM      6  C   UNL     1       3.570   4.976  19.827  0.00  0.00    +0.000 A 
ENDROOT
BRANCH   3   7
ATOM      7  C   UNL     1       5.577   4.774  16.128  0.00  0.00    +0.000 A 
ATOM      8  C   UNL     1       6.802   5.415  15.871  0.00  0.00    +0.000 A 
ATOM      9  C   UNL     1       7.415   5.345  14.618  0.00  0.00    +0.000 A 
ATOM     10  C   UNL     1       6.823   4.622  13.578  0.00  0.00    +0.000 A 
ATOM     11  C   UNL     1       5.606   3.970  13.819  0.00  0.00    +0.000 A 
ATOM     12  C   UNL     1       4.995   4.044  15.078  0.00  0.00    +0.000 A 
BRANCH  10  13
ATOM     13  C   UNL     1       7.484   4.532  12.226  0.00  0.00    +0.000 C 
ATOM     14  F   UNL     1       7.550   3.259  11.740  0.00  0.00    +0.000 F 
ATOM     15  F   UNL     1       6.833   5.258  11.276  0.00  0.00    +0.000 F 
ATOM     16  F   UNL     1       8.765   4.991  12.240  0.00  0.00    +0.000 F 
ENDBRANCH  10  13
ENDBRANCH   3   7
BRANCH   5  17
ATOM     17  C   UNL     1       2.613   7.163  19.054  0.00  0.00    +0.000 A 
ATOM     18  C   UNL     1       1.995   7.415  20.291  0.00  0.00    +0.000 A 
ATOM     19  C   UNL     1       1.198   8.546  20.491  0.00  0.00    +0.000 A 
ATOM     20  C   UNL     1       0.991   9.462  19.453  0.00  0.00    +0.000 A 
ATOM     21  C   UNL     1       1.595   9.221  18.213  0.00  0.00    +0.000 A 
ATOM     22  C   UNL     1       2.388   8.088  18.018  0.00  0.00    +0.000 A 
BRANCH  20  23
ATOM     23  C   UNL     1       0.134  10.689  19.646  0.00  0.00    +0.000 C 
ATOM     24  F   UNL     1       0.821  11.778  20.088  0.00  0.00    +0.000 F 
ATOM     25  F   UNL     1      -0.480  11.076  18.494  0.00  0.00    +0.000 F 
ATOM     26  F   UNL     1      -0.864  10.486  20.549  0.00  0.00    +0.000 F 
ENDBRANCH  20  23
ENDBRANCH   5  17
BRANCH   1  27
ATOM     27  C   UNL     1       4.560   2.773  20.626  0.00  0.00    +0.000 C 
BRANCH  27  28
ATOM     28  O   UNL     1       5.451   1.771  20.122  0.00  0.00    +0.000 OA
ATOM     29  H   UNL     1       6.233   1.742  20.694  0.00  0.00    +0.000 HD
ENDBRANCH  27  28
BRANCH  27  30
ATOM     30  C   UNL     1       3.191   2.145  20.967  0.00  0.00    +0.000 C 
BRANCH  30  31
ATOM     31  N   UNL     1       2.463   2.956  21.949  0.00  0.00    +0.000 NA
ATOM     32  H   UNL     1       2.655   2.590  22.886  0.00  0.00    +0.000 HD
BRANCH  31  33
ATOM     33  C   UNL     1       1.034   2.943  21.665  0.00  0.00    +0.000 C 
BRANCH  33  34
ATOM     34  C   UNL     1       0.744   3.762  20.413  0.00  0.00    +0.000 C 
BRANCH  34  35
ATOM     35  C   UNL     1       0.497   2.838  19.221  0.00  0.00    +0.000 C 
BRANCH  35  37
ATOM     36  C   UNL     1       2.224   2.287  17.486  0.00  0.00    +0.000 C 
ATOM     37  C   UNL     1       1.231   3.327  17.978  0.00  0.00    +0.000 C 
ENDBRANCH  35  37
ENDBRANCH  34  35
ENDBRANCH  33  34
ENDBRANCH  31  33
ENDBRANCH  30  31
ENDBRANCH  27  30
ENDBRANCH   1  27
TORSDOF 12
ENDMDL
MODEL 4
REMARK VINA RESULT:      -7.6      7.881     11.631
REMARK  Name = 
REMARK  13 active torsions:
REMARK  status: ('A' for Active; 'I' for Inactive)
REMARK    1  A    between atoms: C_1  and  C_2
REMARK    2  A    between atoms: C_2  and  C_3
REMARK    3  A    between atoms: C_3  and  C_4
REMARK    4  A    between atoms: C_4  and  C_5
REMARK    5  A    between atoms: C_5  and  N_6
REMARK    6  A    between atoms: N_6  and  C_7
REMARK    7  A    between atoms: C_7  and  C_8
REMARK    8  A    between atoms: C_8  and  O_9
REMARK    9  A    between atoms: C_8  and  C_10
REMARK   10  A    between atoms: C_12  and  C_13
REMARK   11  A    between atoms: C_16  and  C_17
REMARK   12  A    between atoms: C_24  and  C_25
REMARK   13  A    between atoms: C_28  and  C_29
REMARK                            x       y       z     vdW  Elec       q    Type
REMARK                         _______ _______ _______ _____ _____    ______ ____
ROOT
ATOM      1  C   UNL     1       1.099  12.781  18.518  0.00  0.00    +0.000 A 
ATOM      2  C   UNL     1       1.745  11.547  18.565  0.00  0.00    +0.000 A 
ATOM      3  C   UNL     1       0.996  10.376  18.674  0.00  0.00    +0.000 A 
ATOM      4  N   UNL     1      -0.360  10.393  18.664  0.00  0.00    +0.000 NA
ATOM      5  C   UNL     1      -0.998  11.584  18.579  0.00  0.00    +0.000 A 
ATOM      6  C   UNL     1      -0.298  12.787  18.526  0.00  0.00    +0.000 A 
ENDROOT
BRANCH   3   7
ATOM      7  C   UNL     1       1.628   9.054  18.857  0.00  0.00    +0.000 A 
ATOM      8  C   UNL     1       2.435   8.487  17.854  0.00  0.00    +0.000 A 
ATOM      9  C   UNL     1       3.049   7.245  18.025  0.00  0.00    +0.000 A 
ATOM     10  C   UNL     1       2.884   6.530  19.215  0.00  0.00    +0.000 A 
ATOM     11  C   UNL     1       2.090   7.085  20.229  0.00  0.00    +0.000 A 
ATOM     12  C   UNL     1       1.474   8.330  20.051  0.00  0.00    +0.000 A 
BRANCH  10  13
ATOM     13  C   UNL     1       3.555   5.194  19.414  0.00  0.00    +0.000 C 
ATOM     14  F   UNL     1       4.896   5.291  19.637  0.00  0.00    +0.000 F 
ATOM     15  F   UNL     1       3.050   4.510  20.477  0.00  0.00    +0.000 F 
ATOM     16  F   UNL     1       3.414   4.375  18.336  0.00  0.00    +0.000 F 
ENDBRANCH  10  13
ENDBRANCH   3   7
BRANCH   5  17
ATOM     17  C   UNL     1      -2.472  11.535  18.558  0.00  0.00    +0.000 A 
ATOM     18  C   UNL     1      -3.154  10.717  17.641  0.00  0.00    +0.000 A 
ATOM     19  C   UNL     1      -4.550  10.649  17.622  0.00  0.00    +0.000 A 
ATOM     20  C   UNL     1      -5.311  11.405  18.522  0.00  0.00    +0.000 A 
ATOM     21  C   UNL     1      -4.646  12.229  19.437  0.00  0.00    +0.000 A 
ATOM     22  C   UNL     1      -3.250  12.295  19.450  0.00  0.00    +0.000 A 
BRANCH  20  23
ATOM     23  C   UNL     1      -6.819  11.347  18.519  0.00  0.00    +0.000 C 
ATOM     24  F   UNL     1      -7.323  10.087  18.420  0.00  0.00    +0.000 F 
ATOM     25  F   UNL     1      -7.357  11.879  19.651  0.00  0.00    +0.000 F 
ATOM     26  F   UNL     1      -7.361  12.048  17.486  0.00  0.00    +0.000 F 
ENDBRANCH  20  23
ENDBRANCH   5  17
BRANCH   1  27
ATOM     27  C   UNL     1       1.904  14.058  18.465  0.00  0.00    +0.000 C 
BRANCH  27  28
ATOM     28  O   UNL     1       3.042  13.878  17.612  0.00  0.00    +0.000 OA
ATOM     29  H   UNL     1       2.727  13.719  16.710  0.00  0.00    +0.000 HD
ENDBRANCH  27  28
BRANCH  27  30
ATOM     30  C   UNL     1       2.359  14.491  19.875  0.00  0.00    +0.000 C 
BRANCH  30  31
ATOM     31  N   UNL     1       1.721  15.750  20.277  0.00  0.00    +0.000 NA
ATOM     32  H   UNL     1       2.355  16.258  20.900  0.00  0.00    +0.000 HD
BRANCH  31  33
ATOM     33  C   UNL     1       0.444  15.490  20.929  0.00  0.00    +0.000 C 
BRANCH  33  34
ATOM     34  C   UNL     1       0.636  14.501  22.073  0.00  0.00    +0.000 C 
BRANCH  34  35
ATOM     35  C   UNL     1      -0.347  13.338  21.939  0.00  0.00    +0.000 C 
BRANCH  35  37
ATOM     36  C   UNL     1      -2.212  12.064  23.032  0.00  0.00    +0.000 C 
ATOM     37  C   UNL     1      -1.289  13.267  23.135  0.00  0.00    +0.000 C 
ENDBRANCH  35  37
ENDBRANCH  34  35
ENDBRANCH  33  34
ENDBRANCH  31  33
ENDBRANCH  30  31
ENDBRANCH  27  30
ENDBRANCH   1  27
TORSDOF 12
ENDMDL
MODEL 5
REMARK VINA RESULT:      -7.5      8.138     11.068
REMARK  Name = 
REMARK  13 active torsions:
REMARK  status: ('A' for Active; 'I' for Inactive)
REMARK    1  A    between atoms: C_1  and  C_2
REMARK    2  A    between atoms: C_2  and  C_3
REMARK    3  A    between atoms: C_3  and  C_4
REMARK    4  A    between atoms: C_4  and  C_5
REMARK    5  A    between atoms: C_5  and  N_6
REMARK    6  A    between atoms: N_6  and  C_7
REMARK    7  A    between atoms: C_7  and  C_8
REMARK    8  A    between atoms: C_8  and  O_9
REMARK    9  A    between atoms: C_8  and  C_10
REMARK   10  A    between atoms: C_12  and  C_13
REMARK   11  A    between atoms: C_16  and  C_17
REMARK   12  A    between atoms: C_24  and  C_25
REMARK   13  A    between atoms: C_28  and  C_29
REMARK                            x       y       z     vdW  Elec       q    Type
REMARK                         _______ _______ _______ _____ _____    ______ ____
ROOT
ATOM      1  C   UNL     1       1.044  12.990  18.601  0.00  0.00    +0.000 A 
ATOM      2  C   UNL     1      -0.349  13.009  18.634  0.00  0.00    +0.000 A 
ATOM      3  C   UNL     1      -1.059  11.810  18.691  0.00  0.00    +0.000 A 
ATOM      4  N   UNL     1      -0.428  10.613  18.788  0.00  0.00    +0.000 NA
ATOM      5  C   UNL     1       0.926  10.585  18.796  0.00  0.00    +0.000 A 
ATOM      6  C   UNL     1       1.681  11.750  18.683  0.00  0.00    +0.000 A 
ENDROOT
BRANCH   3   7
ATOM      7  C   UNL     1      -2.531  11.764  18.600  0.00  0.00    +0.000 A 
ATOM      8  C   UNL     1      -3.176  11.089  17.547  0.00  0.00    +0.000 A 
ATOM      9  C   UNL     1      -4.568  11.026  17.463  0.00  0.00    +0.000 A 
ATOM     10  C   UNL     1      -5.366  11.631  18.439  0.00  0.00    +0.000 A 
ATOM     11  C   UNL     1      -4.740  12.300  19.500  0.00  0.00    +0.000 A 
ATOM     12  C   UNL     1      -3.343  12.362  19.579  0.00  0.00    +0.000 A 
BRANCH  10  13
ATOM     13  C   UNL     1      -6.870  11.557  18.363  0.00  0.00    +0.000 C 
ATOM     14  F   UNL     1      -7.388  12.190  17.272  0.00  0.00    +0.000 F 
ATOM     15  F   UNL     1      -7.327  10.276  18.300  0.00  0.00    +0.000 F 
ATOM     16  F   UNL     1      -7.475  12.121  19.444  0.00  0.00    +0.000 F 
ENDBRANCH  10  13
ENDBRANCH   3   7
BRANCH   5  17
ATOM     17  C   UNL     1       1.551   9.256  18.918  0.00  0.00    +0.000 A 
ATOM     18  C   UNL     1       1.442   8.513  20.107  0.00  0.00    +0.000 A 
ATOM     19  C   UNL     1       2.016   7.244  20.229  0.00  0.00    +0.000 A 
ATOM     20  C   UNL     1       2.724   6.678  19.161  0.00  0.00    +0.000 A 
ATOM     21  C   UNL     1       2.846   7.409  17.973  0.00  0.00    +0.000 A 
ATOM     22  C   UNL     1       2.272   8.677  17.857  0.00  0.00    +0.000 A 
BRANCH  20  23
ATOM     23  C   UNL     1       3.352   5.311  19.271  0.00  0.00    +0.000 C 
ATOM     24  F   UNL     1       2.706   4.474  20.128  0.00  0.00    +0.000 F 
ATOM     25  F   UNL     1       3.392   4.664  18.074  0.00  0.00    +0.000 F 
ATOM     26  F   UNL     1       4.641   5.367  19.706  0.00  0.00    +0.000 F 
ENDBRANCH  20  23
ENDBRANCH   5  17
BRANCH   1  27
ATOM     27  C   UNL     1       1.818  14.281  18.475  0.00  0.00    +0.000 C 
BRANCH  27  28
ATOM     28  O   UNL     1       3.059  14.173  19.181  0.00  0.00    +0.000 OA
ATOM     29  H   UNL     1       3.755  13.945  18.546  0.00  0.00    +0.000 HD
ENDBRANCH  27  28
BRANCH  27  30
ATOM     30  C   UNL     1       1.002  15.477  19.012  0.00  0.00    +0.000 C 
BRANCH  30  31
ATOM     31  N   UNL     1       1.016  15.514  20.479  0.00  0.00    +0.000 NA
ATOM     32  H   UNL     1       1.229  14.576  20.830  0.00  0.00    +0.000 HD
BRANCH  31  33
ATOM     33  C   UNL     1      -0.265  15.983  20.991  0.00  0.00    +0.000 C 
BRANCH  33  34
ATOM     34  C   UNL     1      -1.053  14.815  21.573  0.00  0.00    +0.000 C 
BRANCH  34  35
ATOM     35  C   UNL     1      -0.112  13.839  22.278  0.00  0.00    +0.000 C 
BRANCH  35  37
ATOM     36  C   UNL     1      -1.956  12.324  23.054  0.00  0.00    +0.000 C 
ATOM     37  C   UNL     1      -0.666  12.419  22.255  0.00  0.00    +0.000 C 
ENDBRANCH  35  37
ENDBRANCH  34  35
ENDBRANCH  33  34
ENDBRANCH  31  33
ENDBRANCH  30  31
ENDBRANCH  27  30
ENDBRANCH   1  27
TORSDOF 12
ENDMDL
MODEL 6
REMARK VINA RESULT:      -7.5      8.435     11.511
REMARK  Name = 
REMARK  13 active torsions:
REMARK  status: ('A' for Active; 'I' for Inactive)
REMARK    1  A    between atoms: C_1  and  C_2
REMARK    2  A    between atoms: C_2  and  C_3
REMARK    3  A    between atoms: C_3  and  C_4
REMARK    4  A    between atoms: C_4  and  C_5
REMARK    5  A    between atoms: C_5  and  N_6
REMARK    6  A    between atoms: N_6  and  C_7
REMARK    7  A    between atoms: C_7  and  C_8
REMARK    8  A    between atoms: C_8  and  O_9
REMARK    9  A    between atoms: C_8  and  C_10
REMARK   10  A    between atoms: C_12  and  C_13
REMARK   11  A    between atoms: C_16  and  C_17
REMARK   12  A    between atoms: C_24  and  C_25
REMARK   13  A    between atoms: C_28  and  C_29
REMARK                            x       y       z     vdW  Elec       q    Type
REMARK                         _______ _______ _______ _____ _____    ______ ____
ROOT
ATOM      1  C   UNL     1       0.872  12.955  20.084  0.00  0.00    +0.000 A 
ATOM      2  C   UNL     1      -0.504  13.017  19.870  0.00  0.00    +0.000 A 
ATOM      3  C   UNL     1      -1.186  11.890  19.414  0.00  0.00    +0.000 A 
ATOM      4  N   UNL     1      -0.558  10.701  19.237  0.00  0.00    +0.000 NA
ATOM      5  C   UNL     1       0.771  10.620  19.478  0.00  0.00    +0.000 A 
ATOM      6  C   UNL     1       1.510  11.729  19.880  0.00  0.00    +0.000 A 
ENDROOT
BRANCH   3   7
ATOM      7  C   UNL     1      -2.616  11.931  19.050  0.00  0.00    +0.000 A 
ATOM      8  C   UNL     1      -3.086  11.329  17.869  0.00  0.00    +0.000 A 
ATOM      9  C   UNL     1      -4.439  11.349  17.526  0.00  0.00    +0.000 A 
ATOM     10  C   UNL     1      -5.373  11.968  18.361  0.00  0.00    +0.000 A 
ATOM     11  C   UNL     1      -4.924  12.567  19.547  0.00  0.00    +0.000 A 
ATOM     12  C   UNL     1      -3.565  12.545  19.885  0.00  0.00    +0.000 A 
BRANCH  10  13
ATOM     13  C   UNL     1      -6.838  11.984  18.005  0.00  0.00    +0.000 C 
ATOM     14  F   UNL     1      -7.414  10.748  18.032  0.00  0.00    +0.000 F 
ATOM     15  F   UNL     1      -7.574  12.754  18.853  0.00  0.00    +0.000 F 
ATOM     16  F   UNL     1      -7.066  12.473  16.756  0.00  0.00    +0.000 F 
ENDBRANCH  10  13
ENDBRANCH   3   7
BRANCH   5  17
ATOM     17  C   UNL     1       1.391   9.297  19.280  0.00  0.00    +0.000 A 
ATOM     18  C   UNL     1       1.480   8.375  20.338  0.00  0.00    +0.000 A 
ATOM     19  C   UNL     1       2.050   7.111  20.159  0.00  0.00    +0.000 A 
ATOM     20  C   UNL     1       2.557   6.731  18.910  0.00  0.00    +0.000 A 
ATOM     21  C   UNL     1       2.482   7.641  17.849  0.00  0.00    +0.000 A 
ATOM     22  C   UNL     1       1.913   8.903  18.034  0.00  0.00    +0.000 A 
BRANCH  20  23
ATOM     23  C   UNL     1       3.178   5.373  18.695  0.00  0.00    +0.000 C 
ATOM     24  F   UNL     1       3.584   5.148  17.416  0.00  0.00    +0.000 F 
ATOM     25  F   UNL     1       4.275   5.177  19.477  0.00  0.00    +0.000 F 
ATOM     26  F   UNL     1       2.321   4.359  18.997  0.00  0.00    +0.000 F 
ENDBRANCH  20  23
ENDBRANCH   5  17
BRANCH   1  27
ATOM     27  C   UNL     1       1.629  14.189  20.517  0.00  0.00    +0.000 C 
BRANCH  27  28
ATOM     28  O   UNL     1       2.789  13.809  21.267  0.00  0.00    +0.000 OA
ATOM     29  H   UNL     1       3.575  14.009  20.738  0.00  0.00    +0.000 HD
ENDBRANCH  27  28
BRANCH  27  30
ATOM     30  C   UNL     1       0.735  15.127  21.358  0.00  0.00    +0.000 C 
BRANCH  30  31
ATOM     31  N   UNL     1       0.497  14.575  22.696  0.00  0.00    +0.000 NA
ATOM     32  H   UNL     1       0.342  13.566  22.614  0.00  0.00    +0.000 HD
BRANCH  31  33
ATOM     33  C   UNL     1      -0.642  15.230  23.324  0.00  0.00    +0.000 C 
BRANCH  33  34
ATOM     34  C   UNL     1      -1.531  14.192  24.001  0.00  0.00    +0.000 C 
BRANCH  34  35
ATOM     35  C   UNL     1      -2.336  13.421  22.956  0.00  0.00    +0.000 C 
BRANCH  35  37
ATOM     36  C   UNL     1      -1.225  11.172  23.015  0.00  0.00    +0.000 C 
ATOM     37  C   UNL     1      -2.486  11.954  23.343  0.00  0.00    +0.000 C 
ENDBRANCH  35  37
ENDBRANCH  34  35
ENDBRANCH  33  34
ENDBRANCH  31  33
ENDBRANCH  30  31
ENDBRANCH  27  30
ENDBRANCH   1  27
TORSDOF 12
ENDMDL
MODEL 7
REMARK VINA RESULT:      -7.4      4.861      8.050
REMARK  Name = 
REMARK  13 active torsions:
REMARK  status: ('A' for Active; 'I' for Inactive)
REMARK    1  A    between atoms: C_1  and  C_2
REMARK    2  A    between atoms: C_2  and  C_3
REMARK    3  A    between atoms: C_3  and  C_4
REMARK    4  A    between atoms: C_4  and  C_5
REMARK    5  A    between atoms: C_5  and  N_6
REMARK    6  A    between atoms: N_6  and  C_7
REMARK    7  A    between atoms: C_7  and  C_8
REMARK    8  A    between atoms: C_8  and  O_9
REMARK    9  A    between atoms: C_8  and  C_10
REMARK   10  A    between atoms: C_12  and  C_13
REMARK   11  A    between atoms: C_16  and  C_17
REMARK   12  A    between atoms: C_24  and  C_25
REMARK   13  A    between atoms: C_28  and  C_29
REMARK                            x       y       z     vdW  Elec       q    Type
REMARK                         _______ _______ _______ _____ _____    ______ ____
ROOT
ATOM      1  C   UNL     1       4.395   3.888  19.691  0.00  0.00    +0.000 A 
ATOM      2  C   UNL     1       5.191   3.915  18.547  0.00  0.00    +0.000 A 
ATOM      3  C   UNL     1       5.065   4.966  17.639  0.00  0.00    +0.000 A 
ATOM      4  N   UNL     1       4.234   6.012  17.872  0.00  0.00    +0.000 NA
ATOM      5  C   UNL     1       3.485   6.015  18.999  0.00  0.00    +0.000 A 
ATOM      6  C   UNL     1       3.530   4.963  19.910  0.00  0.00    +0.000 A 
ENDROOT
BRANCH   3   7
ATOM      7  C   UNL     1       5.786   4.982  16.351  0.00  0.00    +0.000 A 
ATOM      8  C   UNL     1       5.293   4.291  15.230  0.00  0.00    +0.000 A 
ATOM      9  C   UNL     1       5.961   4.316  14.004  0.00  0.00    +0.000 A 
ATOM     10  C   UNL     1       7.145   5.043  13.856  0.00  0.00    +0.000 A 
ATOM     11  C   UNL     1       7.647   5.745  14.961  0.00  0.00    +0.000 A 
ATOM     12  C   UNL     1       6.974   5.715  16.189  0.00  0.00    +0.000 A 
BRANCH  10  13
ATOM     13  C   UNL     1       7.866   5.085  12.532  0.00  0.00    +0.000 C 
ATOM     14  F   UNL     1       7.534   6.166  11.770  0.00  0.00    +0.000 F 
ATOM     15  F   UNL     1       9.219   5.134  12.676  0.00  0.00    +0.000 F 
ATOM     16  F   UNL     1       7.607   3.994  11.762  0.00  0.00    +0.000 F 
ENDBRANCH  10  13
ENDBRANCH   3   7
BRANCH   5  17
ATOM     17  C   UNL     1       2.612   7.187  19.201  0.00  0.00    +0.000 A 
ATOM     18  C   UNL     1       2.376   8.098  18.157  0.00  0.00    +0.000 A 
ATOM     19  C   UNL     1       1.537   9.204  18.330  0.00  0.00    +0.000 A 
ATOM     20  C   UNL     1       0.911   9.435  19.561  0.00  0.00    +0.000 A 
ATOM     21  C   UNL     1       1.143   8.539  20.612  0.00  0.00    +0.000 A 
ATOM     22  C   UNL     1       1.983   7.438  20.434  0.00  0.00    +0.000 A 
BRANCH  20  23
ATOM     23  C   UNL     1       0.003  10.622  19.771  0.00  0.00    +0.000 C 
ATOM     24  F   UNL     1       0.663  11.779  20.051  0.00  0.00    +0.000 F 
ATOM     25  F   UNL     1      -0.765  10.882  18.677  0.00  0.00    +0.000 F 
ATOM     26  F   UNL     1      -0.868  10.431  20.799  0.00  0.00    +0.000 F 
ENDBRANCH  20  23
ENDBRANCH   5  17
BRANCH   1  27
ATOM     27  C   UNL     1       4.480   2.721  20.647  0.00  0.00    +0.000 C 
BRANCH  27  28
ATOM     28  O   UNL     1       5.410   1.752  20.147  0.00  0.00    +0.000 OA
ATOM     29  H   UNL     1       4.909   1.006  19.784  0.00  0.00    +0.000 HD
ENDBRANCH  27  28
BRANCH  27  30
ATOM     30  C   UNL     1       3.096   2.070  20.859  0.00  0.00    +0.000 C 
BRANCH  30  31
ATOM     31  N   UNL     1       2.397   2.668  22.002  0.00  0.00    +0.000 NA
ATOM     32  H   UNL     1       2.514   2.058  22.816  0.00  0.00    +0.000 HD
BRANCH  31  33
ATOM     33  C   UNL     1       0.987   2.864  21.694  0.00  0.00    +0.000 C 
BRANCH  33  34
ATOM     34  C   UNL     1       0.841   3.634  20.387  0.00  0.00    +0.000 C 
BRANCH  34  35
ATOM     35  C   UNL     1       0.471   2.682  19.249  0.00  0.00    +0.000 C 
BRANCH  35  37
ATOM     36  C   UNL     1       1.199   4.157  17.354  0.00  0.00    +0.000 C 
ATOM     37  C   UNL     1       1.422   2.834  18.068  0.00  0.00    +0.000 C 
ENDBRANCH  35  37
ENDBRANCH  34  35
ENDBRANCH  33  34
ENDBRANCH  31  33
ENDBRANCH  30  31
ENDBRANCH  27  30
ENDBRANCH   1  27
TORSDOF 12
ENDMDL
MODEL 8
REMARK VINA RESULT:      -7.3      8.035     11.772
REMARK  Name = 
REMARK  13 active torsions:
REMARK  status: ('A' for Active; 'I' for Inactive)
REMARK    1  A    between atoms: C_1  and  C_2
REMARK    2  A    between atoms: C_2  and  C_3
REMARK    3  A    between atoms: C_3  and  C_4
REMARK    4  A    between atoms: C_4  and  C_5
REMARK    5  A    between atoms: C_5  and  N_6
REMARK    6  A    between atoms: N_6  and  C_7
REMARK    7  A    between atoms: C_7  and  C_8
REMARK    8  A    between atoms: C_8  and  O_9
REMARK    9  A    between atoms: C_8  and  C_10
REMARK   10  A    between atoms: C_12  and  C_13
REMARK   11  A    between atoms: C_16  and  C_17
REMARK   12  A    between atoms: C_24  and  C_25
REMARK   13  A    between atoms: C_28  and  C_29
REMARK                            x       y       z     vdW  Elec       q    Type
REMARK                         _______ _______ _______ _____ _____    ______ ____
ROOT
ATOM      1  C   UNL     1       1.071  12.787  18.549  0.00  0.00    +0.000 A 
ATOM      2  C   UNL     1       1.720  11.555  18.590  0.00  0.00    +0.000 A 
ATOM      3  C   UNL     1       0.974  10.382  18.696  0.00  0.00    +0.000 A 
ATOM      4  N   UNL     1      -0.383  10.397  18.689  0.00  0.00    +0.000 NA
ATOM      5  C   UNL     1      -1.023  11.587  18.611  0.00  0.00    +0.000 A 
ATOM      6  C   UNL     1      -0.325  12.791  18.561  0.00  0.00    +0.000 A 
ENDROOT
BRANCH   3   7
ATOM      7  C   UNL     1       1.608   9.060  18.871  0.00  0.00    +0.000 A 
ATOM      8  C   UNL     1       2.394   8.488  17.855  0.00  0.00    +0.000 A 
ATOM      9  C   UNL     1       3.011   7.246  18.019  0.00  0.00    +0.000 A 
ATOM     10  C   UNL     1       2.869   6.537  19.215  0.00  0.00    +0.000 A 
ATOM     11  C   UNL     1       2.097   7.097  20.243  0.00  0.00    +0.000 A 
ATOM     12  C   UNL     1       1.478   8.342  20.072  0.00  0.00    +0.000 A 
BRANCH  10  13
ATOM     13  C   UNL     1       3.543   5.202  19.407  0.00  0.00    +0.000 C 
ATOM     14  F   UNL     1       4.876   5.302  19.676  0.00  0.00    +0.000 F 
ATOM     15  F   UNL     1       3.009   4.490  20.437  0.00  0.00    +0.000 F 
ATOM     16  F   UNL     1       3.444   4.406  18.307  0.00  0.00    +0.000 F 
ENDBRANCH  10  13
ENDBRANCH   3   7
BRANCH   5  17
ATOM     17  C   UNL     1      -2.497  11.535  18.594  0.00  0.00    +0.000 A 
ATOM     18  C   UNL     1      -3.256  12.303  19.494  0.00  0.00    +0.000 A 
ATOM     19  C   UNL     1      -4.654  12.276  19.476  0.00  0.00    +0.000 A 
ATOM     20  C   UNL     1      -5.338  11.471  18.557  0.00  0.00    +0.000 A 
ATOM     21  C   UNL     1      -4.595  10.696  17.659  0.00  0.00    +0.000 A 
ATOM     22  C   UNL     1      -3.199  10.726  17.682  0.00  0.00    +0.000 A 
BRANCH  20  23
ATOM     23  C   UNL     1      -6.846  11.426  18.521  0.00  0.00    +0.000 C 
ATOM     24  F   UNL     1      -7.441  11.965  19.620  0.00  0.00    +0.000 F 
ATOM     25  F   UNL     1      -7.356  12.097  17.451  0.00  0.00    +0.000 F 
ATOM     26  F   UNL     1      -7.323  10.155  18.424  0.00  0.00    +0.000 F 
ENDBRANCH  20  23
ENDBRANCH   5  17
BRANCH   1  27
ATOM     27  C   UNL     1       1.875  14.066  18.499  0.00  0.00    +0.000 C 
BRANCH  27  28
ATOM     28  O   UNL     1       3.068  13.859  17.733  0.00  0.00    +0.000 OA
ATOM     29  H   UNL     1       3.618  14.654  17.801  0.00  0.00    +0.000 HD
ENDBRANCH  27  28
BRANCH  27  30
ATOM     30  C   UNL     1       2.233  14.558  19.918  0.00  0.00    +0.000 C 
BRANCH  30  31
ATOM     31  N   UNL     1       1.704  15.905  20.163  0.00  0.00    +0.000 NA
ATOM     32  H   UNL     1       2.409  16.449  20.669  0.00  0.00    +0.000 HD
BRANCH  31  33
ATOM     33  C   UNL     1       0.458  15.836  20.916  0.00  0.00    +0.000 C 
BRANCH  33  34
ATOM     34  C   UNL     1       0.442  14.582  21.783  0.00  0.00    +0.000 C 
BRANCH  34  35
ATOM     35  C   UNL     1      -0.976  14.020  21.876  0.00  0.00    +0.000 C 
BRANCH  35  37
ATOM     36  C   UNL     1      -1.930  14.434  24.159  0.00  0.00    +0.000 C 
ATOM     37  C   UNL     1      -1.247  13.424  23.253  0.00  0.00    +0.000 C 
ENDBRANCH  35  37
ENDBRANCH  34  35
ENDBRANCH  33  34
ENDBRANCH  31  33
ENDBRANCH  30  31
ENDBRANCH  27  30
ENDBRANCH   1  27
TORSDOF 12
ENDMDL
MODEL 9
REMARK VINA RESULT:      -7.2      8.322     11.141
REMARK  Name = 
REMARK  13 active torsions:
REMARK  status: ('A' for Active; 'I' for Inactive)
REMARK    1  A    between atoms: C_1  and  C_2
REMARK    2  A    between atoms: C_2  and  C_3
REMARK    3  A    between atoms: C_3  and  C_4
REMARK    4  A    between atoms: C_4  and  C_5
REMARK    5  A    between atoms: C_5  and  N_6
REMARK    6  A    between atoms: N_6  and  C_7
REMARK    7  A    between atoms: C_7  and  C_8
REMARK    8  A    between atoms: C_8  and  O_9
REMARK    9  A    between atoms: C_8  and  C_10
REMARK   10  A    between atoms: C_12  and  C_13
REMARK   11  A    between atoms: C_16  and  C_17
REMARK   12  A    between atoms: C_24  and  C_25
REMARK   13  A    between atoms: C_28  and  C_29
REMARK                            x       y       z     vdW  Elec       q    Type
REMARK                         _______ _______ _______ _____ _____    ______ ____
ROOT
ATOM      1  C   UNL     1       1.051  13.004  18.521  0.00  0.00    +0.000 A 
ATOM      2  C   UNL     1      -0.340  13.032  18.603  0.00  0.00    +0.000 A 
ATOM      3  C   UNL     1      -1.054  11.837  18.689  0.00  0.00    +0.000 A 
ATOM      4  N   UNL     1      -0.427  10.637  18.768  0.00  0.00    +0.000 NA
ATOM      5  C   UNL     1       0.926  10.601  18.728  0.00  0.00    +0.000 A 
ATOM      6  C   UNL     1       1.684  11.760  18.584  0.00  0.00    +0.000 A 
ENDROOT
BRANCH   3   7
ATOM      7  C   UNL     1      -2.529  11.799  18.651  0.00  0.00    +0.000 A 
ATOM      8  C   UNL     1      -3.215  11.129  17.621  0.00  0.00    +0.000 A 
ATOM      9  C   UNL     1      -4.609  11.073  17.587  0.00  0.00    +0.000 A 
ATOM     10  C   UNL     1      -5.368  11.683  18.591  0.00  0.00    +0.000 A 
ATOM     11  C   UNL     1      -4.701  12.348  19.629  0.00  0.00    +0.000 A 
ATOM     12  C   UNL     1      -3.301  12.402  19.658  0.00  0.00    +0.000 A 
BRANCH  10  13
ATOM     13  C   UNL     1      -6.874  11.617  18.568  0.00  0.00    +0.000 C 
ATOM     14  F   UNL     1      -7.363  10.352  18.715  0.00  0.00    +0.000 F 
ATOM     15  F   UNL     1      -7.444  12.352  19.563  0.00  0.00    +0.000 F 
ATOM     16  F   UNL     1      -7.399  12.086  17.404  0.00  0.00    +0.000 F 
ENDBRANCH  10  13
ENDBRANCH   3   7
BRANCH   5  17
ATOM     17  C   UNL     1       1.547   9.268  18.831  0.00  0.00    +0.000 A 
ATOM     18  C   UNL     1       2.231   8.703  17.740  0.00  0.00    +0.000 A 
ATOM     19  C   UNL     1       2.839   7.447  17.831  0.00  0.00    +0.000 A 
ATOM     20  C   UNL     1       2.776   6.712  19.021  0.00  0.00    +0.000 A 
ATOM     21  C   UNL     1       2.092   7.258  20.114  0.00  0.00    +0.000 A 
ATOM     22  C   UNL     1       1.485   8.512  20.017  0.00  0.00    +0.000 A 
BRANCH  20  23
ATOM     23  C   UNL     1       3.424   5.355  19.142  0.00  0.00    +0.000 C 
ATOM     24  F   UNL     1       2.651   4.427  19.770  0.00  0.00    +0.000 F 
ATOM     25  F   UNL     1       3.736   4.823  17.928  0.00  0.00    +0.000 F 
ATOM     26  F   UNL     1       4.593   5.399  19.839  0.00  0.00    +0.000 F 
ENDBRANCH  20  23
ENDBRANCH   5  17
BRANCH   1  27
ATOM     27  C   UNL     1       1.827  14.290  18.363  0.00  0.00    +0.000 C 
BRANCH  27  28
ATOM     28  O   UNL     1       3.177  13.998  17.980  0.00  0.00    +0.000 OA
ATOM     29  H   UNL     1       3.664  13.714  18.768  0.00  0.00    +0.000 HD
ENDBRANCH  27  28
BRANCH  27  30
ATOM     30  C   UNL     1       1.811  15.117  19.667  0.00  0.00    +0.000 C 
BRANCH  30  31
ATOM     31  N   UNL     1       0.876  16.242  19.572  0.00  0.00    +0.000 NA
ATOM     32  H   UNL     1       0.491  16.272  18.623  0.00  0.00    +0.000 HD
BRANCH  31  33
ATOM     33  C   UNL     1       1.545  17.493  19.903  0.00  0.00    +0.000 C 
BRANCH  33  34
ATOM     34  C   UNL     1       1.201  18.559  18.868  0.00  0.00    +0.000 C 
BRANCH  34  35
ATOM     35  C   UNL     1       1.134  17.939  17.472  0.00  0.00    +0.000 C 
BRANCH  35  37
ATOM     36  C   UNL     1      -1.279  18.629  17.497  0.00  0.00    +0.000 C 
ATOM     37  C   UNL     1      -0.015  18.526  16.659  0.00  0.00    +0.000 C 
ENDBRANCH  35  37
ENDBRANCH  34  35
ENDBRANCH  33  34
ENDBRANCH  31  33
ENDBRANCH  30  31
ENDBRANCH  27  30
ENDBRANCH   1  27
TORSDOF 12
ENDMDL
