MODEL 1
REMARK VINA RESULT:      -8.0      0.000      0.000
REMARK  Name = 
REMARK  6 active torsions:
REMARK  status: ('A' for Active; 'I' for Inactive)
REMARK    1  A    between atoms: C_1  and  O_2
REMARK    2  A    between atoms: O_2  and  C_3
REMARK    3  A    between atoms: C_6  and  N_7
REMARK    4  A    between atoms: C_11  and  C_12
REMARK    5  A    between atoms: C_23  and  C_24
REMARK    6  A    between atoms: C_27  and  C_28
REMARK                            x       y       z     vdW  Elec       q    Type
REMARK                         _______ _______ _______ _____ _____    ______ ____
ROOT
ATOM      1  N   UNL     1       1.348  10.319  18.629  0.00  0.00    +0.000 N 
ATOM      2  C   UNL     1       1.985   9.544  17.568  0.00  0.00    +0.000 C 
ATOM      3  C   UNL     1       2.046   8.074  18.017  0.00  0.00    +0.000 C 
ATOM      4  C   UNL     1       1.616   8.127  19.448  0.00  0.00    +0.000 A 
ATOM      5  C   UNL     1       1.547   7.120  20.428  0.00  0.00    +0.000 A 
ATOM      6  C   UNL     1       1.158   7.572  21.704  0.00  0.00    +0.000 A 
ATOM      7  C   UNL     1       0.793   8.901  21.926  0.00  0.00    +0.000 A 
ATOM      8  C   UNL     1       0.254   9.351  23.249  0.00  0.00    +0.000 C 
ATOM      9  N   UNL     1       0.865   9.840  20.969  0.00  0.00    +0.000 NA
ATOM     10  C   UNL     1       1.258   9.448  19.751  0.00  0.00    +0.000 A 
ENDROOT
BRANCH   5  11
ATOM     11  C   UNL     1       1.903   5.674  20.212  0.00  0.00    +0.000 A 
ATOM     12  C   UNL     1       0.890   4.701  20.359  0.00  0.00    +0.000 A 
ATOM     13  C   UNL     1       1.102   3.348  20.117  0.00  0.00    +0.000 A 
ATOM     14  C   UNL     1       2.333   2.918  19.658  0.00  0.00    +0.000 A 
ATOM     15  C   UNL     1       3.371   3.835  19.458  0.00  0.00    +0.000 A 
ATOM     16  C   UNL     1       4.589   3.390  18.940  0.00  0.00    +0.000 A 
ATOM     17  N   UNL     1       5.659   4.177  18.697  0.00  0.00    +0.000 NA
ATOM     18  C   UNL     1       5.518   5.469  19.035  0.00  0.00    +0.000 A 
ATOM     19  C   UNL     1       4.363   6.009  19.582  0.00  0.00    +0.000 A 
ATOM     20  C   UNL     1       3.207   5.213  19.767  0.00  0.00    +0.000 A 
ENDBRANCH   5  11
BRANCH   1  24
ATOM     21  C   UNL     1       1.333  14.572  18.543  0.00  0.00    +0.000 A 
ATOM     22  C   UNL     1       2.524  13.862  18.518  0.00  0.00    +0.000 A 
ATOM     23  C   UNL     1       2.505  12.461  18.551  0.00  0.00    +0.000 A 
ATOM     24  C   UNL     1       1.308  11.717  18.612  0.00  0.00    +0.000 A 
ATOM     25  C   UNL     1       0.102  12.450  18.652  0.00  0.00    +0.000 A 
ATOM     26  C   UNL     1      -1.271  11.830  18.670  0.00  0.00    +0.000 C 
ATOM     27  C   UNL     1       0.136  13.863  18.617  0.00  0.00    +0.000 A 
BRANCH  21  29
ATOM     28  C   UNL     1      -0.121  16.445  18.572  0.00  0.00    +0.000 C 
ATOM     29  O   UNL     1       1.201  15.931  18.496  0.00  0.00    +0.000 OA
ENDBRANCH  21  29
ENDBRANCH   1  24
TORSDOF 3
ENDMDL
MODEL 2
REMARK VINA RESULT:      -7.5      2.840      4.414
REMARK  Name = 
REMARK  6 active torsions:
REMARK  status: ('A' for Active; 'I' for Inactive)
REMARK    1  A    between atoms: C_1  and  O_2
REMARK    2  A    between atoms: O_2  and  C_3
REMARK    3  A    between atoms: C_6  and  N_7
REMARK    4  A    between atoms: C_11  and  C_12
REMARK    5  A    between atoms: C_23  and  C_24
REMARK    6  A    between atoms: C_27  and  C_28
REMARK                            x       y       z     vdW  Elec       q    Type
REMARK                         _______ _______ _______ _____ _____    ______ ____
ROOT
ATOM      1  N   UNL     1       1.491   8.224  19.644  0.00  0.00    +0.000 N 
ATOM      2  C   UNL     1       2.219   8.858  18.548  0.00  0.00    +0.000 C 
ATOM      3  C   UNL     1       3.021   7.771  17.811  0.00  0.00    +0.000 C 
ATOM      4  C   UNL     1       2.868   6.569  18.687  0.00  0.00    +0.000 A 
ATOM      5  C   UNL     1       3.436   5.286  18.598  0.00  0.00    +0.000 A 
ATOM      6  C   UNL     1       3.111   4.427  19.666  0.00  0.00    +0.000 A 
ATOM      7  C   UNL     1       2.223   4.818  20.670  0.00  0.00    +0.000 A 
ATOM      8  C   UNL     1       1.775   3.859  21.731  0.00  0.00    +0.000 C 
ATOM      9  N   UNL     1       1.692   6.050  20.726  0.00  0.00    +0.000 NA
ATOM     10  C   UNL     1       2.005   6.899  19.740  0.00  0.00    +0.000 A 
ENDROOT
BRANCH   5  11
ATOM     11  C   UNL     1       4.372   4.824  17.513  0.00  0.00    +0.000 A 
ATOM     12  C   UNL     1       3.972   3.746  16.694  0.00  0.00    +0.000 A 
ATOM     13  C   UNL     1       4.734   3.288  15.623  0.00  0.00    +0.000 A 
ATOM     14  C   UNL     1       5.910   3.937  15.291  0.00  0.00    +0.000 A 
ATOM     15  C   UNL     1       6.346   5.034  16.041  0.00  0.00    +0.000 A 
ATOM     16  C   UNL     1       7.505   5.711  15.657  0.00  0.00    +0.000 A 
ATOM     17  N   UNL     1       8.021   6.784  16.294  0.00  0.00    +0.000 NA
ATOM     18  C   UNL     1       7.368   7.171  17.401  0.00  0.00    +0.000 A 
ATOM     19  C   UNL     1       6.224   6.553  17.887  0.00  0.00    +0.000 A 
ATOM     20  C   UNL     1       5.627   5.478  17.185  0.00  0.00    +0.000 A 
ENDBRANCH   5  11
BRANCH   1  24
ATOM     21  C   UNL     1      -0.489  10.445  22.683  0.00  0.00    +0.000 A 
ATOM     22  C   UNL     1       0.484   9.511  23.002  0.00  0.00    +0.000 A 
ATOM     23  C   UNL     1       1.121   8.787  21.984  0.00  0.00    +0.000 A 
ATOM     24  C   UNL     1       0.814   8.964  20.618  0.00  0.00    +0.000 A 
ATOM     25  C   UNL     1      -0.189   9.907  20.306  0.00  0.00    +0.000 A 
ATOM     26  C   UNL     1      -0.616  10.263  18.906  0.00  0.00    +0.000 C 
ATOM     27  C   UNL     1      -0.822  10.630  21.343  0.00  0.00    +0.000 A 
BRANCH  21  29
ATOM     28  C   UNL     1      -2.324  11.899  23.063  0.00  0.00    +0.000 C 
ATOM     29  O   UNL     1      -1.174  11.232  23.565  0.00  0.00    +0.000 OA
ENDBRANCH  21  29
ENDBRANCH   1  24
TORSDOF 3
ENDMDL
MODEL 3
REMARK VINA RESULT:      -7.3      2.505      3.664
REMARK  Name = 
REMARK  6 active torsions:
REMARK  status: ('A' for Active; 'I' for Inactive)
REMARK    1  A    between atoms: C_1  and  O_2
REMARK    2  A    between atoms: O_2  and  C_3
REMARK    3  A    between atoms: C_6  and  N_7
REMARK    4  A    between atoms: C_11  and  C_12
REMARK    5  A    between atoms: C_23  and  C_24
REMARK    6  A    between atoms: C_27  and  C_28
REMARK                            x       y       z     vdW  Elec       q    Type
REMARK                         _______ _______ _______ _____ _____    ______ ____
ROOT
ATOM      1  N   UNL     1      -1.269  11.347  19.519  0.00  0.00    +0.000 N 
ATOM      2  C   UNL     1      -0.859  11.202  18.125  0.00  0.00    +0.000 C 
ATOM      3  C   UNL     1       0.087   9.993  18.026  0.00  0.00    +0.000 C 
ATOM      4  C   UNL     1       0.341   9.629  19.454  0.00  0.00    +0.000 A 
ATOM      5  C   UNL     1       1.190   8.662  20.021  0.00  0.00    +0.000 A 
ATOM      6  C   UNL     1       1.219   8.663  21.430  0.00  0.00    +0.000 A 
ATOM      7  C   UNL     1       0.393   9.508  22.174  0.00  0.00    +0.000 A 
ATOM      8  C   UNL     1       0.327   9.416  23.667  0.00  0.00    +0.000 C 
ATOM      9  N   UNL     1      -0.412  10.419  21.603  0.00  0.00    +0.000 NA
ATOM     10  C   UNL     1      -0.440  10.463  20.265  0.00  0.00    +0.000 A 
ENDROOT
BRANCH   5  11
ATOM     11  C   UNL     1       2.069   7.717  19.247  0.00  0.00    +0.000 A 
ATOM     12  C   UNL     1       2.797   8.222  18.147  0.00  0.00    +0.000 A 
ATOM     13  C   UNL     1       3.686   7.446  17.410  0.00  0.00    +0.000 A 
ATOM     14  C   UNL     1       3.927   6.137  17.784  0.00  0.00    +0.000 A 
ATOM     15  C   UNL     1       3.264   5.584  18.885  0.00  0.00    +0.000 A 
ATOM     16  C   UNL     1       3.562   4.279  19.282  0.00  0.00    +0.000 A 
ATOM     17  N   UNL     1       2.997   3.641  20.329  0.00  0.00    +0.000 NA
ATOM     18  C   UNL     1       2.048   4.329  20.984  0.00  0.00    +0.000 A 
ATOM     19  C   UNL     1       1.655   5.619  20.656  0.00  0.00    +0.000 A 
ATOM     20  C   UNL     1       2.296   6.329  19.612  0.00  0.00    +0.000 A 
ENDBRANCH   5  11
BRANCH   1  24
ATOM     21  C   UNL     1      -3.525  14.667  20.928  0.00  0.00    +0.000 A 
ATOM     22  C   UNL     1      -4.147  13.480  20.576  0.00  0.00    +0.000 A 
ATOM     23  C   UNL     1      -3.384  12.400  20.110  0.00  0.00    +0.000 A 
ATOM     24  C   UNL     1      -1.981  12.460  19.977  0.00  0.00    +0.000 A 
ATOM     25  C   UNL     1      -1.359  13.679  20.323  0.00  0.00    +0.000 A 
ATOM     26  C   UNL     1       0.128  13.915  20.291  0.00  0.00    +0.000 C 
ATOM     27  C   UNL     1      -2.141  14.759  20.793  0.00  0.00    +0.000 A 
BRANCH  21  29
ATOM     28  C   UNL     1      -4.707  15.692  22.711  0.00  0.00    +0.000 C 
ATOM     29  O   UNL     1      -4.136  15.788  21.413  0.00  0.00    +0.000 OA
ENDBRANCH  21  29
ENDBRANCH   1  24
TORSDOF 3
ENDMDL
MODEL 4
REMARK VINA RESULT:      -7.2      1.229      2.160
REMARK  Name = 
REMARK  6 active torsions:
REMARK  status: ('A' for Active; 'I' for Inactive)
REMARK    1  A    between atoms: C_1  and  O_2
REMARK    2  A    between atoms: O_2  and  C_3
REMARK    3  A    between atoms: C_6  and  N_7
REMARK    4  A    between atoms: C_11  and  C_12
REMARK    5  A    between atoms: C_23  and  C_24
REMARK    6  A    between atoms: C_27  and  C_28
REMARK                            x       y       z     vdW  Elec       q    Type
REMARK                         _______ _______ _______ _____ _____    ______ ____
ROOT
ATOM      1  N   UNL     1       1.311  10.344  18.434  0.00  0.00    +0.000 N 
ATOM      2  C   UNL     1       2.311   9.978  17.435  0.00  0.00    +0.000 C 
ATOM      3  C   UNL     1       2.747   8.527  17.700  0.00  0.00    +0.000 C 
ATOM      4  C   UNL     1       2.104   8.202  19.010  0.00  0.00    +0.000 A 
ATOM      5  C   UNL     1       2.193   7.057  19.822  0.00  0.00    +0.000 A 
ATOM      6  C   UNL     1       1.492   7.147  21.040  0.00  0.00    +0.000 A 
ATOM      7  C   UNL     1       0.709   8.262  21.348  0.00  0.00    +0.000 A 
ATOM      8  C   UNL     1      -0.141   8.300  22.581  0.00  0.00    +0.000 C 
ATOM      9  N   UNL     1       0.639   9.340  20.550  0.00  0.00    +0.000 NA
ATOM     10  C   UNL     1       1.318   9.296  19.397  0.00  0.00    +0.000 A 
ENDROOT
BRANCH   5  11
ATOM     11  C   UNL     1       3.002   5.828  19.504  0.00  0.00    +0.000 A 
ATOM     12  C   UNL     1       4.406   5.952  19.410  0.00  0.00    +0.000 A 
ATOM     13  C   UNL     1       5.246   4.866  19.187  0.00  0.00    +0.000 A 
ATOM     14  C   UNL     1       4.715   3.592  19.106  0.00  0.00    +0.000 A 
ATOM     15  C   UNL     1       3.335   3.396  19.224  0.00  0.00    +0.000 A 
ATOM     16  C   UNL     1       2.822   2.097  19.196  0.00  0.00    +0.000 A 
ATOM     17  N   UNL     1       1.514   1.780  19.308  0.00  0.00    +0.000 NA
ATOM     18  C   UNL     1       0.671   2.820  19.405  0.00  0.00    +0.000 A 
ATOM     19  C   UNL     1       1.071   4.148  19.414  0.00  0.00    +0.000 A 
ATOM     20  C   UNL     1       2.444   4.493  19.379  0.00  0.00    +0.000 A 
ENDBRANCH   5  11
BRANCH   1  24
ATOM     21  C   UNL     1       0.014  14.371  18.876  0.00  0.00    +0.000 A 
ATOM     22  C   UNL     1       1.357  14.040  18.967  0.00  0.00    +0.000 A 
ATOM     23  C   UNL     1       1.762  12.706  18.822  0.00  0.00    +0.000 A 
ATOM     24  C   UNL     1       0.850  11.655  18.584  0.00  0.00    +0.000 A 
ATOM     25  C   UNL     1      -0.516  12.002  18.509  0.00  0.00    +0.000 A 
ATOM     26  C   UNL     1      -1.626  11.026  18.214  0.00  0.00    +0.000 C 
ATOM     27  C   UNL     1      -0.910  13.351  18.656  0.00  0.00    +0.000 A 
BRANCH  21  29
ATOM     28  C   UNL     1       0.403  16.707  19.021  0.00  0.00    +0.000 C 
ATOM     29  O   UNL     1      -0.518  15.625  18.977  0.00  0.00    +0.000 OA
ENDBRANCH  21  29
ENDBRANCH   1  24
TORSDOF 3
ENDMDL
MODEL 5
REMARK VINA RESULT:      -7.2      3.682      8.391
REMARK  Name = 
REMARK  6 active torsions:
REMARK  status: ('A' for Active; 'I' for Inactive)
REMARK    1  A    between atoms: C_1  and  O_2
REMARK    2  A    between atoms: O_2  and  C_3
REMARK    3  A    between atoms: C_6  and  N_7
REMARK    4  A    between atoms: C_11  and  C_12
REMARK    5  A    between atoms: C_23  and  C_24
REMARK    6  A    between atoms: C_27  and  C_28
REMARK                            x       y       z     vdW  Elec       q    Type
REMARK                         _______ _______ _______ _____ _____    ______ ____
ROOT
ATOM      1  N   UNL     1       1.093   8.771  20.378  0.00  0.00    +0.000 N 
ATOM      2  C   UNL     1       1.501   9.081  21.746  0.00  0.00    +0.000 C 
ATOM      3  C   UNL     1       0.546  10.151  22.302  0.00  0.00    +0.000 C 
ATOM      4  C   UNL     1      -0.254  10.561  21.107  0.00  0.00    +0.000 A 
ATOM      5  C   UNL     1      -1.231  11.560  20.950  0.00  0.00    +0.000 A 
ATOM      6  C   UNL     1      -1.717  11.702  19.635  0.00  0.00    +0.000 A 
ATOM      7  C   UNL     1      -1.307  10.846  18.611  0.00  0.00    +0.000 A 
ATOM      8  C   UNL     1      -1.922  10.912  17.247  0.00  0.00    +0.000 C 
ATOM      9  N   UNL     1      -0.375   9.896  18.792  0.00  0.00    +0.000 NA
ATOM     10  C   UNL     1       0.128   9.756  20.025  0.00  0.00    +0.000 A 
ENDROOT
BRANCH   5  11
ATOM     11  C   UNL     1      -1.717  12.478  22.040  0.00  0.00    +0.000 A 
ATOM     12  C   UNL     1      -2.858  12.100  22.780  0.00  0.00    +0.000 A 
ATOM     13  C   UNL     1      -3.346  12.845  23.849  0.00  0.00    +0.000 A 
ATOM     14  C   UNL     1      -2.669  13.978  24.260  0.00  0.00    +0.000 A 
ATOM     15  C   UNL     1      -1.512  14.390  23.591  0.00  0.00    +0.000 A 
ATOM     16  C   UNL     1      -0.810  15.505  24.056  0.00  0.00    +0.000 A 
ATOM     17  N   UNL     1       0.320  15.993  23.502  0.00  0.00    +0.000 NA
ATOM     18  C   UNL     1       0.744  15.361  22.396  0.00  0.00    +0.000 A 
ATOM     19  C   UNL     1       0.109  14.263  21.834  0.00  0.00    +0.000 A 
ATOM     20  C   UNL     1      -1.031  13.691  22.450  0.00  0.00    +0.000 A 
ENDBRANCH   5  11
BRANCH   1  24
ATOM     21  C   UNL     1       3.493   6.438  17.753  0.00  0.00    +0.000 A 
ATOM     22  C   UNL     1       3.285   7.788  17.519  0.00  0.00    +0.000 A 
ATOM     23  C   UNL     1       2.488   8.537  18.396  0.00  0.00    +0.000 A 
ATOM     24  C   UNL     1       1.868   7.973  19.531  0.00  0.00    +0.000 A 
ATOM     25  C   UNL     1       2.073   6.594  19.751  0.00  0.00    +0.000 A 
ATOM     26  C   UNL     1       1.533   5.831  20.932  0.00  0.00    +0.000 C 
ATOM     27  C   UNL     1       2.881   5.852  18.859  0.00  0.00    +0.000 A 
BRANCH  21  29
ATOM     28  C   UNL     1       5.171   6.201  16.093  0.00  0.00    +0.000 C 
ATOM     29  O   UNL     1       4.258   5.595  16.998  0.00  0.00    +0.000 OA
ENDBRANCH  21  29
ENDBRANCH   1  24
TORSDOF 3
ENDMDL
MODEL 6
REMARK VINA RESULT:      -7.0      2.676      3.696
REMARK  Name = 
REMARK  6 active torsions:
REMARK  status: ('A' for Active; 'I' for Inactive)
REMARK    1  A    between atoms: C_1  and  O_2
REMARK    2  A    between atoms: O_2  and  C_3
REMARK    3  A    between atoms: C_6  and  N_7
REMARK    4  A    between atoms: C_11  and  C_12
REMARK    5  A    between atoms: C_23  and  C_24
REMARK    6  A    between atoms: C_27  and  C_28
REMARK                            x       y       z     vdW  Elec       q    Type
REMARK                         _______ _______ _______ _____ _____    ______ ____
ROOT
ATOM      1  N   UNL     1      -1.380  11.412  19.675  0.00  0.00    +0.000 N 
ATOM      2  C   UNL     1      -0.980  11.323  18.273  0.00  0.00    +0.000 C 
ATOM      3  C   UNL     1      -0.015  10.135  18.123  0.00  0.00    +0.000 C 
ATOM      4  C   UNL     1       0.258   9.725  19.534  0.00  0.00    +0.000 A 
ATOM      5  C   UNL     1       1.128   8.753  20.060  0.00  0.00    +0.000 A 
ATOM      6  C   UNL     1       1.168   8.704  21.467  0.00  0.00    +0.000 A 
ATOM      7  C   UNL     1       0.336   9.508  22.248  0.00  0.00    +0.000 A 
ATOM      8  C   UNL     1       0.285   9.362  23.738  0.00  0.00    +0.000 C 
ATOM      9  N   UNL     1      -0.489  10.425  21.717  0.00  0.00    +0.000 NA
ATOM     10  C   UNL     1      -0.530  10.516  20.382  0.00  0.00    +0.000 A 
ENDROOT
BRANCH   5  11
ATOM     11  C   UNL     1       2.015   7.850  19.245  0.00  0.00    +0.000 A 
ATOM     12  C   UNL     1       2.698   8.398  18.138  0.00  0.00    +0.000 A 
ATOM     13  C   UNL     1       3.591   7.664  17.363  0.00  0.00    +0.000 A 
ATOM     14  C   UNL     1       3.882   6.357  17.705  0.00  0.00    +0.000 A 
ATOM     15  C   UNL     1       3.266   5.764  18.812  0.00  0.00    +0.000 A 
ATOM     16  C   UNL     1       3.615   4.461  19.176  0.00  0.00    +0.000 A 
ATOM     17  N   UNL     1       3.097   3.786  20.224  0.00  0.00    +0.000 NA
ATOM     18  C   UNL     1       2.145   4.431  20.916  0.00  0.00    +0.000 A 
ATOM     19  C   UNL     1       1.703   5.714  20.624  0.00  0.00    +0.000 A 
ATOM     20  C   UNL     1       2.294   6.464  19.578  0.00  0.00    +0.000 A 
ENDBRANCH   5  11
BRANCH   1  24
ATOM     21  C   UNL     1      -3.490  14.764  21.225  0.00  0.00    +0.000 A 
ATOM     22  C   UNL     1      -2.135  14.602  21.464  0.00  0.00    +0.000 A 
ATOM     23  C   UNL     1      -1.460  13.488  20.946  0.00  0.00    +0.000 A 
ATOM     24  C   UNL     1      -2.106  12.496  20.177  0.00  0.00    +0.000 A 
ATOM     25  C   UNL     1      -3.490  12.663  19.953  0.00  0.00    +0.000 A 
ATOM     26  C   UNL     1      -4.334  11.736  19.119  0.00  0.00    +0.000 C 
ATOM     27  C   UNL     1      -4.156  13.793  20.480  0.00  0.00    +0.000 A 
BRANCH  21  29
ATOM     28  C   UNL     1      -5.446  15.469  22.367  0.00  0.00    +0.000 C 
ATOM     29  O   UNL     1      -4.267  15.805  21.648  0.00  0.00    +0.000 OA
ENDBRANCH  21  29
ENDBRANCH   1  24
TORSDOF 3
ENDMDL
MODEL 7
REMARK VINA RESULT:      -7.0      3.729      8.504
REMARK  Name = 
REMARK  6 active torsions:
REMARK  status: ('A' for Active; 'I' for Inactive)
REMARK    1  A    between atoms: C_1  and  O_2
REMARK    2  A    between atoms: O_2  and  C_3
REMARK    3  A    between atoms: C_6  and  N_7
REMARK    4  A    between atoms: C_11  and  C_12
REMARK    5  A    between atoms: C_23  and  C_24
REMARK    6  A    between atoms: C_27  and  C_28
REMARK                            x       y       z     vdW  Elec       q    Type
REMARK                         _______ _______ _______ _____ _____    ______ ____
ROOT
ATOM      1  N   UNL     1       0.908   8.804  20.612  0.00  0.00    +0.000 N 
ATOM      2  C   UNL     1       1.332   9.153  21.965  0.00  0.00    +0.000 C 
ATOM      3  C   UNL     1       0.388  10.246  22.498  0.00  0.00    +0.000 C 
ATOM      4  C   UNL     1      -0.421  10.624  21.299  0.00  0.00    +0.000 A 
ATOM      5  C   UNL     1      -1.393  11.625  21.122  0.00  0.00    +0.000 A 
ATOM      6  C   UNL     1      -1.891  11.730  19.808  0.00  0.00    +0.000 A 
ATOM      7  C   UNL     1      -1.497  10.841  18.807  0.00  0.00    +0.000 A 
ATOM      8  C   UNL     1      -2.125  10.870  17.448  0.00  0.00    +0.000 C 
ATOM      9  N   UNL     1      -0.569   9.891  19.007  0.00  0.00    +0.000 NA
ATOM     10  C   UNL     1      -0.055   9.784  20.239  0.00  0.00    +0.000 A 
ENDROOT
BRANCH   5  11
ATOM     11  C   UNL     1      -1.862  12.578  22.188  0.00  0.00    +0.000 A 
ATOM     12  C   UNL     1      -3.018  12.247  22.926  0.00  0.00    +0.000 A 
ATOM     13  C   UNL     1      -3.494  13.027  23.976  0.00  0.00    +0.000 A 
ATOM     14  C   UNL     1      -2.790  14.150  24.369  0.00  0.00    +0.000 A 
ATOM     15  C   UNL     1      -1.616  14.516  23.701  0.00  0.00    +0.000 A 
ATOM     16  C   UNL     1      -0.888  15.621  24.149  0.00  0.00    +0.000 A 
ATOM     17  N   UNL     1       0.259  16.067  23.594  0.00  0.00    +0.000 NA
ATOM     18  C   UNL     1       0.675  15.401  22.505  0.00  0.00    +0.000 A 
ATOM     19  C   UNL     1       0.014  14.309  21.961  0.00  0.00    +0.000 A 
ATOM     20  C   UNL     1      -1.146  13.781  22.579  0.00  0.00    +0.000 A 
ENDBRANCH   5  11
BRANCH   1  24
ATOM     21  C   UNL     1       3.182   6.195  18.140  0.00  0.00    +0.000 A 
ATOM     22  C   UNL     1       2.621   5.746  19.325  0.00  0.00    +0.000 A 
ATOM     23  C   UNL     1       1.879   6.624  20.126  0.00  0.00    +0.000 A 
ATOM     24  C   UNL     1       1.669   7.976  19.781  0.00  0.00    +0.000 A 
ATOM     25  C   UNL     1       2.258   8.427  18.580  0.00  0.00    +0.000 A 
ATOM     26  C   UNL     1       2.104   9.819  18.027  0.00  0.00    +0.000 C 
ATOM     27  C   UNL     1       3.003   7.529  17.782  0.00  0.00    +0.000 A 
BRANCH  21  29
ATOM     28  C   UNL     1       3.649   4.052  17.236  0.00  0.00    +0.000 C 
ATOM     29  O   UNL     1       3.909   5.449  17.256  0.00  0.00    +0.000 OA
ENDBRANCH  21  29
ENDBRANCH   1  24
TORSDOF 3
ENDMDL
MODEL 8
REMARK VINA RESULT:      -6.9      3.814      9.251
REMARK  Name = 
REMARK  6 active torsions:
REMARK  status: ('A' for Active; 'I' for Inactive)
REMARK    1  A    between atoms: C_1  and  O_2
REMARK    2  A    between atoms: O_2  and  C_3
REMARK    3  A    between atoms: C_6  and  N_7
REMARK    4  A    between atoms: C_11  and  C_12
REMARK    5  A    between atoms: C_23  and  C_24
REMARK    6  A    between atoms: C_27  and  C_28
REMARK                            x       y       z     vdW  Elec       q    Type
REMARK                         _______ _______ _______ _____ _____    ______ ____
ROOT
ATOM      1  N   UNL     1       0.474   9.599  20.496  0.00  0.00    +0.000 N 
ATOM      2  C   UNL     1       0.977  10.525  21.508  0.00  0.00    +0.000 C 
ATOM      3  C   UNL     1      -0.006  11.704  21.610  0.00  0.00    +0.000 C 
ATOM      4  C   UNL     1      -0.937  11.485  20.462  0.00  0.00    +0.000 A 
ATOM      5  C   UNL     1      -1.999  12.267  19.973  0.00  0.00    +0.000 A 
ATOM      6  C   UNL     1      -2.609  11.764  18.808  0.00  0.00    +0.000 A 
ATOM      7  C   UNL     1      -2.227  10.539  18.257  0.00  0.00    +0.000 A 
ATOM      8  C   UNL     1      -2.964   9.942  17.098  0.00  0.00    +0.000 C 
ATOM      9  N   UNL     1      -1.211   9.810  18.749  0.00  0.00    +0.000 NA
ATOM     10  C   UNL     1      -0.592  10.277  19.840  0.00  0.00    +0.000 A 
ENDROOT
BRANCH   5  11
ATOM     11  C   UNL     1      -2.455  13.575  20.562  0.00  0.00    +0.000 A 
ATOM     12  C   UNL     1      -1.702  14.737  20.286  0.00  0.00    +0.000 A 
ATOM     13  C   UNL     1      -2.077  16.003  20.728  0.00  0.00    +0.000 A 
ATOM     14  C   UNL     1      -3.263  16.164  21.420  0.00  0.00    +0.000 A 
ATOM     15  C   UNL     1      -4.074  15.058  21.697  0.00  0.00    +0.000 A 
ATOM     16  C   UNL     1      -5.295  15.248  22.348  0.00  0.00    +0.000 A 
ATOM     17  N   UNL     1      -6.164  14.265  22.662  0.00  0.00    +0.000 NA
ATOM     18  C   UNL     1      -5.769  13.019  22.353  0.00  0.00    +0.000 A 
ATOM     19  C   UNL     1      -4.566  12.716  21.732  0.00  0.00    +0.000 A 
ATOM     20  C   UNL     1      -3.681  13.744  21.324  0.00  0.00    +0.000 A 
ENDBRANCH   5  11
BRANCH   1  24
ATOM     21  C   UNL     1       2.719   6.244  19.156  0.00  0.00    +0.000 A 
ATOM     22  C   UNL     1       2.005   6.196  20.343  0.00  0.00    +0.000 A 
ATOM     23  C   UNL     1       1.275   7.315  20.767  0.00  0.00    +0.000 A 
ATOM     24  C   UNL     1       1.230   8.518  20.031  0.00  0.00    +0.000 A 
ATOM     25  C   UNL     1       1.973   8.561  18.832  0.00  0.00    +0.000 A 
ATOM     26  C   UNL     1       2.007   9.738  17.893  0.00  0.00    +0.000 C 
ATOM     27  C   UNL     1       2.703   7.424  18.416  0.00  0.00    +0.000 A 
BRANCH  21  29
ATOM     28  C   UNL     1       4.817   5.147  19.007  0.00  0.00    +0.000 C 
ATOM     29  O   UNL     1       3.454   5.228  18.613  0.00  0.00    +0.000 OA
ENDBRANCH  21  29
ENDBRANCH   1  24
TORSDOF 3
ENDMDL
MODEL 9
REMARK VINA RESULT:      -6.9      3.998      7.703
REMARK  Name = 
REMARK  6 active torsions:
REMARK  status: ('A' for Active; 'I' for Inactive)
REMARK    1  A    between atoms: C_1  and  O_2
REMARK    2  A    between atoms: O_2  and  C_3
REMARK    3  A    between atoms: C_6  and  N_7
REMARK    4  A    between atoms: C_11  and  C_12
REMARK    5  A    between atoms: C_23  and  C_24
REMARK    6  A    between atoms: C_27  and  C_28
REMARK                            x       y       z     vdW  Elec       q    Type
REMARK                         _______ _______ _______ _____ _____    ______ ____
ROOT
ATOM      1  N   UNL     1       1.738  14.138  19.218  0.00  0.00    +0.000 N 
ATOM      2  C   UNL     1       0.699  15.154  19.080  0.00  0.00    +0.000 C 
ATOM      3  C   UNL     1      -0.658  14.440  18.954  0.00  0.00    +0.000 C 
ATOM      4  C   UNL     1      -0.283  13.000  18.810  0.00  0.00    +0.000 A 
ATOM      5  C   UNL     1      -1.073  11.861  18.574  0.00  0.00    +0.000 A 
ATOM      6  C   UNL     1      -0.345  10.664  18.422  0.00  0.00    +0.000 A 
ATOM      7  C   UNL     1       1.041  10.630  18.587  0.00  0.00    +0.000 A 
ATOM      8  C   UNL     1       1.797   9.338  18.557  0.00  0.00    +0.000 C 
ATOM      9  N   UNL     1       1.769  11.735  18.817  0.00  0.00    +0.000 NA
ATOM     10  C   UNL     1       1.108  12.893  18.937  0.00  0.00    +0.000 A 
ENDROOT
BRANCH   5  11
ATOM     11  C   UNL     1      -2.571  11.860  18.422  0.00  0.00    +0.000 A 
ATOM     12  C   UNL     1      -3.123  11.465  17.184  0.00  0.00    +0.000 A 
ATOM     13  C   UNL     1      -4.493  11.367  16.965  0.00  0.00    +0.000 A 
ATOM     14  C   UNL     1      -5.373  11.605  18.004  0.00  0.00    +0.000 A 
ATOM     15  C   UNL     1      -4.891  11.967  19.267  0.00  0.00    +0.000 A 
ATOM     16  C   UNL     1      -5.791  12.149  20.319  0.00  0.00    +0.000 A 
ATOM     17  N   UNL     1      -5.448  12.491  21.579  0.00  0.00    +0.000 NA
ATOM     18  C   UNL     1      -4.140  12.708  21.786  0.00  0.00    +0.000 A 
ATOM     19  C   UNL     1      -3.165  12.583  20.807  0.00  0.00    +0.000 A 
ATOM     20  C   UNL     1      -3.500  12.148  19.501  0.00  0.00    +0.000 A 
ENDBRANCH   5  11
BRANCH   1  24
ATOM     21  C   UNL     1       5.870  15.115  18.954  0.00  0.00    +0.000 A 
ATOM     22  C   UNL     1       5.115  14.896  17.813  0.00  0.00    +0.000 A 
ATOM     23  C   UNL     1       3.755  14.572  17.924  0.00  0.00    +0.000 A 
ATOM     24  C   UNL     1       3.100  14.451  19.167  0.00  0.00    +0.000 A 
ATOM     25  C   UNL     1       3.883  14.661  20.324  0.00  0.00    +0.000 A 
ATOM     26  C   UNL     1       3.348  14.621  21.731  0.00  0.00    +0.000 C 
ATOM     27  C   UNL     1       5.252  14.989  20.197  0.00  0.00    +0.000 A 
BRANCH  21  29
ATOM     28  C   UNL     1       7.530  16.755  18.530  0.00  0.00    +0.000 C 
ATOM     29  O   UNL     1       7.192  15.456  18.996  0.00  0.00    +0.000 OA
ENDBRANCH  21  29
ENDBRANCH   1  24
TORSDOF 3
ENDMDL
