MODEL 1
REMARK VINA RESULT:      -8.3      0.000      0.000
REMARK  Name = 
REMARK  1 active torsions:
REMARK  status: ('A' for Active; 'I' for Inactive)
REMARK    1  A    between atoms: C_1  and  C_2
REMARK                            x       y       z     vdW  Elec       q    Type
REMARK                         _______ _______ _______ _____ _____    ______ ____
ROOT
ATOM      1  C   UNL     1       5.811   4.682  15.033  0.00  0.00    +0.000 C 
ATOM      2  C   UNL     1       5.174   5.682  15.939  0.00  0.00    +0.000 C 
ATOM      3  C   UNL     1       4.658   5.412  17.155  0.00  0.00    +0.000 C 
ATOM      4  C   UNL     1       4.621   4.046  17.770  0.00  0.00    +0.000 C 
ATOM      5  C   UNL     1       3.165   3.634  17.687  0.00  0.00    +0.000 C 
ATOM      6  C   UNL     1       2.913   2.277  18.296  0.00  0.00    +0.000 C 
ATOM      7  O   UNL     1       3.642   1.312  18.182  0.00  0.00    +0.000 OA
ATOM      8  C   UNL     1       1.574   2.259  18.963  0.00  0.00    +0.000 C 
ATOM      9  C   UNL     1       1.510   3.692  19.492  0.00  0.00    +0.000 C 
ATOM     10  C   UNL     1       2.168   4.594  18.420  0.00  0.00    +0.000 C 
ATOM     11  C   UNL     1       2.870   5.871  18.986  0.00  0.00    +0.000 C 
ATOM     12  C   UNL     1       2.121   7.169  19.126  0.00  0.00    +0.000 A 
ATOM     13  C   UNL     1       1.480   7.723  20.223  0.00  0.00    +0.000 A 
ATOM     14  C   UNL     1       1.209   9.106  20.213  0.00  0.00    +0.000 A 
ATOM     15  C   UNL     1       1.541   9.910  19.109  0.00  0.00    +0.000 A 
ATOM     16  C   UNL     1       2.134   9.339  17.988  0.00  0.00    +0.000 A 
ATOM     17  C   UNL     1       2.437   7.994  18.047  0.00  0.00    +0.000 A 
ATOM     18  O   UNL     1       3.276   7.397  17.142  0.00  0.00    +0.000 OA
ATOM     19  C   UNL     1       3.943   6.437  17.993  0.00  0.00    +0.000 C 
ENDROOT
TORSDOF 0
ENDMDL
MODEL 2
REMARK VINA RESULT:      -8.2      1.576      3.517
REMARK  Name = 
REMARK  1 active torsions:
REMARK  status: ('A' for Active; 'I' for Inactive)
REMARK    1  A    between atoms: C_1  and  C_2
REMARK                            x       y       z     vdW  Elec       q    Type
REMARK                         _______ _______ _______ _____ _____    ______ ____
ROOT
ATOM      1  C   UNL     1       4.058   2.069  20.162  0.00  0.00    +0.000 C 
ATOM      2  C   UNL     1       3.301   3.348  20.024  0.00  0.00    +0.000 C 
ATOM      3  C   UNL     1       3.180   4.060  18.885  0.00  0.00    +0.000 C 
ATOM      4  C   UNL     1       3.821   3.684  17.584  0.00  0.00    +0.000 C 
ATOM      5  C   UNL     1       4.952   4.679  17.418  0.00  0.00    +0.000 C 
ATOM      6  C   UNL     1       5.710   4.484  16.129  0.00  0.00    +0.000 C 
ATOM      7  O   UNL     1       6.008   3.409  15.648  0.00  0.00    +0.000 OA
ATOM      8  C   UNL     1       6.146   5.809  15.588  0.00  0.00    +0.000 C 
ATOM      9  C   UNL     1       4.960   6.680  16.005  0.00  0.00    +0.000 C 
ATOM     10  C   UNL     1       4.506   6.181  17.397  0.00  0.00    +0.000 C 
ATOM     11  C   UNL     1       2.980   6.359  17.688  0.00  0.00    +0.000 C 
ATOM     12  C   UNL     1       2.458   7.609  18.344  0.00  0.00    +0.000 A 
ATOM     13  C   UNL     1       1.910   8.754  17.787  0.00  0.00    +0.000 A 
ATOM     14  C   UNL     1       1.136   9.595  18.611  0.00  0.00    +0.000 A 
ATOM     15  C   UNL     1       0.946   9.312  19.975  0.00  0.00    +0.000 A 
ATOM     16  C   UNL     1       1.542   8.190  20.541  0.00  0.00    +0.000 A 
ATOM     17  C   UNL     1       2.250   7.357  19.700  0.00  0.00    +0.000 A 
ATOM     18  O   UNL     1       2.622   6.092  20.074  0.00  0.00    +0.000 OA
ATOM     19  C   UNL     1       2.483   5.392  18.816  0.00  0.00    +0.000 C 
ENDROOT
TORSDOF 0
ENDMDL
MODEL 3
REMARK VINA RESULT:      -8.2      1.240      1.255
REMARK  Name = 
REMARK  1 active torsions:
REMARK  status: ('A' for Active; 'I' for Inactive)
REMARK    1  A    between atoms: C_1  and  C_2
REMARK                            x       y       z     vdW  Elec       q    Type
REMARK                         _______ _______ _______ _____ _____    ______ ____
ROOT
ATOM      1  C   UNL     1       5.947   4.287  15.901  0.00  0.00    +0.000 C 
ATOM      2  C   UNL     1       5.197   5.406  16.545  0.00  0.00    +0.000 C 
ATOM      3  C   UNL     1       4.864   5.468  17.850  0.00  0.00    +0.000 C 
ATOM      4  C   UNL     1       5.175   4.398  18.851  0.00  0.00    +0.000 C 
ATOM      5  C   UNL     1       3.839   3.738  19.125  0.00  0.00    +0.000 C 
ATOM      6  C   UNL     1       3.938   2.637  20.151  0.00  0.00    +0.000 C 
ATOM      7  O   UNL     1       4.842   1.828  20.226  0.00  0.00    +0.000 OA
ATOM      8  C   UNL     1       2.700   2.611  20.992  0.00  0.00    +0.000 C 
ATOM      9  C   UNL     1       2.383   4.105  21.061  0.00  0.00    +0.000 C 
ATOM     10  C   UNL     1       2.732   4.700  19.676  0.00  0.00    +0.000 C 
ATOM     11  C   UNL     1       3.196   6.193  19.707  0.00  0.00    +0.000 C 
ATOM     12  C   UNL     1       2.204   7.315  19.558  0.00  0.00    +0.000 A 
ATOM     13  C   UNL     1       1.564   8.082  20.519  0.00  0.00    +0.000 A 
ATOM     14  C   UNL     1       1.004   9.315  20.129  0.00  0.00    +0.000 A 
ATOM     15  C   UNL     1       1.055   9.753  18.794  0.00  0.00    +0.000 A 
ATOM     16  C   UNL     1       1.651   8.955  17.824  0.00  0.00    +0.000 A 
ATOM     17  C   UNL     1       2.237   7.778  18.243  0.00  0.00    +0.000 A 
ATOM     18  O   UNL     1       3.097   7.069  17.445  0.00  0.00    +0.000 OA
ATOM     19  C   UNL     1       4.028   6.574  18.434  0.00  0.00    +0.000 C 
ENDROOT
TORSDOF 0
ENDMDL
MODEL 4
REMARK VINA RESULT:      -8.0      3.058      5.873
REMARK  Name = 
REMARK  1 active torsions:
REMARK  status: ('A' for Active; 'I' for Inactive)
REMARK    1  A    between atoms: C_1  and  C_2
REMARK                            x       y       z     vdW  Elec       q    Type
REMARK                         _______ _______ _______ _____ _____    ______ ____
ROOT
ATOM      1  C   UNL     1       8.009   7.778  18.526  0.00  0.00    +0.000 C 
ATOM      2  C   UNL     1       7.672   7.201  17.191  0.00  0.00    +0.000 C 
ATOM      3  C   UNL     1       6.496   6.626  16.868  0.00  0.00    +0.000 C 
ATOM      4  C   UNL     1       5.353   6.453  17.821  0.00  0.00    +0.000 C 
ATOM      5  C   UNL     1       5.344   4.971  18.135  0.00  0.00    +0.000 C 
ATOM      6  C   UNL     1       4.225   4.584  19.068  0.00  0.00    +0.000 C 
ATOM      7  O   UNL     1       3.860   5.231  20.030  0.00  0.00    +0.000 OA
ATOM      8  C   UNL     1       3.705   3.228  18.707  0.00  0.00    +0.000 C 
ATOM      9  C   UNL     1       3.856   3.271  17.186  0.00  0.00    +0.000 C 
ATOM     10  C   UNL     1       5.168   4.037  16.889  0.00  0.00    +0.000 C 
ATOM     11  C   UNL     1       5.168   4.828  15.541  0.00  0.00    +0.000 C 
ATOM     12  C   UNL     1       5.655   4.188  14.269  0.00  0.00    +0.000 A 
ATOM     13  C   UNL     1       4.952   3.564  13.250  0.00  0.00    +0.000 A 
ATOM     14  C   UNL     1       5.580   3.412  11.997  0.00  0.00    +0.000 A 
ATOM     15  C   UNL     1       6.899   3.846  11.781  0.00  0.00    +0.000 A 
ATOM     16  C   UNL     1       7.619   4.424  12.821  0.00  0.00    +0.000 A 
ATOM     17  C   UNL     1       6.962   4.608  14.021  0.00  0.00    +0.000 A 
ATOM     18  O   UNL     1       7.461   5.420  15.006  0.00  0.00    +0.000 OA
ATOM     19  C   UNL     1       6.236   5.975  15.536  0.00  0.00    +0.000 C 
ENDROOT
TORSDOF 0
ENDMDL
MODEL 5
REMARK VINA RESULT:      -7.9      1.797      4.696
REMARK  Name = 
REMARK  1 active torsions:
REMARK  status: ('A' for Active; 'I' for Inactive)
REMARK    1  A    between atoms: C_1  and  C_2
REMARK                            x       y       z     vdW  Elec       q    Type
REMARK                         _______ _______ _______ _____ _____    ______ ____
ROOT
ATOM      1  C   UNL     1       1.442   7.812  20.850  0.00  0.00    +0.000 C 
ATOM      2  C   UNL     1       2.112   7.343  19.602  0.00  0.00    +0.000 C 
ATOM      3  C   UNL     1       2.212   6.057  19.211  0.00  0.00    +0.000 C 
ATOM      4  C   UNL     1       1.686   4.894  19.996  0.00  0.00    +0.000 C 
ATOM      5  C   UNL     1       2.925   4.227  20.560  0.00  0.00    +0.000 C 
ATOM      6  C   UNL     1       2.602   2.995  21.367  0.00  0.00    +0.000 C 
ATOM      7  O   UNL     1       1.666   2.886  22.135  0.00  0.00    +0.000 OA
ATOM      8  C   UNL     1       3.670   1.965  21.175  0.00  0.00    +0.000 C 
ATOM      9  C   UNL     1       4.032   2.214  19.710  0.00  0.00    +0.000 C 
ATOM     10  C   UNL     1       3.956   3.743  19.485  0.00  0.00    +0.000 C 
ATOM     11  C   UNL     1       3.556   4.168  18.034  0.00  0.00    +0.000 C 
ATOM     12  C   UNL     1       4.604   4.409  16.982  0.00  0.00    +0.000 A 
ATOM     13  C   UNL     1       5.096   3.570  15.994  0.00  0.00    +0.000 A 
ATOM     14  C   UNL     1       5.766   4.147  14.896  0.00  0.00    +0.000 A 
ATOM     15  C   UNL     1       5.969   5.536  14.809  0.00  0.00    +0.000 A 
ATOM     16  C   UNL     1       5.521   6.368  15.829  0.00  0.00    +0.000 A 
ATOM     17  C   UNL     1       4.822   5.782  16.865  0.00  0.00    +0.000 A 
ATOM     18  O   UNL     1       4.088   6.520  17.756  0.00  0.00    +0.000 OA
ATOM     19  C   UNL     1       2.978   5.624  17.990  0.00  0.00    +0.000 C 
ENDROOT
TORSDOF 0
ENDMDL
MODEL 6
REMARK VINA RESULT:      -7.8      2.927      5.032
REMARK  Name = 
REMARK  1 active torsions:
REMARK  status: ('A' for Active; 'I' for Inactive)
REMARK    1  A    between atoms: C_1  and  C_2
REMARK                            x       y       z     vdW  Elec       q    Type
REMARK                         _______ _______ _______ _____ _____    ______ ____
ROOT
ATOM      1  C   UNL     1       8.275   7.129  18.756  0.00  0.00    +0.000 C 
ATOM      2  C   UNL     1       7.111   6.228  19.001  0.00  0.00    +0.000 C 
ATOM      3  C   UNL     1       6.740   5.205  18.206  0.00  0.00    +0.000 C 
ATOM      4  C   UNL     1       7.431   4.836  16.929  0.00  0.00    +0.000 C 
ATOM      5  C   UNL     1       6.478   5.284  15.840  0.00  0.00    +0.000 C 
ATOM      6  C   UNL     1       6.988   4.965  14.457  0.00  0.00    +0.000 C 
ATOM      7  O   UNL     1       8.142   5.077  14.093  0.00  0.00    +0.000 OA
ATOM      8  C   UNL     1       5.844   4.602  13.563  0.00  0.00    +0.000 C 
ATOM      9  C   UNL     1       4.937   3.876  14.557  0.00  0.00    +0.000 C 
ATOM     10  C   UNL     1       5.056   4.630  15.903  0.00  0.00    +0.000 C 
ATOM     11  C   UNL     1       4.862   3.735  17.170  0.00  0.00    +0.000 C 
ATOM     12  C   UNL     1       3.501   3.549  17.785  0.00  0.00    +0.000 A 
ATOM     13  C   UNL     1       2.571   2.534  17.619  0.00  0.00    +0.000 A 
ATOM     14  C   UNL     1       1.566   2.380  18.596  0.00  0.00    +0.000 A 
ATOM     15  C   UNL     1       1.475   3.249  19.697  0.00  0.00    +0.000 A 
ATOM     16  C   UNL     1       2.378   4.298  19.830  0.00  0.00    +0.000 A 
ATOM     17  C   UNL     1       3.383   4.393  18.889  0.00  0.00    +0.000 A 
ATOM     18  O   UNL     1       4.484   5.187  19.078  0.00  0.00    +0.000 OA
ATOM     19  C   UNL     1       5.503   4.381  18.446  0.00  0.00    +0.000 C 
ENDROOT
TORSDOF 0
ENDMDL
MODEL 7
REMARK VINA RESULT:      -7.7      1.555      5.562
REMARK  Name = 
REMARK  1 active torsions:
REMARK  status: ('A' for Active; 'I' for Inactive)
REMARK    1  A    between atoms: C_1  and  C_2
REMARK                            x       y       z     vdW  Elec       q    Type
REMARK                         _______ _______ _______ _____ _____    ______ ____
ROOT
ATOM      1  C   UNL     1       1.635   2.928  21.096  0.00  0.00    +0.000 C 
ATOM      2  C   UNL     1       2.677   3.122  20.044  0.00  0.00    +0.000 C 
ATOM      3  C   UNL     1       3.261   4.298  19.737  0.00  0.00    +0.000 C 
ATOM      4  C   UNL     1       2.927   5.602  20.394  0.00  0.00    +0.000 C 
ATOM      5  C   UNL     1       2.145   6.365  19.344  0.00  0.00    +0.000 C 
ATOM      6  C   UNL     1       1.740   7.741  19.810  0.00  0.00    +0.000 C 
ATOM      7  O   UNL     1       1.343   8.013  20.926  0.00  0.00    +0.000 OA
ATOM      8  C   UNL     1       1.785   8.701  18.664  0.00  0.00    +0.000 C 
ATOM      9  C   UNL     1       2.983   8.150  17.890  0.00  0.00    +0.000 C 
ATOM     10  C   UNL     1       2.915   6.608  18.001  0.00  0.00    +0.000 C 
ATOM     11  C   UNL     1       4.304   5.891  17.967  0.00  0.00    +0.000 C 
ATOM     12  C   UNL     1       4.904   5.428  16.667  0.00  0.00    +0.000 A 
ATOM     13  C   UNL     1       5.832   6.040  15.838  0.00  0.00    +0.000 A 
ATOM     14  C   UNL     1       6.527   5.242  14.907  0.00  0.00    +0.000 A 
ATOM     15  C   UNL     1       6.271   3.865  14.786  0.00  0.00    +0.000 A 
ATOM     16  C   UNL     1       5.301   3.266  15.583  0.00  0.00    +0.000 A 
ATOM     17  C   UNL     1       4.674   4.060  16.521  0.00  0.00    +0.000 A 
ATOM     18  O   UNL     1       3.932   3.529  17.544  0.00  0.00    +0.000 OA
ATOM     19  C   UNL     1       4.240   4.461  18.606  0.00  0.00    +0.000 C 
ENDROOT
TORSDOF 0
ENDMDL
MODEL 8
REMARK VINA RESULT:      -7.6      1.518      3.553
REMARK  Name = 
REMARK  1 active torsions:
REMARK  status: ('A' for Active; 'I' for Inactive)
REMARK    1  A    between atoms: C_1  and  C_2
REMARK                            x       y       z     vdW  Elec       q    Type
REMARK                         _______ _______ _______ _____ _____    ______ ____
ROOT
ATOM      1  C   UNL     1       2.773   2.695  21.028  0.00  0.00    +0.000 C 
ATOM      2  C   UNL     1       2.213   4.043  20.714  0.00  0.00    +0.000 C 
ATOM      3  C   UNL     1       2.280   4.651  19.513  0.00  0.00    +0.000 C 
ATOM      4  C   UNL     1       2.959   4.069  18.310  0.00  0.00    +0.000 C 
ATOM      5  C   UNL     1       4.227   4.885  18.160  0.00  0.00    +0.000 C 
ATOM      6  C   UNL     1       5.046   4.468  16.965  0.00  0.00    +0.000 C 
ATOM      7  O   UNL     1       5.227   3.321  16.606  0.00  0.00    +0.000 OA
ATOM      8  C   UNL     1       5.702   5.665  16.352  0.00  0.00    +0.000 C 
ATOM      9  C   UNL     1       4.621   6.721  16.586  0.00  0.00    +0.000 C 
ATOM     10  C   UNL     1       3.998   6.424  17.971  0.00  0.00    +0.000 C 
ATOM     11  C   UNL     1       2.494   6.828  18.109  0.00  0.00    +0.000 C 
ATOM     12  C   UNL     1       2.102   8.194  18.606  0.00  0.00    +0.000 A 
ATOM     13  C   UNL     1       1.763   9.341  17.907  0.00  0.00    +0.000 A 
ATOM     14  C   UNL     1       1.053  10.354  18.584  0.00  0.00    +0.000 A 
ATOM     15  C   UNL     1       0.723  10.232  19.945  0.00  0.00    +0.000 A 
ATOM     16  C   UNL     1       1.112   9.102  20.656  0.00  0.00    +0.000 A 
ATOM     17  C   UNL     1       1.759   8.104  19.955  0.00  0.00    +0.000 A 
ATOM     18  O   UNL     1       1.922   6.844  20.468  0.00  0.00    +0.000 OA
ATOM     19  C   UNL     1       1.782   6.049  19.268  0.00  0.00    +0.000 C 
ENDROOT
TORSDOF 0
ENDMDL
MODEL 9
REMARK VINA RESULT:      -7.5      1.863      4.884
REMARK  Name = 
REMARK  1 active torsions:
REMARK  status: ('A' for Active; 'I' for Inactive)
REMARK    1  A    between atoms: C_1  and  C_2
REMARK                            x       y       z     vdW  Elec       q    Type
REMARK                         _______ _______ _______ _____ _____    ______ ____
ROOT
ATOM      1  C   UNL     1       2.121   9.098  17.511  0.00  0.00    +0.000 C 
ATOM      2  C   UNL     1       2.196   7.946  18.457  0.00  0.00    +0.000 C 
ATOM      3  C   UNL     1       3.203   7.051  18.514  0.00  0.00    +0.000 C 
ATOM      4  C   UNL     1       4.394   7.064  17.605  0.00  0.00    +0.000 C 
ATOM      5  C   UNL     1       4.166   5.897  16.667  0.00  0.00    +0.000 C 
ATOM      6  C   UNL     1       5.291   5.719  15.679  0.00  0.00    +0.000 C 
ATOM      7  O   UNL     1       5.874   6.622  15.111  0.00  0.00    +0.000 OA
ATOM      8  C   UNL     1       5.510   4.263  15.412  0.00  0.00    +0.000 C 
ATOM      9  C   UNL     1       5.201   3.680  16.791  0.00  0.00    +0.000 C 
ATOM     10  C   UNL     1       4.028   4.505  17.372  0.00  0.00    +0.000 C 
ATOM     11  C   UNL     1       4.023   4.620  18.931  0.00  0.00    +0.000 C 
ATOM     12  C   UNL     1       3.288   3.617  19.779  0.00  0.00    +0.000 A 
ATOM     13  C   UNL     1       3.748   2.481  20.428  0.00  0.00    +0.000 A 
ATOM     14  C   UNL     1       2.967   1.944  21.472  0.00  0.00    +0.000 A 
ATOM     15  C   UNL     1       1.734   2.514  21.833  0.00  0.00    +0.000 A 
ATOM     16  C   UNL     1       1.253   3.621  21.144  0.00  0.00    +0.000 A 
ATOM     17  C   UNL     1       2.061   4.158  20.162  0.00  0.00    +0.000 A 
ATOM     18  O   UNL     1       1.833   5.400  19.630  0.00  0.00    +0.000 OA
ATOM     19  C   UNL     1       3.190   5.853  19.424  0.00  0.00    +0.000 C 
ENDROOT
TORSDOF 0
ENDMDL
