MODEL 1
REMARK VINA RESULT:      -8.0      0.000      0.000
REMARK  Name = 
REMARK  6 active torsions:
REMARK  status: ('A' for Active; 'I' for Inactive)
REMARK    1  A    between atoms: C_1  and  C_2
REMARK    2  A    between atoms: C_2  and  O_3
REMARK    3  A    between atoms: O_3  and  C_4
REMARK    4  A    between atoms: C_4  and  C_6
REMARK    5  A    between atoms: C_6  and  C_7
REMARK    6  A    between atoms: C_7  and  C_8
REMARK                            x       y       z     vdW  Elec       q    Type
REMARK                         _______ _______ _______ _____ _____    ______ ____
ROOT
ATOM      1  C   UNL     1       5.743   5.146  16.719  0.00  0.00    +0.000 C 
ATOM      2  C   UNL     1       5.004   6.385  16.164  0.00  0.00    +0.000 C 
ATOM      3  O   UNL     1       5.297   7.077  15.199  0.00  0.00    +0.000 OA
ATOM      4  N   UNL     1       3.876   6.597  16.953  0.00  0.00    +0.000 N 
ATOM      5  C   UNL     1       3.812   5.702  18.003  0.00  0.00    +0.000 A 
ATOM      6  C   UNL     1       2.807   5.583  18.938  0.00  0.00    +0.000 A 
ATOM      7  C   UNL     1       2.919   4.550  19.871  0.00  0.00    +0.000 A 
ATOM      8  C   UNL     1       4.039   3.698  19.868  0.00  0.00    +0.000 A 
ATOM      9  C   UNL     1       5.057   3.852  18.922  0.00  0.00    +0.000 A 
ATOM     10  C   UNL     1       4.917   4.854  17.973  0.00  0.00    +0.000 A 
ATOM     11  H   UNL     1       3.219   7.341  16.768  0.00  0.00    +0.000 HD
ENDROOT
BRANCH   1  12
ATOM     12  C   UNL     1       7.197   5.382  17.049  0.00  0.00    +0.000 C 
ATOM     13  O   UNL     1       7.943   4.496  17.467  0.00  0.00    +0.000 OA
BRANCH  12  14
ATOM     14  O   UNL     1       7.565   6.690  16.953  0.00  0.00    +0.000 OA
BRANCH  14  16
ATOM     15  C   UNL     1       8.185   8.780  17.952  0.00  0.00    +0.000 C 
ATOM     16  C   UNL     1       7.927   7.305  18.196  0.00  0.00    +0.000 C 
ENDBRANCH  14  16
ENDBRANCH  12  14
ENDBRANCH   1  12
BRANCH   1  17
ATOM     17  C   UNL     1       5.587   3.920  15.793  0.00  0.00    +0.000 C 
BRANCH  17  18
ATOM     18  C   UNL     1       6.130   4.071  14.397  0.00  0.00    +0.000 A 
ATOM     19  C   UNL     1       7.283   4.822  14.140  0.00  0.00    +0.000 A 
ATOM     20  C   UNL     1       7.762   4.959  12.836  0.00  0.00    +0.000 A 
ATOM     21  C   UNL     1       7.099   4.343  11.778  0.00  0.00    +0.000 A 
ATOM     22  C   UNL     1       5.955   3.583  12.021  0.00  0.00    +0.000 A 
ATOM     23  C   UNL     1       5.478   3.442  13.323  0.00  0.00    +0.000 A 
ENDBRANCH  17  18
ENDBRANCH   1  17
TORSDOF 5
ENDMDL
MODEL 2
REMARK VINA RESULT:      -7.9      0.056      1.030
REMARK  Name = 
REMARK  6 active torsions:
REMARK  status: ('A' for Active; 'I' for Inactive)
REMARK    1  A    between atoms: C_1  and  C_2
REMARK    2  A    between atoms: C_2  and  O_3
REMARK    3  A    between atoms: O_3  and  C_4
REMARK    4  A    between atoms: C_4  and  C_6
REMARK    5  A    between atoms: C_6  and  C_7
REMARK    6  A    between atoms: C_7  and  C_8
REMARK                            x       y       z     vdW  Elec       q    Type
REMARK                         _______ _______ _______ _____ _____    ______ ____
ROOT
ATOM      1  C   UNL     1       5.746   5.120  16.726  0.00  0.00    +0.000 C 
ATOM      2  C   UNL     1       5.009   6.373  16.198  0.00  0.00    +0.000 C 
ATOM      3  O   UNL     1       5.293   7.074  15.238  0.00  0.00    +0.000 OA
ATOM      4  N   UNL     1       3.895   6.585  17.006  0.00  0.00    +0.000 N 
ATOM      5  C   UNL     1       3.839   5.677  18.047  0.00  0.00    +0.000 A 
ATOM      6  C   UNL     1       2.847   5.555  18.995  0.00  0.00    +0.000 A 
ATOM      7  C   UNL     1       2.964   4.510  19.913  0.00  0.00    +0.000 A 
ATOM      8  C   UNL     1       4.076   3.648  19.883  0.00  0.00    +0.000 A 
ATOM      9  C   UNL     1       5.081   3.805  18.923  0.00  0.00    +0.000 A 
ATOM     10  C   UNL     1       4.935   4.820  17.988  0.00  0.00    +0.000 A 
ATOM     11  H   UNL     1       3.242   7.336  16.841  0.00  0.00    +0.000 HD
ENDROOT
BRANCH   1  12
ATOM     12  C   UNL     1       7.206   5.339  17.037  0.00  0.00    +0.000 C 
ATOM     13  O   UNL     1       7.943   4.449  17.461  0.00  0.00    +0.000 OA
BRANCH  12  14
ATOM     14  O   UNL     1       7.593   6.639  16.915  0.00  0.00    +0.000 OA
BRANCH  14  16
ATOM     15  C   UNL     1       8.103   8.770  17.890  0.00  0.00    +0.000 C 
ATOM     16  C   UNL     1       7.921   7.287  18.151  0.00  0.00    +0.000 C 
ENDBRANCH  14  16
ENDBRANCH  12  14
ENDBRANCH   1  12
BRANCH   1  17
ATOM     17  C   UNL     1       5.564   3.907  15.787  0.00  0.00    +0.000 C 
BRANCH  17  18
ATOM     18  C   UNL     1       6.104   4.064  14.391  0.00  0.00    +0.000 A 
ATOM     19  C   UNL     1       5.468   3.475  13.292  0.00  0.00    +0.000 A 
ATOM     20  C   UNL     1       5.992   3.623  12.007  0.00  0.00    +0.000 A 
ATOM     21  C   UNL     1       7.152   4.366  11.806  0.00  0.00    +0.000 A 
ATOM     22  C   UNL     1       7.791   4.968  12.891  0.00  0.00    +0.000 A 
ATOM     23  C   UNL     1       7.266   4.824  14.173  0.00  0.00    +0.000 A 
ENDBRANCH  17  18
ENDBRANCH   1  17
TORSDOF 5
ENDMDL
MODEL 3
REMARK VINA RESULT:      -7.8      2.245      4.133
REMARK  Name = 
REMARK  6 active torsions:
REMARK  status: ('A' for Active; 'I' for Inactive)
REMARK    1  A    between atoms: C_1  and  C_2
REMARK    2  A    between atoms: C_2  and  O_3
REMARK    3  A    between atoms: O_3  and  C_4
REMARK    4  A    between atoms: C_4  and  C_6
REMARK    5  A    between atoms: C_6  and  C_7
REMARK    6  A    between atoms: C_7  and  C_8
REMARK                            x       y       z     vdW  Elec       q    Type
REMARK                         _______ _______ _______ _____ _____    ______ ____
ROOT
ATOM      1  C   UNL     1       5.286   5.202  17.166  0.00  0.00    +0.000 C 
ATOM      2  C   UNL     1       5.380   6.100  15.910  0.00  0.00    +0.000 C 
ATOM      3  O   UNL     1       6.093   5.959  14.927  0.00  0.00    +0.000 OA
ATOM      4  N   UNL     1       4.464   7.138  16.059  0.00  0.00    +0.000 N 
ATOM      5  C   UNL     1       3.827   7.085  17.284  0.00  0.00    +0.000 A 
ATOM      6  C   UNL     1       2.823   7.912  17.739  0.00  0.00    +0.000 A 
ATOM      7  C   UNL     1       2.273   7.623  18.989  0.00  0.00    +0.000 A 
ATOM      8  C   UNL     1       2.762   6.552  19.759  0.00  0.00    +0.000 A 
ATOM      9  C   UNL     1       3.796   5.739  19.285  0.00  0.00    +0.000 A 
ATOM     10  C   UNL     1       4.308   6.007  18.023  0.00  0.00    +0.000 A 
ATOM     11  H   UNL     1       4.326   7.843  15.350  0.00  0.00    +0.000 HD
ENDROOT
BRANCH   1  12
ATOM     12  C   UNL     1       6.600   4.979  17.875  0.00  0.00    +0.000 C 
ATOM     13  O   UNL     1       6.731   4.196  18.815  0.00  0.00    +0.000 OA
BRANCH  12  14
ATOM     14  O   UNL     1       7.589   5.814  17.449  0.00  0.00    +0.000 OA
BRANCH  14  16
ATOM     15  C   UNL     1       7.810   8.192  17.664  0.00  0.00    +0.000 C 
ATOM     16  C   UNL     1       7.933   6.856  18.371  0.00  0.00    +0.000 C 
ENDBRANCH  14  16
ENDBRANCH  12  14
ENDBRANCH   1  12
BRANCH   1  17
ATOM     17  C   UNL     1       4.597   3.854  16.859  0.00  0.00    +0.000 C 
BRANCH  17  18
ATOM     18  C   UNL     1       3.484   3.452  17.789  0.00  0.00    +0.000 A 
ATOM     19  C   UNL     1       3.739   2.754  18.975  0.00  0.00    +0.000 A 
ATOM     20  C   UNL     1       2.690   2.381  19.817  0.00  0.00    +0.000 A 
ATOM     21  C   UNL     1       1.378   2.706  19.486  0.00  0.00    +0.000 A 
ATOM     22  C   UNL     1       1.110   3.410  18.312  0.00  0.00    +0.000 A 
ATOM     23  C   UNL     1       2.156   3.787  17.473  0.00  0.00    +0.000 A 
ENDBRANCH  17  18
ENDBRANCH   1  17
TORSDOF 5
ENDMDL
MODEL 4
REMARK VINA RESULT:      -7.8      2.276      4.232
REMARK  Name = 
REMARK  6 active torsions:
REMARK  status: ('A' for Active; 'I' for Inactive)
REMARK    1  A    between atoms: C_1  and  C_2
REMARK    2  A    between atoms: C_2  and  O_3
REMARK    3  A    between atoms: O_3  and  C_4
REMARK    4  A    between atoms: C_4  and  C_6
REMARK    5  A    between atoms: C_6  and  C_7
REMARK    6  A    between atoms: C_7  and  C_8
REMARK                            x       y       z     vdW  Elec       q    Type
REMARK                         _______ _______ _______ _____ _____    ______ ____
ROOT
ATOM      1  C   UNL     1       5.227   5.265  17.196  0.00  0.00    +0.000 C 
ATOM      2  C   UNL     1       5.344   6.168  15.946  0.00  0.00    +0.000 C 
ATOM      3  O   UNL     1       6.064   6.025  14.969  0.00  0.00    +0.000 OA
ATOM      4  N   UNL     1       4.437   7.216  16.091  0.00  0.00    +0.000 N 
ATOM      5  C   UNL     1       3.787   7.163  17.309  0.00  0.00    +0.000 A 
ATOM      6  C   UNL     1       2.788   8.000  17.758  0.00  0.00    +0.000 A 
ATOM      7  C   UNL     1       2.222   7.710  19.002  0.00  0.00    +0.000 A 
ATOM      8  C   UNL     1       2.691   6.629  19.771  0.00  0.00    +0.000 A 
ATOM      9  C   UNL     1       3.721   5.808  19.303  0.00  0.00    +0.000 A 
ATOM     10  C   UNL     1       4.249   6.076  18.048  0.00  0.00    +0.000 A 
ATOM     11  H   UNL     1       4.314   7.926  15.384  0.00  0.00    +0.000 HD
ENDROOT
BRANCH   1  12
ATOM     12  C   UNL     1       6.531   5.024  17.917  0.00  0.00    +0.000 C 
ATOM     13  O   UNL     1       6.633   4.272  18.885  0.00  0.00    +0.000 OA
BRANCH  12  14
ATOM     14  O   UNL     1       7.548   5.808  17.464  0.00  0.00    +0.000 OA
BRANCH  14  16
ATOM     15  C   UNL     1       7.774   8.190  17.633  0.00  0.00    +0.000 C 
ATOM     16  C   UNL     1       7.934   6.865  18.353  0.00  0.00    +0.000 C 
ENDBRANCH  14  16
ENDBRANCH  12  14
ENDBRANCH   1  12
BRANCH   1  17
ATOM     17  C   UNL     1       4.526   3.926  16.875  0.00  0.00    +0.000 C 
BRANCH  17  18
ATOM     18  C   UNL     1       3.409   3.524  17.801  0.00  0.00    +0.000 A 
ATOM     19  C   UNL     1       2.076   3.840  17.516  0.00  0.00    +0.000 A 
ATOM     20  C   UNL     1       1.057   3.468  18.395  0.00  0.00    +0.000 A 
ATOM     21  C   UNL     1       1.359   2.773  19.562  0.00  0.00    +0.000 A 
ATOM     22  C   UNL     1       2.683   2.442  19.853  0.00  0.00    +0.000 A 
ATOM     23  C   UNL     1       3.700   2.809  18.975  0.00  0.00    +0.000 A 
ENDBRANCH  17  18
ENDBRANCH   1  17
TORSDOF 5
ENDMDL
MODEL 5
REMARK VINA RESULT:      -7.8      2.187      6.126
REMARK  Name = 
REMARK  6 active torsions:
REMARK  status: ('A' for Active; 'I' for Inactive)
REMARK    1  A    between atoms: C_1  and  C_2
REMARK    2  A    between atoms: C_2  and  O_3
REMARK    3  A    between atoms: O_3  and  C_4
REMARK    4  A    between atoms: C_4  and  C_6
REMARK    5  A    between atoms: C_6  and  C_7
REMARK    6  A    between atoms: C_7  and  C_8
REMARK                            x       y       z     vdW  Elec       q    Type
REMARK                         _______ _______ _______ _____ _____    ______ ____
ROOT
ATOM      1  C   UNL     1       4.846   4.630  17.968  0.00  0.00    +0.000 C 
ATOM      2  C   UNL     1       6.141   4.963  18.746  0.00  0.00    +0.000 C 
ATOM      3  O   UNL     1       6.284   5.131  19.948  0.00  0.00    +0.000 OA
ATOM      4  N   UNL     1       7.186   5.020  17.828  0.00  0.00    +0.000 N 
ATOM      5  C   UNL     1       6.739   4.841  16.533  0.00  0.00    +0.000 A 
ATOM      6  C   UNL     1       7.503   4.776  15.388  0.00  0.00    +0.000 A 
ATOM      7  C   UNL     1       6.837   4.512  14.189  0.00  0.00    +0.000 A 
ATOM      8  C   UNL     1       5.439   4.360  14.162  0.00  0.00    +0.000 A 
ATOM      9  C   UNL     1       4.683   4.451  15.334  0.00  0.00    +0.000 A 
ATOM     10  C   UNL     1       5.356   4.671  16.527  0.00  0.00    +0.000 A 
ATOM     11  H   UNL     1       8.140   5.200  18.105  0.00  0.00    +0.000 HD
ENDROOT
BRANCH   1  12
ATOM     12  C   UNL     1       3.716   5.606  18.191  0.00  0.00    +0.000 C 
ATOM     13  O   UNL     1       2.986   6.006  17.284  0.00  0.00    +0.000 OA
BRANCH  12  14
ATOM     14  O   UNL     1       3.662   6.084  19.465  0.00  0.00    +0.000 OA
BRANCH  14  16
ATOM     15  C   UNL     1       1.625   6.302  20.713  0.00  0.00    +0.000 C 
ATOM     16  C   UNL     1       2.566   6.970  19.728  0.00  0.00    +0.000 C 
ENDBRANCH  14  16
ENDBRANCH  12  14
ENDBRANCH   1  12
BRANCH   1  17
ATOM     17  C   UNL     1       4.375   3.182  18.228  0.00  0.00    +0.000 C 
BRANCH  17  18
ATOM     18  C   UNL     1       3.235   3.020  19.197  0.00  0.00    +0.000 A 
ATOM     19  C   UNL     1       1.905   2.999  18.762  0.00  0.00    +0.000 A 
ATOM     20  C   UNL     1       0.862   2.859  19.680  0.00  0.00    +0.000 A 
ATOM     21  C   UNL     1       1.137   2.735  21.038  0.00  0.00    +0.000 A 
ATOM     22  C   UNL     1       2.459   2.744  21.485  0.00  0.00    +0.000 A 
ATOM     23  C   UNL     1       3.500   2.879  20.570  0.00  0.00    +0.000 A 
ENDBRANCH  17  18
ENDBRANCH   1  17
TORSDOF 5
ENDMDL
MODEL 6
REMARK VINA RESULT:      -7.7      2.207      6.069
REMARK  Name = 
REMARK  6 active torsions:
REMARK  status: ('A' for Active; 'I' for Inactive)
REMARK    1  A    between atoms: C_1  and  C_2
REMARK    2  A    between atoms: C_2  and  O_3
REMARK    3  A    between atoms: O_3  and  C_4
REMARK    4  A    between atoms: C_4  and  C_6
REMARK    5  A    between atoms: C_6  and  C_7
REMARK    6  A    between atoms: C_7  and  C_8
REMARK                            x       y       z     vdW  Elec       q    Type
REMARK                         _______ _______ _______ _____ _____    ______ ____
ROOT
ATOM      1  C   UNL     1       4.809   4.621  17.952  0.00  0.00    +0.000 C 
ATOM      2  C   UNL     1       6.098   4.928  18.749  0.00  0.00    +0.000 C 
ATOM      3  O   UNL     1       6.229   5.083  19.954  0.00  0.00    +0.000 OA
ATOM      4  N   UNL     1       7.156   4.980  17.844  0.00  0.00    +0.000 N 
ATOM      5  C   UNL     1       6.722   4.820  16.541  0.00  0.00    +0.000 A 
ATOM      6  C   UNL     1       7.499   4.757  15.405  0.00  0.00    +0.000 A 
ATOM      7  C   UNL     1       6.845   4.514  14.195  0.00  0.00    +0.000 A 
ATOM      8  C   UNL     1       5.444   4.381  14.150  0.00  0.00    +0.000 A 
ATOM      9  C   UNL     1       4.675   4.471  15.314  0.00  0.00    +0.000 A 
ATOM     10  C   UNL     1       5.337   4.669  16.517  0.00  0.00    +0.000 A 
ATOM     11  H   UNL     1       8.108   5.145  18.134  0.00  0.00    +0.000 HD
ENDROOT
BRANCH   1  12
ATOM     12  C   UNL     1       3.689   5.609  18.171  0.00  0.00    +0.000 C 
ATOM     13  O   UNL     1       2.902   5.939  17.284  0.00  0.00    +0.000 OA
BRANCH  12  14
ATOM     14  O   UNL     1       3.712   6.183  19.406  0.00  0.00    +0.000 OA
BRANCH  14  16
ATOM     15  C   UNL     1       1.659   6.282  20.641  0.00  0.00    +0.000 C 
ATOM     16  C   UNL     1       2.588   7.023  19.699  0.00  0.00    +0.000 C 
ENDBRANCH  14  16
ENDBRANCH  12  14
ENDBRANCH   1  12
BRANCH   1  17
ATOM     17  C   UNL     1       4.315   3.177  18.191  0.00  0.00    +0.000 C 
BRANCH  17  18
ATOM     18  C   UNL     1       3.219   3.011  19.209  0.00  0.00    +0.000 A 
ATOM     19  C   UNL     1       3.502   2.898  20.574  0.00  0.00    +0.000 A 
ATOM     20  C   UNL     1       2.470   2.733  21.500  0.00  0.00    +0.000 A 
ATOM     21  C   UNL     1       1.147   2.686  21.072  0.00  0.00    +0.000 A 
ATOM     22  C   UNL     1       0.849   2.808  19.714  0.00  0.00    +0.000 A 
ATOM     23  C   UNL     1       1.878   2.977  18.790  0.00  0.00    +0.000 A 
ENDBRANCH  17  18
ENDBRANCH   1  17
TORSDOF 5
ENDMDL
MODEL 7
REMARK VINA RESULT:      -7.7      2.243      5.769
REMARK  Name = 
REMARK  6 active torsions:
REMARK  status: ('A' for Active; 'I' for Inactive)
REMARK    1  A    between atoms: C_1  and  C_2
REMARK    2  A    between atoms: C_2  and  O_3
REMARK    3  A    between atoms: O_3  and  C_4
REMARK    4  A    between atoms: C_4  and  C_6
REMARK    5  A    between atoms: C_6  and  C_7
REMARK    6  A    between atoms: C_7  and  C_8
REMARK                            x       y       z     vdW  Elec       q    Type
REMARK                         _______ _______ _______ _____ _____    ______ ____
ROOT
ATOM      1  C   UNL     1       5.302   4.782  18.409  0.00  0.00    +0.000 C 
ATOM      2  C   UNL     1       6.709   5.151  18.933  0.00  0.00    +0.000 C 
ATOM      3  O   UNL     1       7.059   5.369  20.084  0.00  0.00    +0.000 OA
ATOM      4  N   UNL     1       7.576   5.176  17.843  0.00  0.00    +0.000 N 
ATOM      5  C   UNL     1       6.910   4.943  16.655  0.00  0.00    +0.000 A 
ATOM      6  C   UNL     1       7.462   4.835  15.397  0.00  0.00    +0.000 A 
ATOM      7  C   UNL     1       6.599   4.520  14.345  0.00  0.00    +0.000 A 
ATOM      8  C   UNL     1       5.219   4.361  14.571  0.00  0.00    +0.000 A 
ATOM      9  C   UNL     1       4.680   4.496  15.854  0.00  0.00    +0.000 A 
ATOM     10  C   UNL     1       5.550   4.767  16.900  0.00  0.00    +0.000 A 
ATOM     11  H   UNL     1       8.562   5.371  17.941  0.00  0.00    +0.000 HD
ENDROOT
BRANCH   1  12
ATOM     12  C   UNL     1       4.217   5.761  18.789  0.00  0.00    +0.000 C 
ATOM     13  O   UNL     1       3.799   5.887  19.939  0.00  0.00    +0.000 OA
BRANCH  12  14
ATOM     14  O   UNL     1       3.669   6.399  17.717  0.00  0.00    +0.000 OA
BRANCH  14  16
ATOM     15  C   UNL     1       2.477   8.478  17.800  0.00  0.00    +0.000 C 
ATOM     16  C   UNL     1       2.377   6.972  17.955  0.00  0.00    +0.000 C 
ENDBRANCH  14  16
ENDBRANCH  12  14
ENDBRANCH   1  12
BRANCH   1  17
ATOM     17  C   UNL     1       4.900   3.344  18.804  0.00  0.00    +0.000 C 
BRANCH  17  18
ATOM     18  C   UNL     1       3.446   3.128  19.128  0.00  0.00    +0.000 A 
ATOM     19  C   UNL     1       2.466   3.143  18.129  0.00  0.00    +0.000 A 
ATOM     20  C   UNL     1       1.121   2.952  18.453  0.00  0.00    +0.000 A 
ATOM     21  C   UNL     1       0.744   2.738  19.776  0.00  0.00    +0.000 A 
ATOM     22  C   UNL     1       1.712   2.710  20.780  0.00  0.00    +0.000 A 
ATOM     23  C   UNL     1       3.054   2.896  20.457  0.00  0.00    +0.000 A 
ENDBRANCH  17  18
ENDBRANCH   1  17
TORSDOF 5
ENDMDL
MODEL 8
REMARK VINA RESULT:      -7.7      1.486      5.027
REMARK  Name = 
REMARK  6 active torsions:
REMARK  status: ('A' for Active; 'I' for Inactive)
REMARK    1  A    between atoms: C_1  and  C_2
REMARK    2  A    between atoms: C_2  and  O_3
REMARK    3  A    between atoms: O_3  and  C_4
REMARK    4  A    between atoms: C_4  and  C_6
REMARK    5  A    between atoms: C_6  and  C_7
REMARK    6  A    between atoms: C_7  and  C_8
REMARK                            x       y       z     vdW  Elec       q    Type
REMARK                         _______ _______ _______ _____ _____    ______ ____
ROOT
ATOM      1  C   UNL     1       5.960   5.231  15.638  0.00  0.00    +0.000 C 
ATOM      2  C   UNL     1       5.456   6.691  15.551  0.00  0.00    +0.000 C 
ATOM      3  O   UNL     1       4.727   7.195  14.710  0.00  0.00    +0.000 OA
ATOM      4  N   UNL     1       5.962   7.382  16.649  0.00  0.00    +0.000 N 
ATOM      5  C   UNL     1       6.796   6.587  17.413  0.00  0.00    +0.000 A 
ATOM      6  C   UNL     1       7.416   6.925  18.596  0.00  0.00    +0.000 A 
ATOM      7  C   UNL     1       8.158   5.930  19.236  0.00  0.00    +0.000 A 
ATOM      8  C   UNL     1       8.290   4.652  18.663  0.00  0.00    +0.000 A 
ATOM      9  C   UNL     1       7.669   4.340  17.450  0.00  0.00    +0.000 A 
ATOM     10  C   UNL     1       6.898   5.321  16.843  0.00  0.00    +0.000 A 
ATOM     11  H   UNL     1       5.748   8.353  16.822  0.00  0.00    +0.000 HD
ENDROOT
BRANCH   1  12
ATOM     12  C   UNL     1       6.677   4.743  14.403  0.00  0.00    +0.000 C 
ATOM     13  O   UNL     1       7.638   5.331  13.909  0.00  0.00    +0.000 OA
BRANCH  12  14
ATOM     14  O   UNL     1       6.083   3.661  13.829  0.00  0.00    +0.000 OA
BRANCH  14  16
ATOM     15  C   UNL     1       4.995   3.137  11.756  0.00  0.00    +0.000 C 
ATOM     16  C   UNL     1       6.301   3.534  12.417  0.00  0.00    +0.000 C 
ENDBRANCH  14  16
ENDBRANCH  12  14
ENDBRANCH   1  12
BRANCH   1  17
ATOM     17  C   UNL     1       4.829   4.255  16.033  0.00  0.00    +0.000 C 
BRANCH  17  18
ATOM     18  C   UNL     1       4.206   4.475  17.385  0.00  0.00    +0.000 A 
ATOM     19  C   UNL     1       3.292   5.511  17.607  0.00  0.00    +0.000 A 
ATOM     20  C   UNL     1       2.734   5.705  18.872  0.00  0.00    +0.000 A 
ATOM     21  C   UNL     1       3.079   4.863  19.925  0.00  0.00    +0.000 A 
ATOM     22  C   UNL     1       3.981   3.819  19.715  0.00  0.00    +0.000 A 
ATOM     23  C   UNL     1       4.534   3.622  18.452  0.00  0.00    +0.000 A 
ENDBRANCH  17  18
ENDBRANCH   1  17
TORSDOF 5
ENDMDL
MODEL 9
REMARK VINA RESULT:      -7.7      2.237      5.726
REMARK  Name = 
REMARK  6 active torsions:
REMARK  status: ('A' for Active; 'I' for Inactive)
REMARK    1  A    between atoms: C_1  and  C_2
REMARK    2  A    between atoms: C_2  and  O_3
REMARK    3  A    between atoms: O_3  and  C_4
REMARK    4  A    between atoms: C_4  and  C_6
REMARK    5  A    between atoms: C_6  and  C_7
REMARK    6  A    between atoms: C_7  and  C_8
REMARK                            x       y       z     vdW  Elec       q    Type
REMARK                         _______ _______ _______ _____ _____    ______ ____
ROOT
ATOM      1  C   UNL     1       5.296   4.797  18.395  0.00  0.00    +0.000 C 
ATOM      2  C   UNL     1       6.701   5.172  18.922  0.00  0.00    +0.000 C 
ATOM      3  O   UNL     1       7.048   5.394  20.073  0.00  0.00    +0.000 OA
ATOM      4  N   UNL     1       7.571   5.198  17.834  0.00  0.00    +0.000 N 
ATOM      5  C   UNL     1       6.908   4.959  16.645  0.00  0.00    +0.000 A 
ATOM      6  C   UNL     1       7.463   4.851  15.388  0.00  0.00    +0.000 A 
ATOM      7  C   UNL     1       6.604   4.530  14.335  0.00  0.00    +0.000 A 
ATOM      8  C   UNL     1       5.224   4.366  14.558  0.00  0.00    +0.000 A 
ATOM      9  C   UNL     1       4.681   4.502  15.839  0.00  0.00    +0.000 A 
ATOM     10  C   UNL     1       5.548   4.779  16.887  0.00  0.00    +0.000 A 
ATOM     11  H   UNL     1       8.555   5.397  17.934  0.00  0.00    +0.000 HD
ENDROOT
BRANCH   1  12
ATOM     12  C   UNL     1       4.207   5.772  18.770  0.00  0.00    +0.000 C 
ATOM     13  O   UNL     1       3.811   5.924  19.925  0.00  0.00    +0.000 OA
BRANCH  12  14
ATOM     14  O   UNL     1       3.630   6.374  17.693  0.00  0.00    +0.000 OA
BRANCH  14  16
ATOM     15  C   UNL     1       2.496   8.484  17.797  0.00  0.00    +0.000 C 
ATOM     16  C   UNL     1       2.358   6.982  17.954  0.00  0.00    +0.000 C 
ENDBRANCH  14  16
ENDBRANCH  12  14
ENDBRANCH   1  12
BRANCH   1  17
ATOM     17  C   UNL     1       4.899   3.358  18.793  0.00  0.00    +0.000 C 
BRANCH  17  18
ATOM     18  C   UNL     1       3.452   3.144  19.148  0.00  0.00    +0.000 A 
ATOM     19  C   UNL     1       3.047   2.958  20.475  0.00  0.00    +0.000 A 
ATOM     20  C   UNL     1       1.701   2.749  20.781  0.00  0.00    +0.000 A 
ATOM     21  C   UNL     1       0.747   2.731  19.767  0.00  0.00    +0.000 A 
ATOM     22  C   UNL     1       1.136   2.926  18.441  0.00  0.00    +0.000 A 
ATOM     23  C   UNL     1       2.478   3.138  18.135  0.00  0.00    +0.000 A 
ENDBRANCH  17  18
ENDBRANCH   1  17
TORSDOF 5
ENDMDL
