MODEL 1
REMARK VINA RESULT:      -8.5      0.000      0.000
REMARK  Name = 
REMARK  8 active torsions:
REMARK  status: ('A' for Active; 'I' for Inactive)
REMARK    1  A    between atoms: S_2  and  C_4
REMARK    2  A    between atoms: S_2  and  N_9
REMARK    3  A    between atoms: C_4  and  C_5
REMARK    4  A    between atoms: N_9  and  C_10
REMARK    5  A    between atoms: N_9  and  C_17
REMARK    6  A    between atoms: C_10  and  C_11
REMARK    7  A    between atoms: C_21  and  O_22
REMARK    8  A    between atoms: O_22  and  C_23
REMARK                            x       y       z     vdW  Elec       q    Type
REMARK                         _______ _______ _______ _____ _____    ______ ____
ROOT
ATOM      1  N   UNL     1       3.190   5.718  18.144  0.00  0.00    +0.000 N 
ENDROOT
BRANCH   1   2
ATOM      2  C   UNL     1       2.487   6.740  18.842  0.00  0.00    +0.000 A 
ATOM      3  C   UNL     1       2.145   6.654  20.189  0.00  0.00    +0.000 A 
ATOM      4  C   UNL     1       1.494   7.735  20.794  0.00  0.00    +0.000 A 
ATOM      5  C   UNL     1       1.163   8.871  20.044  0.00  0.00    +0.000 A 
ATOM      6  C   UNL     1       1.485   8.931  18.689  0.00  0.00    +0.000 A 
ATOM      7  C   UNL     1       2.197   7.885  18.109  0.00  0.00    +0.000 A 
BRANCH   6   8
ATOM      8  O   UNL     1       1.102  10.052  17.985  0.00  0.00    +0.000 OA
BRANCH   8   9
ATOM      9  C   UNL     1      -0.199  10.496  18.125  0.00  0.00    +0.000 A 
ATOM     10  C   UNL     1      -0.544  11.650  18.839  0.00  0.00    +0.000 A 
ATOM     11  C   UNL     1      -1.883  11.996  19.012  0.00  0.00    +0.000 A 
ATOM     12  C   UNL     1      -2.879  11.236  18.406  0.00  0.00    +0.000 A 
ATOM     13  C   UNL     1      -2.535  10.127  17.632  0.00  0.00    +0.000 A 
ATOM     14  C   UNL     1      -1.196   9.750  17.497  0.00  0.00    +0.000 A 
ENDBRANCH   8   9
ENDBRANCH   6   8
ENDBRANCH   1   2
BRANCH   1  16
ATOM     15  O   UNL     1       3.259   3.580  16.853  0.00  0.00    +0.000 OA
ATOM     16  S   UNL     1       2.417   4.252  17.811  0.00  0.00    +0.000 S 
ATOM     17  O   UNL     1       1.039   4.578  17.507  0.00  0.00    +0.000 OA
BRANCH  16  18
ATOM     18  C   UNL     1       2.445   3.381  19.349  0.00  0.00    +0.000 C 
BRANCH  18  19
ATOM     19  C   UNL     1       1.065   2.999  19.756  0.00  0.00    +0.000 C 
ATOM     20  F   UNL     1       0.332   2.362  18.832  0.00  0.00    +0.000 F 
ATOM     21  F   UNL     1       1.124   2.195  20.850  0.00  0.00    +0.000 F 
ATOM     22  F   UNL     1       0.370   4.100  20.135  0.00  0.00    +0.000 F 
ENDBRANCH  18  19
ENDBRANCH  16  18
ENDBRANCH   1  16
BRANCH   1  23
ATOM     23  C   UNL     1       4.330   6.106  17.286  0.00  0.00    +0.000 C 
BRANCH  23  24
ATOM     24  C   UNL     1       5.652   6.101  17.996  0.00  0.00    +0.000 A 
ATOM     25  C   UNL     1       5.877   5.365  19.141  0.00  0.00    +0.000 A 
ATOM     26  N   UNL     1       7.074   5.285  19.761  0.00  0.00    +0.000 NA
ATOM     27  C   UNL     1       8.067   5.999  19.213  0.00  0.00    +0.000 A 
ATOM     28  N   UNL     1       7.965   6.779  18.126  0.00  0.00    +0.000 NA
ATOM     29  C   UNL     1       6.747   6.809  17.544  0.00  0.00    +0.000 A 
ENDBRANCH  23  24
ENDBRANCH   1  23
TORSDOF 8
ENDMDL
MODEL 2
REMARK VINA RESULT:      -8.4      0.737      1.344
REMARK  Name = 
REMARK  8 active torsions:
REMARK  status: ('A' for Active; 'I' for Inactive)
REMARK    1  A    between atoms: S_2  and  C_4
REMARK    2  A    between atoms: S_2  and  N_9
REMARK    3  A    between atoms: C_4  and  C_5
REMARK    4  A    between atoms: N_9  and  C_10
REMARK    5  A    between atoms: N_9  and  C_17
REMARK    6  A    between atoms: C_10  and  C_11
REMARK    7  A    between atoms: C_21  and  O_22
REMARK    8  A    between atoms: O_22  and  C_23
REMARK                            x       y       z     vdW  Elec       q    Type
REMARK                         _______ _______ _______ _____ _____    ______ ____
ROOT
ATOM      1  N   UNL     1       3.202   5.699  18.059  0.00  0.00    +0.000 N 
ENDROOT
BRANCH   1   2
ATOM      2  C   UNL     1       2.521   6.700  18.808  0.00  0.00    +0.000 A 
ATOM      3  C   UNL     1       2.211   6.570  20.159  0.00  0.00    +0.000 A 
ATOM      4  C   UNL     1       1.580   7.631  20.816  0.00  0.00    +0.000 A 
ATOM      5  C   UNL     1       1.237   8.794  20.113  0.00  0.00    +0.000 A 
ATOM      6  C   UNL     1       1.528   8.899  18.754  0.00  0.00    +0.000 A 
ATOM      7  C   UNL     1       2.220   7.870  18.121  0.00  0.00    +0.000 A 
BRANCH   6   8
ATOM      8  O   UNL     1       1.134  10.046  18.097  0.00  0.00    +0.000 OA
BRANCH   8   9
ATOM      9  C   UNL     1      -0.192  10.424  18.185  0.00  0.00    +0.000 A 
ATOM     10  C   UNL     1      -1.225   9.763  17.508  0.00  0.00    +0.000 A 
ATOM     11  C   UNL     1      -2.531  10.247  17.574  0.00  0.00    +0.000 A 
ATOM     12  C   UNL     1      -2.823  11.343  18.379  0.00  0.00    +0.000 A 
ATOM     13  C   UNL     1      -1.810  11.959  19.114  0.00  0.00    +0.000 A 
ATOM     14  C   UNL     1      -0.491  11.506  19.012  0.00  0.00    +0.000 A 
ENDBRANCH   8   9
ENDBRANCH   6   8
ENDBRANCH   1   2
BRANCH   1  16
ATOM     15  O   UNL     1       3.285   3.529  16.824  0.00  0.00    +0.000 OA
ATOM     16  S   UNL     1       2.458   4.206  17.791  0.00  0.00    +0.000 S 
ATOM     17  O   UNL     1       1.063   4.490  17.522  0.00  0.00    +0.000 OA
BRANCH  16  18
ATOM     18  C   UNL     1       2.557   3.379  19.349  0.00  0.00    +0.000 C 
BRANCH  18  19
ATOM     19  C   UNL     1       1.198   2.994  19.821  0.00  0.00    +0.000 C 
ATOM     20  F   UNL     1       0.366   4.003  20.114  0.00  0.00    +0.000 F 
ATOM     21  F   UNL     1       0.591   2.232  18.874  0.00  0.00    +0.000 F 
ATOM     22  F   UNL     1       1.293   2.215  20.927  0.00  0.00    +0.000 F 
ENDBRANCH  18  19
ENDBRANCH  16  18
ENDBRANCH   1  16
BRANCH   1  23
ATOM     23  C   UNL     1       4.258   6.122  17.113  0.00  0.00    +0.000 C 
BRANCH  23  24
ATOM     24  C   UNL     1       5.621   5.593  17.450  0.00  0.00    +0.000 A 
ATOM     25  C   UNL     1       6.076   5.488  18.748  0.00  0.00    +0.000 A 
ATOM     26  N   UNL     1       7.268   4.951  19.087  0.00  0.00    +0.000 NA
ATOM     27  C   UNL     1       8.033   4.533  18.068  0.00  0.00    +0.000 A 
ATOM     28  N   UNL     1       7.719   4.614  16.766  0.00  0.00    +0.000 NA
ATOM     29  C   UNL     1       6.510   5.150  16.492  0.00  0.00    +0.000 A 
ENDBRANCH  23  24
ENDBRANCH   1  23
TORSDOF 8
ENDMDL
MODEL 3
REMARK VINA RESULT:      -8.2      2.893      6.831
REMARK  Name = 
REMARK  8 active torsions:
REMARK  status: ('A' for Active; 'I' for Inactive)
REMARK    1  A    between atoms: S_2  and  C_4
REMARK    2  A    between atoms: S_2  and  N_9
REMARK    3  A    between atoms: C_4  and  C_5
REMARK    4  A    between atoms: N_9  and  C_10
REMARK    5  A    between atoms: N_9  and  C_17
REMARK    6  A    between atoms: C_10  and  C_11
REMARK    7  A    between atoms: C_21  and  O_22
REMARK    8  A    between atoms: O_22  and  C_23
REMARK                            x       y       z     vdW  Elec       q    Type
REMARK                         _______ _______ _______ _____ _____    ______ ____
ROOT
ATOM      1  N   UNL     1       3.156   5.306  18.591  0.00  0.00    +0.000 N 
ENDROOT
BRANCH   1   2
ATOM      2  C   UNL     1       4.512   5.189  18.177  0.00  0.00    +0.000 A 
ATOM      3  C   UNL     1       5.518   4.663  18.983  0.00  0.00    +0.000 A 
ATOM      4  C   UNL     1       6.812   4.547  18.465  0.00  0.00    +0.000 A 
ATOM      5  C   UNL     1       7.095   4.985  17.165  0.00  0.00    +0.000 A 
ATOM      6  C   UNL     1       6.085   5.536  16.378  0.00  0.00    +0.000 A 
ATOM      7  C   UNL     1       4.784   5.583  16.872  0.00  0.00    +0.000 A 
BRANCH   6   8
ATOM      8  O   UNL     1       6.422   5.991  15.121  0.00  0.00    +0.000 OA
BRANCH   8   9
ATOM      9  C   UNL     1       6.400   5.088  14.076  0.00  0.00    +0.000 A 
ATOM     10  C   UNL     1       5.378   4.148  13.893  0.00  0.00    +0.000 A 
ATOM     11  C   UNL     1       5.459   3.210  12.866  0.00  0.00    +0.000 A 
ATOM     12  C   UNL     1       6.521   3.258  11.968  0.00  0.00    +0.000 A 
ATOM     13  C   UNL     1       7.503   4.239  12.101  0.00  0.00    +0.000 A 
ATOM     14  C   UNL     1       7.450   5.150  13.160  0.00  0.00    +0.000 A 
ENDBRANCH   8   9
ENDBRANCH   6   8
ENDBRANCH   1   2
BRANCH   1  16
ATOM     15  O   UNL     1       2.895   2.870  18.101  0.00  0.00    +0.000 OA
ATOM     16  S   UNL     1       2.076   4.042  18.284  0.00  0.00    +0.000 S 
ATOM     17  O   UNL     1       1.186   4.511  17.242  0.00  0.00    +0.000 OA
BRANCH  16  18
ATOM     18  C   UNL     1       1.140   3.893  19.776  0.00  0.00    +0.000 C 
BRANCH  18  19
ATOM     19  C   UNL     1       1.703   2.817  20.638  0.00  0.00    +0.000 C 
ATOM     20  F   UNL     1       1.106   2.639  21.825  0.00  0.00    +0.000 F 
ATOM     21  F   UNL     1       1.644   1.632  19.976  0.00  0.00    +0.000 F 
ATOM     22  F   UNL     1       3.017   3.050  20.877  0.00  0.00    +0.000 F 
ENDBRANCH  18  19
ENDBRANCH  16  18
ENDBRANCH   1  16
BRANCH   1  23
ATOM     23  C   UNL     1       2.834   6.233  19.698  0.00  0.00    +0.000 C 
BRANCH  23  24
ATOM     24  C   UNL     1       2.280   7.551  19.244  0.00  0.00    +0.000 A 
ATOM     25  C   UNL     1       2.471   8.036  17.966  0.00  0.00    +0.000 A 
ATOM     26  N   UNL     1       1.926   9.183  17.507  0.00  0.00    +0.000 NA
ATOM     27  C   UNL     1       1.185   9.872  18.385  0.00  0.00    +0.000 A 
ATOM     28  N   UNL     1       0.956   9.526  19.661  0.00  0.00    +0.000 NA
ATOM     29  C   UNL     1       1.518   8.364  20.058  0.00  0.00    +0.000 A 
ENDBRANCH  23  24
ENDBRANCH   1  23
TORSDOF 8
ENDMDL
MODEL 4
REMARK VINA RESULT:      -8.2      2.708      6.727
REMARK  Name = 
REMARK  8 active torsions:
REMARK  status: ('A' for Active; 'I' for Inactive)
REMARK    1  A    between atoms: S_2  and  C_4
REMARK    2  A    between atoms: S_2  and  N_9
REMARK    3  A    between atoms: C_4  and  C_5
REMARK    4  A    between atoms: N_9  and  C_10
REMARK    5  A    between atoms: N_9  and  C_17
REMARK    6  A    between atoms: C_10  and  C_11
REMARK    7  A    between atoms: C_21  and  O_22
REMARK    8  A    between atoms: O_22  and  C_23
REMARK                            x       y       z     vdW  Elec       q    Type
REMARK                         _______ _______ _______ _____ _____    ______ ____
ROOT
ATOM      1  N   UNL     1       3.514   5.345  18.536  0.00  0.00    +0.000 N 
ENDROOT
BRANCH   1   2
ATOM      2  C   UNL     1       4.919   5.338  18.311  0.00  0.00    +0.000 A 
ATOM      3  C   UNL     1       5.854   5.041  19.299  0.00  0.00    +0.000 A 
ATOM      4  C   UNL     1       7.212   5.016  18.963  0.00  0.00    +0.000 A 
ATOM      5  C   UNL     1       7.623   5.318  17.659  0.00  0.00    +0.000 A 
ATOM      6  C   UNL     1       6.679   5.643  16.686  0.00  0.00    +0.000 A 
ATOM      7  C   UNL     1       5.325   5.596  17.006  0.00  0.00    +0.000 A 
BRANCH   6   8
ATOM      8  O   UNL     1       7.136   5.973  15.428  0.00  0.00    +0.000 OA
BRANCH   8   9
ATOM      9  C   UNL     1       6.837   5.121  14.382  0.00  0.00    +0.000 A 
ATOM     10  C   UNL     1       7.629   5.008  13.233  0.00  0.00    +0.000 A 
ATOM     11  C   UNL     1       7.226   4.191  12.178  0.00  0.00    +0.000 A 
ATOM     12  C   UNL     1       6.073   3.422  12.300  0.00  0.00    +0.000 A 
ATOM     13  C   UNL     1       5.320   3.474  13.474  0.00  0.00    +0.000 A 
ATOM     14  C   UNL     1       5.695   4.330  14.513  0.00  0.00    +0.000 A 
ENDBRANCH   8   9
ENDBRANCH   6   8
ENDBRANCH   1   2
BRANCH   1  16
ATOM     15  O   UNL     1       3.386   3.332  17.063  0.00  0.00    +0.000 OA
ATOM     16  S   UNL     1       2.581   4.027  18.035  0.00  0.00    +0.000 S 
ATOM     17  O   UNL     1       1.277   4.558  17.694  0.00  0.00    +0.000 OA
BRANCH  16  18
ATOM     18  C   UNL     1       2.405   3.036  19.487  0.00  0.00    +0.000 C 
BRANCH  18  19
ATOM     19  C   UNL     1       1.006   3.101  19.995  0.00  0.00    +0.000 C 
ATOM     20  F   UNL     1       0.497   4.328  20.168  0.00  0.00    +0.000 F 
ATOM     21  F   UNL     1       0.185   2.440  19.137  0.00  0.00    +0.000 F 
ATOM     22  F   UNL     1       0.911   2.452  21.182  0.00  0.00    +0.000 F 
ENDBRANCH  18  19
ENDBRANCH  16  18
ENDBRANCH   1  16
BRANCH   1  23
ATOM     23  C   UNL     1       2.978   6.194  19.623  0.00  0.00    +0.000 C 
BRANCH  23  24
ATOM     24  C   UNL     1       2.405   7.497  19.148  0.00  0.00    +0.000 A 
ATOM     25  C   UNL     1       2.612   7.976  17.870  0.00  0.00    +0.000 A 
ATOM     26  N   UNL     1       2.052   9.108  17.392  0.00  0.00    +0.000 NA
ATOM     27  C   UNL     1       1.279   9.788  18.249  0.00  0.00    +0.000 A 
ATOM     28  N   UNL     1       1.031   9.445  19.523  0.00  0.00    +0.000 NA
ATOM     29  C   UNL     1       1.609   8.298  19.940  0.00  0.00    +0.000 A 
ENDBRANCH  23  24
ENDBRANCH   1  23
TORSDOF 8
ENDMDL
MODEL 5
REMARK VINA RESULT:      -8.2      1.236      1.931
REMARK  Name = 
REMARK  8 active torsions:
REMARK  status: ('A' for Active; 'I' for Inactive)
REMARK    1  A    between atoms: S_2  and  C_4
REMARK    2  A    between atoms: S_2  and  N_9
REMARK    3  A    between atoms: C_4  and  C_5
REMARK    4  A    between atoms: N_9  and  C_10
REMARK    5  A    between atoms: N_9  and  C_17
REMARK    6  A    between atoms: C_10  and  C_11
REMARK    7  A    between atoms: C_21  and  O_22
REMARK    8  A    between atoms: O_22  and  C_23
REMARK                            x       y       z     vdW  Elec       q    Type
REMARK                         _______ _______ _______ _____ _____    ______ ____
ROOT
ATOM      1  N   UNL     1       2.889   5.603  18.404  0.00  0.00    +0.000 N 
ENDROOT
BRANCH   1   2
ATOM      2  C   UNL     1       2.300   6.703  19.089  0.00  0.00    +0.000 A 
ATOM      3  C   UNL     1       2.003   6.691  20.449  0.00  0.00    +0.000 A 
ATOM      4  C   UNL     1       1.468   7.842  21.037  0.00  0.00    +0.000 A 
ATOM      5  C   UNL     1       1.206   8.977  20.259  0.00  0.00    +0.000 A 
ATOM      6  C   UNL     1       1.481   8.966  18.893  0.00  0.00    +0.000 A 
ATOM      7  C   UNL     1       2.080   7.844  18.326  0.00  0.00    +0.000 A 
BRANCH   6   8
ATOM      8  O   UNL     1       1.167  10.092  18.162  0.00  0.00    +0.000 OA
BRANCH   8   9
ATOM      9  C   UNL     1      -0.148  10.515  18.150  0.00  0.00    +0.000 A 
ATOM     10  C   UNL     1      -1.186   9.779  17.565  0.00  0.00    +0.000 A 
ATOM     11  C   UNL     1      -2.477  10.301  17.514  0.00  0.00    +0.000 A 
ATOM     12  C   UNL     1      -2.753  11.524  18.118  0.00  0.00    +0.000 A 
ATOM     13  C   UNL     1      -1.738  12.226  18.768  0.00  0.00    +0.000 A 
ATOM     14  C   UNL     1      -0.432  11.727  18.778  0.00  0.00    +0.000 A 
ENDBRANCH   8   9
ENDBRANCH   6   8
ENDBRANCH   1   2
BRANCH   1  16
ATOM     15  O   UNL     1       1.083   4.353  17.213  0.00  0.00    +0.000 OA
ATOM     16  S   UNL     1       2.037   4.149  18.274  0.00  0.00    +0.000 S 
ATOM     17  O   UNL     1       1.612   3.805  19.615  0.00  0.00    +0.000 OA
BRANCH  16  18
ATOM     18  C   UNL     1       3.254   2.971  17.768  0.00  0.00    +0.000 C 
BRANCH  18  19
ATOM     19  C   UNL     1       3.285   1.818  18.710  0.00  0.00    +0.000 C 
ATOM     20  F   UNL     1       2.096   1.384  19.152  0.00  0.00    +0.000 F 
ATOM     21  F   UNL     1       3.901   0.765  18.113  0.00  0.00    +0.000 F 
ATOM     22  F   UNL     1       4.033   2.125  19.798  0.00  0.00    +0.000 F 
ENDBRANCH  18  19
ENDBRANCH  16  18
ENDBRANCH   1  16
BRANCH   1  23
ATOM     23  C   UNL     1       3.940   5.877  17.401  0.00  0.00    +0.000 C 
BRANCH  23  24
ATOM     24  C   UNL     1       5.329   5.902  17.968  0.00  0.00    +0.000 A 
ATOM     25  C   UNL     1       6.360   6.603  17.376  0.00  0.00    +0.000 A 
ATOM     26  N   UNL     1       7.600   6.702  17.900  0.00  0.00    +0.000 NA
ATOM     27  C   UNL     1       7.805   6.046  19.050  0.00  0.00    +0.000 A 
ATOM     28  N   UNL     1       6.897   5.303  19.703  0.00  0.00    +0.000 NA
ATOM     29  C   UNL     1       5.672   5.251  19.135  0.00  0.00    +0.000 A 
ENDBRANCH  23  24
ENDBRANCH   1  23
TORSDOF 8
ENDMDL
MODEL 6
REMARK VINA RESULT:      -8.1      0.876      1.244
REMARK  Name = 
REMARK  8 active torsions:
REMARK  status: ('A' for Active; 'I' for Inactive)
REMARK    1  A    between atoms: S_2  and  C_4
REMARK    2  A    between atoms: S_2  and  N_9
REMARK    3  A    between atoms: C_4  and  C_5
REMARK    4  A    between atoms: N_9  and  C_10
REMARK    5  A    between atoms: N_9  and  C_17
REMARK    6  A    between atoms: C_10  and  C_11
REMARK    7  A    between atoms: C_21  and  O_22
REMARK    8  A    between atoms: O_22  and  C_23
REMARK                            x       y       z     vdW  Elec       q    Type
REMARK                         _______ _______ _______ _____ _____    ______ ____
ROOT
ATOM      1  N   UNL     1       3.121   5.899  18.107  0.00  0.00    +0.000 N 
ENDROOT
BRANCH   1   2
ATOM      2  C   UNL     1       2.433   6.916  18.826  0.00  0.00    +0.000 A 
ATOM      3  C   UNL     1       2.135   6.829  20.184  0.00  0.00    +0.000 A 
ATOM      4  C   UNL     1       1.495   7.905  20.809  0.00  0.00    +0.000 A 
ATOM      5  C   UNL     1       1.131   9.037  20.069  0.00  0.00    +0.000 A 
ATOM      6  C   UNL     1       1.409   9.099  18.704  0.00  0.00    +0.000 A 
ATOM      7  C   UNL     1       2.110   8.058  18.102  0.00  0.00    +0.000 A 
BRANCH   6   8
ATOM      8  O   UNL     1       0.994  10.217  18.011  0.00  0.00    +0.000 OA
BRANCH   8   9
ATOM      9  C   UNL     1      -0.332  10.589  18.111  0.00  0.00    +0.000 A 
ATOM     10  C   UNL     1      -0.762  11.719  18.819  0.00  0.00    +0.000 A 
ATOM     11  C   UNL     1      -2.122  11.992  18.951  0.00  0.00    +0.000 A 
ATOM     12  C   UNL     1      -3.055  11.183  18.310  0.00  0.00    +0.000 A 
ATOM     13  C   UNL     1      -2.629  10.099  17.542  0.00  0.00    +0.000 A 
ATOM     14  C   UNL     1      -1.268   9.795  17.449  0.00  0.00    +0.000 A 
ENDBRANCH   8   9
ENDBRANCH   6   8
ENDBRANCH   1   2
BRANCH   1  16
ATOM     15  O   UNL     1       3.264   3.669  16.988  0.00  0.00    +0.000 OA
ATOM     16  S   UNL     1       2.366   4.410  17.838  0.00  0.00    +0.000 S 
ATOM     17  O   UNL     1       1.011   4.710  17.424  0.00  0.00    +0.000 OA
BRANCH  16  18
ATOM     18  C   UNL     1       2.296   3.659  19.436  0.00  0.00    +0.000 C 
BRANCH  18  19
ATOM     19  C   UNL     1       1.655   2.317  19.352  0.00  0.00    +0.000 C 
ATOM     20  F   UNL     1       0.504   2.254  18.668  0.00  0.00    +0.000 F 
ATOM     21  F   UNL     1       2.517   1.441  18.773  0.00  0.00    +0.000 F 
ATOM     22  F   UNL     1       1.412   1.839  20.597  0.00  0.00    +0.000 F 
ENDBRANCH  18  19
ENDBRANCH  16  18
ENDBRANCH   1  16
BRANCH   1  23
ATOM     23  C   UNL     1       4.205   6.299  17.183  0.00  0.00    +0.000 C 
BRANCH  23  24
ATOM     24  C   UNL     1       5.525   5.653  17.482  0.00  0.00    +0.000 A 
ATOM     25  C   UNL     1       6.389   5.237  16.489  0.00  0.00    +0.000 A 
ATOM     26  N   UNL     1       7.614   4.719  16.725  0.00  0.00    +0.000 NA
ATOM     27  C   UNL     1       7.958   4.594  18.014  0.00  0.00    +0.000 A 
ATOM     28  N   UNL     1       7.194   4.926  19.067  0.00  0.00    +0.000 NA
ATOM     29  C   UNL     1       5.986   5.449  18.766  0.00  0.00    +0.000 A 
ENDBRANCH  23  24
ENDBRANCH   1  23
TORSDOF 8
ENDMDL
MODEL 7
REMARK VINA RESULT:      -8.1      0.768      1.325
REMARK  Name = 
REMARK  8 active torsions:
REMARK  status: ('A' for Active; 'I' for Inactive)
REMARK    1  A    between atoms: S_2  and  C_4
REMARK    2  A    between atoms: S_2  and  N_9
REMARK    3  A    between atoms: C_4  and  C_5
REMARK    4  A    between atoms: N_9  and  C_10
REMARK    5  A    between atoms: N_9  and  C_17
REMARK    6  A    between atoms: C_10  and  C_11
REMARK    7  A    between atoms: C_21  and  O_22
REMARK    8  A    between atoms: O_22  and  C_23
REMARK                            x       y       z     vdW  Elec       q    Type
REMARK                         _______ _______ _______ _____ _____    ______ ____
ROOT
ATOM      1  N   UNL     1       2.900   5.402  18.262  0.00  0.00    +0.000 N 
ENDROOT
BRANCH   1   2
ATOM      2  C   UNL     1       2.361   6.519  18.962  0.00  0.00    +0.000 A 
ATOM      3  C   UNL     1       2.105   6.517  20.330  0.00  0.00    +0.000 A 
ATOM      4  C   UNL     1       1.618   7.682  20.931  0.00  0.00    +0.000 A 
ATOM      5  C   UNL     1       1.363   8.823  20.159  0.00  0.00    +0.000 A 
ATOM      6  C   UNL     1       1.596   8.802  18.785  0.00  0.00    +0.000 A 
ATOM      7  C   UNL     1       2.148   7.664  18.203  0.00  0.00    +0.000 A 
BRANCH   6   8
ATOM      8  O   UNL     1       1.290   9.935  18.061  0.00  0.00    +0.000 OA
BRANCH   8   9
ATOM      9  C   UNL     1      -0.003  10.417  18.123  0.00  0.00    +0.000 A 
ATOM     10  C   UNL     1      -1.101   9.743  17.573  0.00  0.00    +0.000 A 
ATOM     11  C   UNL     1      -2.367  10.324  17.596  0.00  0.00    +0.000 A 
ATOM     12  C   UNL     1      -2.557  11.543  18.239  0.00  0.00    +0.000 A 
ATOM     13  C   UNL     1      -1.480  12.183  18.854  0.00  0.00    +0.000 A 
ATOM     14  C   UNL     1      -0.200  11.626  18.789  0.00  0.00    +0.000 A 
ENDBRANCH   8   9
ENDBRANCH   6   8
ENDBRANCH   1   2
BRANCH   1  16
ATOM     15  O   UNL     1       2.884   2.947  17.801  0.00  0.00    +0.000 OA
ATOM     16  S   UNL     1       1.952   4.020  18.041  0.00  0.00    +0.000 S 
ATOM     17  O   UNL     1       0.939   4.372  17.067  0.00  0.00    +0.000 OA
BRANCH  16  18
ATOM     18  C   UNL     1       1.152   3.783  19.599  0.00  0.00    +0.000 C 
BRANCH  18  19
ATOM     19  C   UNL     1       1.860   2.741  20.394  0.00  0.00    +0.000 C 
ATOM     20  F   UNL     1       1.429   2.564  21.651  0.00  0.00    +0.000 F 
ATOM     21  F   UNL     1       1.759   1.544  19.760  0.00  0.00    +0.000 F 
ATOM     22  F   UNL     1       3.184   3.023  20.457  0.00  0.00    +0.000 F 
ENDBRANCH  18  19
ENDBRANCH  16  18
ENDBRANCH   1  16
BRANCH   1  23
ATOM     23  C   UNL     1       4.013   5.633  17.316  0.00  0.00    +0.000 C 
BRANCH  23  24
ATOM     24  C   UNL     1       5.349   5.795  17.979  0.00  0.00    +0.000 A 
ATOM     25  C   UNL     1       5.671   5.165  19.164  0.00  0.00    +0.000 A 
ATOM     26  N   UNL     1       6.887   5.234  19.747  0.00  0.00    +0.000 NA
ATOM     27  C   UNL     1       7.796   5.991  19.118  0.00  0.00    +0.000 A 
ATOM     28  N   UNL     1       7.594   6.681  17.984  0.00  0.00    +0.000 NA
ATOM     29  C   UNL     1       6.362   6.562  17.443  0.00  0.00    +0.000 A 
ENDBRANCH  23  24
ENDBRANCH   1  23
TORSDOF 8
ENDMDL
MODEL 8
REMARK VINA RESULT:      -8.0      1.220      1.672
REMARK  Name = 
REMARK  8 active torsions:
REMARK  status: ('A' for Active; 'I' for Inactive)
REMARK    1  A    between atoms: S_2  and  C_4
REMARK    2  A    between atoms: S_2  and  N_9
REMARK    3  A    between atoms: C_4  and  C_5
REMARK    4  A    between atoms: N_9  and  C_10
REMARK    5  A    between atoms: N_9  and  C_17
REMARK    6  A    between atoms: C_10  and  C_11
REMARK    7  A    between atoms: C_21  and  O_22
REMARK    8  A    between atoms: O_22  and  C_23
REMARK                            x       y       z     vdW  Elec       q    Type
REMARK                         _______ _______ _______ _____ _____    ______ ____
ROOT
ATOM      1  N   UNL     1       2.854   5.609  18.388  0.00  0.00    +0.000 N 
ENDROOT
BRANCH   1   2
ATOM      2  C   UNL     1       2.284   6.714  19.080  0.00  0.00    +0.000 A 
ATOM      3  C   UNL     1       2.015   6.709  20.446  0.00  0.00    +0.000 A 
ATOM      4  C   UNL     1       1.497   7.865  21.040  0.00  0.00    +0.000 A 
ATOM      5  C   UNL     1       1.223   8.997  20.262  0.00  0.00    +0.000 A 
ATOM      6  C   UNL     1       1.469   8.979  18.890  0.00  0.00    +0.000 A 
ATOM      7  C   UNL     1       2.053   7.853  18.316  0.00  0.00    +0.000 A 
BRANCH   6   8
ATOM      8  O   UNL     1       1.144  10.103  18.161  0.00  0.00    +0.000 OA
BRANCH   8   9
ATOM      9  C   UNL     1      -0.160  10.557  18.211  0.00  0.00    +0.000 A 
ATOM     10  C   UNL     1      -0.537  11.741  18.856  0.00  0.00    +0.000 A 
ATOM     11  C   UNL     1      -1.881  12.099  18.941  0.00  0.00    +0.000 A 
ATOM     12  C   UNL     1      -2.846  11.317  18.314  0.00  0.00    +0.000 A 
ATOM     13  C   UNL     1      -2.467  10.175  17.606  0.00  0.00    +0.000 A 
ATOM     14  C   UNL     1      -1.125   9.788  17.561  0.00  0.00    +0.000 A 
ENDBRANCH   8   9
ENDBRANCH   6   8
ENDBRANCH   1   2
BRANCH   1  16
ATOM     15  O   UNL     1       1.018   4.406  17.195  0.00  0.00    +0.000 OA
ATOM     16  S   UNL     1       1.977   4.171  18.245  0.00  0.00    +0.000 S 
ATOM     17  O   UNL     1       1.557   3.817  19.585  0.00  0.00    +0.000 OA
BRANCH  16  18
ATOM     18  C   UNL     1       3.169   2.980  17.714  0.00  0.00    +0.000 C 
BRANCH  18  19
ATOM     19  C   UNL     1       3.271   1.870  18.701  0.00  0.00    +0.000 C 
ATOM     20  F   UNL     1       3.936   0.778  18.295  0.00  0.00    +0.000 F 
ATOM     21  F   UNL     1       3.885   2.321  19.826  0.00  0.00    +0.000 F 
ATOM     22  F   UNL     1       2.033   1.470  19.082  0.00  0.00    +0.000 F 
ENDBRANCH  18  19
ENDBRANCH  16  18
ENDBRANCH   1  16
BRANCH   1  23
ATOM     23  C   UNL     1       3.912   5.872  17.388  0.00  0.00    +0.000 C 
BRANCH  23  24
ATOM     24  C   UNL     1       5.303   5.810  17.947  0.00  0.00    +0.000 A 
ATOM     25  C   UNL     1       6.405   6.255  17.245  0.00  0.00    +0.000 A 
ATOM     26  N   UNL     1       7.658   6.278  17.747  0.00  0.00    +0.000 NA
ATOM     27  C   UNL     1       7.798   5.807  18.994  0.00  0.00    +0.000 A 
ATOM     28  N   UNL     1       6.814   5.315  19.763  0.00  0.00    +0.000 NA
ATOM     29  C   UNL     1       5.582   5.329  19.209  0.00  0.00    +0.000 A 
ENDBRANCH  23  24
ENDBRANCH   1  23
TORSDOF 8
ENDMDL
MODEL 9
REMARK VINA RESULT:      -7.9      1.222      2.140
REMARK  Name = 
REMARK  8 active torsions:
REMARK  status: ('A' for Active; 'I' for Inactive)
REMARK    1  A    between atoms: S_2  and  C_4
REMARK    2  A    between atoms: S_2  and  N_9
REMARK    3  A    between atoms: C_4  and  C_5
REMARK    4  A    between atoms: N_9  and  C_10
REMARK    5  A    between atoms: N_9  and  C_17
REMARK    6  A    between atoms: C_10  and  C_11
REMARK    7  A    between atoms: C_21  and  O_22
REMARK    8  A    between atoms: O_22  and  C_23
REMARK                            x       y       z     vdW  Elec       q    Type
REMARK                         _______ _______ _______ _____ _____    ______ ____
ROOT
ATOM      1  N   UNL     1       3.229   5.735  18.132  0.00  0.00    +0.000 N 
ENDROOT
BRANCH   1   2
ATOM      2  C   UNL     1       2.518   6.764  18.812  0.00  0.00    +0.000 A 
ATOM      3  C   UNL     1       2.208   6.715  20.169  0.00  0.00    +0.000 A 
ATOM      4  C   UNL     1       1.546   7.800  20.753  0.00  0.00    +0.000 A 
ATOM      5  C   UNL     1       1.173   8.903  19.974  0.00  0.00    +0.000 A 
ATOM      6  C   UNL     1       1.463   8.926  18.611  0.00  0.00    +0.000 A 
ATOM      7  C   UNL     1       2.186   7.877  18.049  0.00  0.00    +0.000 A 
BRANCH   6   8
ATOM      8  O   UNL     1       1.039  10.015  17.879  0.00  0.00    +0.000 OA
BRANCH   8   9
ATOM      9  C   UNL     1       1.243  11.274  18.408  0.00  0.00    +0.000 A 
ATOM     10  C   UNL     1       0.326  11.910  19.253  0.00  0.00    +0.000 A 
ATOM     11  C   UNL     1       0.554  13.215  19.685  0.00  0.00    +0.000 A 
ATOM     12  C   UNL     1       1.738  13.861  19.341  0.00  0.00    +0.000 A 
ATOM     13  C   UNL     1       2.689  13.204  18.560  0.00  0.00    +0.000 A 
ATOM     14  C   UNL     1       2.440  11.913  18.085  0.00  0.00    +0.000 A 
ENDBRANCH   8   9
ENDBRANCH   6   8
ENDBRANCH   1   2
BRANCH   1  16
ATOM     15  O   UNL     1       3.317   3.570  16.888  0.00  0.00    +0.000 OA
ATOM     16  S   UNL     1       2.471   4.254  17.834  0.00  0.00    +0.000 S 
ATOM     17  O   UNL     1       1.089   4.559  17.526  0.00  0.00    +0.000 OA
BRANCH  16  18
ATOM     18  C   UNL     1       2.512   3.418  19.390  0.00  0.00    +0.000 C 
BRANCH  18  19
ATOM     19  C   UNL     1       1.131   3.103  19.849  0.00  0.00    +0.000 C 
ATOM     20  F   UNL     1       0.359   4.154  20.163  0.00  0.00    +0.000 F 
ATOM     21  F   UNL     1       0.483   2.403  18.881  0.00  0.00    +0.000 F 
ATOM     22  F   UNL     1       1.174   2.294  20.935  0.00  0.00    +0.000 F 
ENDBRANCH  18  19
ENDBRANCH  16  18
ENDBRANCH   1  16
BRANCH   1  23
ATOM     23  C   UNL     1       4.361   6.117  17.260  0.00  0.00    +0.000 C 
BRANCH  23  24
ATOM     24  C   UNL     1       5.696   6.066  17.942  0.00  0.00    +0.000 A 
ATOM     25  C   UNL     1       6.774   6.818  17.521  0.00  0.00    +0.000 A 
ATOM     26  N   UNL     1       7.966   6.847  18.156  0.00  0.00    +0.000 NA
ATOM     27  C   UNL     1       8.072   6.066  19.239  0.00  0.00    +0.000 A 
ATOM     28  N   UNL     1       7.111   5.264  19.726  0.00  0.00    +0.000 NA
ATOM     29  C   UNL     1       5.939   5.287  19.055  0.00  0.00    +0.000 A 
ENDBRANCH  23  24
ENDBRANCH   1  23
TORSDOF 8
ENDMDL
