MODEL 1
REMARK VINA RESULT:      -7.7      0.000      0.000
REMARK  Name = 
REMARK  6 active torsions:
REMARK  status: ('A' for Active; 'I' for Inactive)
REMARK    1  A    between atoms: C_1  and  O_2
REMARK    2  A    between atoms: O_2  and  C_3
REMARK    3  A    between atoms: C_7  and  N_8
REMARK    4  A    between atoms: C_9  and  C_11
REMARK    5  A    between atoms: C_16  and  O_17
REMARK    6  A    between atoms: O_17  and  C_18
REMARK                            x       y       z     vdW  Elec       q    Type
REMARK                         _______ _______ _______ _____ _____    ______ ____
ROOT
ATOM      1  N   UNL     1       4.859   4.965  15.504  0.00  0.00    +0.000 N 
ATOM      2  C   UNL     1       5.201   4.722  16.822  0.00  0.00    +0.000 C 
ATOM      3  O   UNL     1       6.272   4.283  17.227  0.00  0.00    +0.000 OA
ATOM      4  H   UNL     1       4.050   5.546  15.321  0.00  0.00    +0.000 HD
ENDROOT
BRANCH   2   5
ATOM      5  C   UNL     1       4.189   5.074  17.851  0.00  0.00    +0.000 A 
ATOM      6  C   UNL     1       3.678   6.382  17.833  0.00  0.00    +0.000 A 
ATOM      7  C   UNL     1       2.822   6.813  18.843  0.00  0.00    +0.000 A 
ATOM      8  C   UNL     1       2.472   5.930  19.856  0.00  0.00    +0.000 A 
ATOM      9  F   UNL     1       1.666   6.365  20.836  0.00  0.00    +0.000 F 
ATOM     10  C   UNL     1       2.948   4.612  19.879  0.00  0.00    +0.000 A 
ATOM     11  C   UNL     1       3.838   4.192  18.884  0.00  0.00    +0.000 A 
BRANCH  10  12
ATOM     12  O   UNL     1       2.554   3.871  20.952  0.00  0.00    +0.000 OA
BRANCH  12  13
ATOM     13  C   UNL     1       1.444   3.001  20.831  0.00  0.00    +0.000 C 
ATOM     14  F   UNL     1       1.688   1.915  20.064  0.00  0.00    +0.000 F 
ATOM     15  F   UNL     1       1.068   2.587  22.059  0.00  0.00    +0.000 F 
ATOM     16  F   UNL     1       0.418   3.679  20.275  0.00  0.00    +0.000 F 
ENDBRANCH  12  13
ENDBRANCH  10  12
ENDBRANCH   2   5
BRANCH   1  21
ATOM     17  C   UNL     1       5.888   3.232  12.381  0.00  0.00    +0.000 A 
ATOM     18  C   UNL     1       7.129   3.823  12.134  0.00  0.00    +0.000 A 
ATOM     19  C   UNL     1       7.634   4.785  13.000  0.00  0.00    +0.000 A 
ATOM     20  C   UNL     1       6.895   5.168  14.117  0.00  0.00    +0.000 A 
ATOM     21  C   UNL     1       5.645   4.600  14.379  0.00  0.00    +0.000 A 
ATOM     22  C   UNL     1       5.151   3.616  13.509  0.00  0.00    +0.000 A 
BRANCH  17  24
ATOM     23  C   UNL     1       6.480   1.311  11.108  0.00  0.00    +0.000 C 
ATOM     24  O   UNL     1       5.520   2.300  11.450  0.00  0.00    +0.000 OA
ENDBRANCH  17  24
ENDBRANCH   1  21
TORSDOF 5
ENDMDL
MODEL 2
REMARK VINA RESULT:      -7.5      4.570      6.345
REMARK  Name = 
REMARK  6 active torsions:
REMARK  status: ('A' for Active; 'I' for Inactive)
REMARK    1  A    between atoms: C_1  and  O_2
REMARK    2  A    between atoms: O_2  and  C_3
REMARK    3  A    between atoms: C_7  and  N_8
REMARK    4  A    between atoms: C_9  and  C_11
REMARK    5  A    between atoms: C_16  and  O_17
REMARK    6  A    between atoms: O_17  and  C_18
REMARK                            x       y       z     vdW  Elec       q    Type
REMARK                         _______ _______ _______ _____ _____    ______ ____
ROOT
ATOM      1  N   UNL     1       2.244   6.853  18.984  0.00  0.00    +0.000 N 
ATOM      2  C   UNL     1       2.132   8.073  18.342  0.00  0.00    +0.000 C 
ATOM      3  O   UNL     1       2.595   8.364  17.244  0.00  0.00    +0.000 OA
ATOM      4  H   UNL     1       1.623   6.664  19.761  0.00  0.00    +0.000 HD
ENDROOT
BRANCH   2   5
ATOM      5  C   UNL     1       1.328   9.118  19.028  0.00  0.00    +0.000 A 
ATOM      6  C   UNL     1       0.720  10.096  18.225  0.00  0.00    +0.000 A 
ATOM      7  C   UNL     1       0.058  11.170  18.811  0.00  0.00    +0.000 A 
ATOM      8  C   UNL     1      -0.004  11.253  20.195  0.00  0.00    +0.000 A 
ATOM      9  F   UNL     1      -0.624  12.307  20.748  0.00  0.00    +0.000 F 
ATOM     10  C   UNL     1       0.572  10.275  21.017  0.00  0.00    +0.000 A 
ATOM     11  C   UNL     1       1.269   9.214  20.427  0.00  0.00    +0.000 A 
BRANCH  10  12
ATOM     12  O   UNL     1       0.469  10.505  22.355  0.00  0.00    +0.000 OA
BRANCH  12  13
ATOM     13  C   UNL     1      -0.418   9.721  23.133  0.00  0.00    +0.000 C 
ATOM     14  F   UNL     1      -0.890   8.634  22.485  0.00  0.00    +0.000 F 
ATOM     15  F   UNL     1       0.215   9.316  24.253  0.00  0.00    +0.000 F 
ATOM     16  F   UNL     1      -1.474  10.483  23.490  0.00  0.00    +0.000 F 
ENDBRANCH  12  13
ENDBRANCH  10  12
ENDBRANCH   2   5
BRANCH   1  21
ATOM     17  C   UNL     1       5.226   4.679  18.542  0.00  0.00    +0.000 A 
ATOM     18  C   UNL     1       4.716   3.676  17.715  0.00  0.00    +0.000 A 
ATOM     19  C   UNL     1       3.393   3.718  17.293  0.00  0.00    +0.000 A 
ATOM     20  C   UNL     1       2.568   4.763  17.704  0.00  0.00    +0.000 A 
ATOM     21  C   UNL     1       3.052   5.773  18.541  0.00  0.00    +0.000 A 
ATOM     22  C   UNL     1       4.395   5.732  18.947  0.00  0.00    +0.000 A 
BRANCH  17  24
ATOM     23  C   UNL     1       7.271   5.672  19.244  0.00  0.00    +0.000 C 
ATOM     24  O   UNL     1       6.543   4.511  18.874  0.00  0.00    +0.000 OA
ENDBRANCH  17  24
ENDBRANCH   1  21
TORSDOF 5
ENDMDL
MODEL 3
REMARK VINA RESULT:      -7.5      4.441      7.711
REMARK  Name = 
REMARK  6 active torsions:
REMARK  status: ('A' for Active; 'I' for Inactive)
REMARK    1  A    between atoms: C_1  and  O_2
REMARK    2  A    between atoms: O_2  and  C_3
REMARK    3  A    between atoms: C_7  and  N_8
REMARK    4  A    between atoms: C_9  and  C_11
REMARK    5  A    between atoms: C_16  and  O_17
REMARK    6  A    between atoms: O_17  and  C_18
REMARK                            x       y       z     vdW  Elec       q    Type
REMARK                         _______ _______ _______ _____ _____    ______ ____
ROOT
ATOM      1  N   UNL     1       1.236   9.162  19.320  0.00  0.00    +0.000 N 
ATOM      2  C   UNL     1       2.007   8.573  18.335  0.00  0.00    +0.000 C 
ATOM      3  O   UNL     1       2.233   9.027  17.218  0.00  0.00    +0.000 OA
ATOM      4  H   UNL     1       1.324   8.812  20.267  0.00  0.00    +0.000 HD
ENDROOT
BRANCH   2   5
ATOM      5  C   UNL     1       2.665   7.286  18.680  0.00  0.00    +0.000 A 
ATOM      6  C   UNL     1       3.652   6.810  17.803  0.00  0.00    +0.000 A 
ATOM      7  C   UNL     1       4.219   5.555  18.001  0.00  0.00    +0.000 A 
ATOM      8  C   UNL     1       3.805   4.789  19.084  0.00  0.00    +0.000 A 
ATOM      9  F   UNL     1       4.342   3.571  19.251  0.00  0.00    +0.000 F 
ATOM     10  C   UNL     1       2.842   5.256  19.988  0.00  0.00    +0.000 A 
ATOM     11  C   UNL     1       2.246   6.502  19.766  0.00  0.00    +0.000 A 
BRANCH  10  12
ATOM     12  O   UNL     1       2.505   4.384  20.979  0.00  0.00    +0.000 OA
BRANCH  12  13
ATOM     13  C   UNL     1       1.442   3.470  20.774  0.00  0.00    +0.000 C 
ATOM     14  F   UNL     1       1.730   2.496  19.883  0.00  0.00    +0.000 F 
ATOM     15  F   UNL     1       1.117   2.897  21.951  0.00  0.00    +0.000 F 
ATOM     16  F   UNL     1       0.368   4.147  20.316  0.00  0.00    +0.000 F 
ENDBRANCH  12  13
ENDBRANCH  10  12
ENDBRANCH   2   5
BRANCH   1  21
ATOM     17  C   UNL     1      -1.577  11.347  18.260  0.00  0.00    +0.000 A 
ATOM     18  C   UNL     1      -1.169  12.585  18.761  0.00  0.00    +0.000 A 
ATOM     19  C   UNL     1       0.037  12.705  19.440  0.00  0.00    +0.000 A 
ATOM     20  C   UNL     1       0.840  11.583  19.629  0.00  0.00    +0.000 A 
ATOM     21  C   UNL     1       0.448  10.330  19.147  0.00  0.00    +0.000 A 
ATOM     22  C   UNL     1      -0.763  10.222  18.446  0.00  0.00    +0.000 A 
BRANCH  17  24
ATOM     23  C   UNL     1      -3.554  10.187  17.620  0.00  0.00    +0.000 C 
ATOM     24  O   UNL     1      -2.781  11.379  17.611  0.00  0.00    +0.000 OA
ENDBRANCH  17  24
ENDBRANCH   1  21
TORSDOF 5
ENDMDL
MODEL 4
REMARK VINA RESULT:      -7.4      0.716      1.118
REMARK  Name = 
REMARK  6 active torsions:
REMARK  status: ('A' for Active; 'I' for Inactive)
REMARK    1  A    between atoms: C_1  and  O_2
REMARK    2  A    between atoms: O_2  and  C_3
REMARK    3  A    between atoms: C_7  and  N_8
REMARK    4  A    between atoms: C_9  and  C_11
REMARK    5  A    between atoms: C_16  and  O_17
REMARK    6  A    between atoms: O_17  and  C_18
REMARK                            x       y       z     vdW  Elec       q    Type
REMARK                         _______ _______ _______ _____ _____    ______ ____
ROOT
ATOM      1  N   UNL     1       4.997   5.175  15.712  0.00  0.00    +0.000 N 
ATOM      2  C   UNL     1       4.759   4.353  16.798  0.00  0.00    +0.000 C 
ATOM      3  O   UNL     1       5.243   3.242  16.992  0.00  0.00    +0.000 OA
ATOM      4  H   UNL     1       4.735   6.150  15.785  0.00  0.00    +0.000 HD
ENDROOT
BRANCH   2   5
ATOM      5  C   UNL     1       3.868   4.890  17.860  0.00  0.00    +0.000 A 
ATOM      6  C   UNL     1       3.506   6.243  17.775  0.00  0.00    +0.000 A 
ATOM      7  C   UNL     1       2.777   6.839  18.801  0.00  0.00    +0.000 A 
ATOM      8  C   UNL     1       2.404   6.073  19.898  0.00  0.00    +0.000 A 
ATOM      9  F   UNL     1       1.724   6.665  20.891  0.00  0.00    +0.000 F 
ATOM     10  C   UNL     1       2.732   4.714  19.991  0.00  0.00    +0.000 A 
ATOM     11  C   UNL     1       3.496   4.126  18.977  0.00  0.00    +0.000 A 
BRANCH  10  12
ATOM     12  O   UNL     1       2.336   4.099  21.140  0.00  0.00    +0.000 OA
BRANCH  12  13
ATOM     13  C   UNL     1       1.356   3.078  21.084  0.00  0.00    +0.000 C 
ATOM     14  F   UNL     1       0.878   2.718  22.295  0.00  0.00    +0.000 F 
ATOM     15  F   UNL     1       0.326   3.495  20.319  0.00  0.00    +0.000 F 
ATOM     16  F   UNL     1       1.899   1.983  20.511  0.00  0.00    +0.000 F 
ENDBRANCH  12  13
ENDBRANCH  10  12
ENDBRANCH   2   5
BRANCH   1  21
ATOM     17  C   UNL     1       5.806   3.554  12.466  0.00  0.00    +0.000 A 
ATOM     18  C   UNL     1       7.105   4.015  12.244  0.00  0.00    +0.000 A 
ATOM     19  C   UNL     1       7.721   4.852  13.166  0.00  0.00    +0.000 A 
ATOM     20  C   UNL     1       7.036   5.240  14.315  0.00  0.00    +0.000 A 
ATOM     21  C   UNL     1       5.731   4.801  14.555  0.00  0.00    +0.000 A 
ATOM     22  C   UNL     1       5.123   3.941  13.627  0.00  0.00    +0.000 A 
BRANCH  17  24
ATOM     23  C   UNL     1       3.999   2.963  11.036  0.00  0.00    +0.000 C 
ATOM     24  O   UNL     1       5.329   2.736  11.479  0.00  0.00    +0.000 OA
ENDBRANCH  17  24
ENDBRANCH   1  21
TORSDOF 5
ENDMDL
MODEL 5
REMARK VINA RESULT:      -7.4      4.369      8.285
REMARK  Name = 
REMARK  6 active torsions:
REMARK  status: ('A' for Active; 'I' for Inactive)
REMARK    1  A    between atoms: C_1  and  O_2
REMARK    2  A    between atoms: O_2  and  C_3
REMARK    3  A    between atoms: C_7  and  N_8
REMARK    4  A    between atoms: C_9  and  C_11
REMARK    5  A    between atoms: C_16  and  O_17
REMARK    6  A    between atoms: O_17  and  C_18
REMARK                            x       y       z     vdW  Elec       q    Type
REMARK                         _______ _______ _______ _____ _____    ______ ____
ROOT
ATOM      1  N   UNL     1       3.040   7.585  18.637  0.00  0.00    +0.000 N 
ATOM      2  C   UNL     1       2.966   6.263  18.239  0.00  0.00    +0.000 C 
ATOM      3  O   UNL     1       1.941   5.610  18.069  0.00  0.00    +0.000 OA
ATOM      4  H   UNL     1       3.918   8.073  18.508  0.00  0.00    +0.000 HD
ENDROOT
BRANCH   2   5
ATOM      5  C   UNL     1       4.252   5.581  17.941  0.00  0.00    +0.000 A 
ATOM      6  C   UNL     1       5.335   5.844  18.794  0.00  0.00    +0.000 A 
ATOM      7  C   UNL     1       6.597   5.337  18.501  0.00  0.00    +0.000 A 
ATOM      8  C   UNL     1       6.765   4.558  17.363  0.00  0.00    +0.000 A 
ATOM      9  F   UNL     1       7.992   4.095  17.078  0.00  0.00    +0.000 F 
ATOM     10  C   UNL     1       5.693   4.260  16.512  0.00  0.00    +0.000 A 
ATOM     11  C   UNL     1       4.433   4.801  16.788  0.00  0.00    +0.000 A 
BRANCH  10  12
ATOM     12  O   UNL     1       6.012   3.519  15.413  0.00  0.00    +0.000 OA
BRANCH  12  13
ATOM     13  C   UNL     1       6.042   4.137  14.139  0.00  0.00    +0.000 C 
ATOM     14  F   UNL     1       6.903   3.556  13.276  0.00  0.00    +0.000 F 
ATOM     15  F   UNL     1       4.804   4.105  13.603  0.00  0.00    +0.000 F 
ATOM     16  F   UNL     1       6.411   5.427  14.289  0.00  0.00    +0.000 F 
ENDBRANCH  12  13
ENDBRANCH  10  12
ENDBRANCH   2   5
BRANCH   1  21
ATOM     17  C   UNL     1       0.380   8.957  20.841  0.00  0.00    +0.000 A 
ATOM     18  C   UNL     1      -0.236   9.877  19.990  0.00  0.00    +0.000 A 
ATOM     19  C   UNL     1       0.216  10.041  18.687  0.00  0.00    +0.000 A 
ATOM     20  C   UNL     1       1.295   9.289  18.228  0.00  0.00    +0.000 A 
ATOM     21  C   UNL     1       1.936   8.369  19.064  0.00  0.00    +0.000 A 
ATOM     22  C   UNL     1       1.461   8.197  20.374  0.00  0.00    +0.000 A 
BRANCH  17  24
ATOM     23  C   UNL     1      -0.376  10.131  22.767  0.00  0.00    +0.000 C 
ATOM     24  O   UNL     1      -0.171   8.899  22.092  0.00  0.00    +0.000 OA
ENDBRANCH  17  24
ENDBRANCH   1  21
TORSDOF 5
ENDMDL
MODEL 6
REMARK VINA RESULT:      -7.4      3.531      5.359
REMARK  Name = 
REMARK  6 active torsions:
REMARK  status: ('A' for Active; 'I' for Inactive)
REMARK    1  A    between atoms: C_1  and  O_2
REMARK    2  A    between atoms: O_2  and  C_3
REMARK    3  A    between atoms: C_7  and  N_8
REMARK    4  A    between atoms: C_9  and  C_11
REMARK    5  A    between atoms: C_16  and  O_17
REMARK    6  A    between atoms: O_17  and  C_18
REMARK                            x       y       z     vdW  Elec       q    Type
REMARK                         _______ _______ _______ _____ _____    ______ ____
ROOT
ATOM      1  N   UNL     1       3.417   7.149  17.874  0.00  0.00    +0.000 N 
ATOM      2  C   UNL     1       2.583   7.024  18.970  0.00  0.00    +0.000 C 
ATOM      3  O   UNL     1       2.463   6.034  19.685  0.00  0.00    +0.000 OA
ATOM      4  H   UNL     1       3.603   8.080  17.520  0.00  0.00    +0.000 HD
ENDROOT
BRANCH   2   5
ATOM      5  C   UNL     1       1.791   8.223  19.348  0.00  0.00    +0.000 A 
ATOM      6  C   UNL     1       1.355   9.062  18.310  0.00  0.00    +0.000 A 
ATOM      7  C   UNL     1       0.717  10.264  18.602  0.00  0.00    +0.000 A 
ATOM      8  C   UNL     1       0.506  10.612  19.930  0.00  0.00    +0.000 A 
ATOM      9  F   UNL     1      -0.088  11.784  20.199  0.00  0.00    +0.000 F 
ATOM     10  C   UNL     1       0.908   9.777  20.981  0.00  0.00    +0.000 A 
ATOM     11  C   UNL     1       1.583   8.587  20.687  0.00  0.00    +0.000 A 
BRANCH  10  12
ATOM     12  O   UNL     1       0.673  10.264  22.232  0.00  0.00    +0.000 OA
BRANCH  12  13
ATOM     13  C   UNL     1      -0.348   9.687  23.026  0.00  0.00    +0.000 C 
ATOM     14  F   UNL     1      -1.355  10.538  23.317  0.00  0.00    +0.000 F 
ATOM     15  F   UNL     1      -0.858   8.617  22.381  0.00  0.00    +0.000 F 
ATOM     16  F   UNL     1       0.191   9.268  24.191  0.00  0.00    +0.000 F 
ENDBRANCH  12  13
ENDBRANCH  10  12
ENDBRANCH   2   5
BRANCH   1  21
ATOM     17  C   UNL     1       6.102   5.397  15.993  0.00  0.00    +0.000 A 
ATOM     18  C   UNL     1       5.712   4.064  16.133  0.00  0.00    +0.000 A 
ATOM     19  C   UNL     1       4.560   3.739  16.839  0.00  0.00    +0.000 A 
ATOM     20  C   UNL     1       3.793   4.749  17.416  0.00  0.00    +0.000 A 
ATOM     21  C   UNL     1       4.169   6.091  17.299  0.00  0.00    +0.000 A 
ATOM     22  C   UNL     1       5.325   6.410  16.569  0.00  0.00    +0.000 A 
BRANCH  17  24
ATOM     23  C   UNL     1       7.304   4.970  13.985  0.00  0.00    +0.000 C 
ATOM     24  O   UNL     1       7.252   5.568  15.272  0.00  0.00    +0.000 OA
ENDBRANCH  17  24
ENDBRANCH   1  21
TORSDOF 5
ENDMDL
MODEL 7
REMARK VINA RESULT:      -7.4      4.556      7.917
REMARK  Name = 
REMARK  6 active torsions:
REMARK  status: ('A' for Active; 'I' for Inactive)
REMARK    1  A    between atoms: C_1  and  O_2
REMARK    2  A    between atoms: O_2  and  C_3
REMARK    3  A    between atoms: C_7  and  N_8
REMARK    4  A    between atoms: C_9  and  C_11
REMARK    5  A    between atoms: C_16  and  O_17
REMARK    6  A    between atoms: O_17  and  C_18
REMARK                            x       y       z     vdW  Elec       q    Type
REMARK                         _______ _______ _______ _____ _____    ______ ____
ROOT
ATOM      1  N   UNL     1       1.311   9.109  19.186  0.00  0.00    +0.000 N 
ATOM      2  C   UNL     1       2.093   8.463  18.246  0.00  0.00    +0.000 C 
ATOM      3  O   UNL     1       2.332   8.851  17.107  0.00  0.00    +0.000 OA
ATOM      4  H   UNL     1       1.388   8.815  20.152  0.00  0.00    +0.000 HD
ENDROOT
BRANCH   2   5
ATOM      5  C   UNL     1       2.748   7.200  18.674  0.00  0.00    +0.000 A 
ATOM      6  C   UNL     1       3.805   6.721  17.885  0.00  0.00    +0.000 A 
ATOM      7  C   UNL     1       4.378   5.482  18.159  0.00  0.00    +0.000 A 
ATOM      8  C   UNL     1       3.899   4.737  19.229  0.00  0.00    +0.000 A 
ATOM      9  F   UNL     1       4.444   3.535  19.467  0.00  0.00    +0.000 F 
ATOM     10  C   UNL     1       2.863   5.208  20.047  0.00  0.00    +0.000 A 
ATOM     11  C   UNL     1       2.263   6.436  19.747  0.00  0.00    +0.000 A 
BRANCH  10  12
ATOM     12  O   UNL     1       2.469   4.355  21.033  0.00  0.00    +0.000 OA
BRANCH  12  13
ATOM     13  C   UNL     1       1.418   3.439  20.786  0.00  0.00    +0.000 C 
ATOM     14  F   UNL     1       1.722   2.503  19.861  0.00  0.00    +0.000 F 
ATOM     15  F   UNL     1       1.092   2.818  21.938  0.00  0.00    +0.000 F 
ATOM     16  F   UNL     1       0.340   4.122  20.347  0.00  0.00    +0.000 F 
ENDBRANCH  12  13
ENDBRANCH  10  12
ENDBRANCH   2   5
BRANCH   1  21
ATOM     17  C   UNL     1       0.419  12.686  18.715  0.00  0.00    +0.000 A 
ATOM     18  C   UNL     1      -0.949  12.596  18.449  0.00  0.00    +0.000 A 
ATOM     19  C   UNL     1      -1.582  11.360  18.433  0.00  0.00    +0.000 A 
ATOM     20  C   UNL     1      -0.847  10.202  18.677  0.00  0.00    +0.000 A 
ATOM     21  C   UNL     1       0.526  10.265  18.935  0.00  0.00    +0.000 A 
ATOM     22  C   UNL     1       1.153  11.520  18.967  0.00  0.00    +0.000 A 
BRANCH  17  24
ATOM     23  C   UNL     1      -0.035  15.018  18.855  0.00  0.00    +0.000 C 
ATOM     24  O   UNL     1       0.905  13.965  18.702  0.00  0.00    +0.000 OA
ENDBRANCH  17  24
ENDBRANCH   1  21
TORSDOF 5
ENDMDL
MODEL 8
REMARK VINA RESULT:      -7.3      4.600      8.073
REMARK  Name = 
REMARK  6 active torsions:
REMARK  status: ('A' for Active; 'I' for Inactive)
REMARK    1  A    between atoms: C_1  and  O_2
REMARK    2  A    between atoms: O_2  and  C_3
REMARK    3  A    between atoms: C_7  and  N_8
REMARK    4  A    between atoms: C_9  and  C_11
REMARK    5  A    between atoms: C_16  and  O_17
REMARK    6  A    between atoms: O_17  and  C_18
REMARK                            x       y       z     vdW  Elec       q    Type
REMARK                         _______ _______ _______ _____ _____    ______ ____
ROOT
ATOM      1  N   UNL     1       2.835   7.785  18.614  0.00  0.00    +0.000 N 
ATOM      2  C   UNL     1       2.914   6.404  18.576  0.00  0.00    +0.000 C 
ATOM      3  O   UNL     1       2.006   5.616  18.817  0.00  0.00    +0.000 OA
ATOM      4  H   UNL     1       3.572   8.317  18.167  0.00  0.00    +0.000 HD
ENDROOT
BRANCH   2   5
ATOM      5  C   UNL     1       4.215   5.820  18.155  0.00  0.00    +0.000 A 
ATOM      6  C   UNL     1       4.997   5.205  19.145  0.00  0.00    +0.000 A 
ATOM      7  C   UNL     1       6.277   4.749  18.843  0.00  0.00    +0.000 A 
ATOM      8  C   UNL     1       6.761   4.899  17.550  0.00  0.00    +0.000 A 
ATOM      9  F   UNL     1       8.005   4.478  17.278  0.00  0.00    +0.000 F 
ATOM     10  C   UNL     1       5.987   5.486  16.539  0.00  0.00    +0.000 A 
ATOM     11  C   UNL     1       4.715   5.977  16.853  0.00  0.00    +0.000 A 
BRANCH  10  12
ATOM     12  O   UNL     1       6.604   5.603  15.330  0.00  0.00    +0.000 OA
BRANCH  12  13
ATOM     13  C   UNL     1       6.381   4.621  14.334  0.00  0.00    +0.000 C 
ATOM     14  F   UNL     1       7.137   4.791  13.227  0.00  0.00    +0.000 F 
ATOM     15  F   UNL     1       6.638   3.401  14.850  0.00  0.00    +0.000 F 
ATOM     16  F   UNL     1       5.085   4.664  13.962  0.00  0.00    +0.000 F 
ENDBRANCH  12  13
ENDBRANCH  10  12
ENDBRANCH   2   5
BRANCH   1  21
ATOM     17  C   UNL     1      -0.130  10.026  18.595  0.00  0.00    +0.000 A 
ATOM     18  C   UNL     1      -0.499  10.006  19.942  0.00  0.00    +0.000 A 
ATOM     19  C   UNL     1       0.233   9.263  20.860  0.00  0.00    +0.000 A 
ATOM     20  C   UNL     1       1.336   8.528  20.434  0.00  0.00    +0.000 A 
ATOM     21  C   UNL     1       1.719   8.522  19.090  0.00  0.00    +0.000 A 
ATOM     22  C   UNL     1       0.985   9.290  18.172  0.00  0.00    +0.000 A 
BRANCH  17  24
ATOM     23  C   UNL     1      -1.955  10.138  17.073  0.00  0.00    +0.000 C 
ATOM     24  O   UNL     1      -0.936  10.801  17.808  0.00  0.00    +0.000 OA
ENDBRANCH  17  24
ENDBRANCH   1  21
TORSDOF 5
ENDMDL
MODEL 9
REMARK VINA RESULT:      -7.3      4.199      7.574
REMARK  Name = 
REMARK  6 active torsions:
REMARK  status: ('A' for Active; 'I' for Inactive)
REMARK    1  A    between atoms: C_1  and  O_2
REMARK    2  A    between atoms: O_2  and  C_3
REMARK    3  A    between atoms: C_7  and  N_8
REMARK    4  A    between atoms: C_9  and  C_11
REMARK    5  A    between atoms: C_16  and  O_17
REMARK    6  A    between atoms: O_17  and  C_18
REMARK                            x       y       z     vdW  Elec       q    Type
REMARK                         _______ _______ _______ _____ _____    ______ ____
ROOT
ATOM      1  N   UNL     1       1.894   8.761  17.771  0.00  0.00    +0.000 N 
ATOM      2  C   UNL     1       2.293   7.785  18.666  0.00  0.00    +0.000 C 
ATOM      3  O   UNL     1       2.055   7.758  19.869  0.00  0.00    +0.000 OA
ATOM      4  H   UNL     1       1.943   8.549  16.782  0.00  0.00    +0.000 HD
ENDROOT
BRANCH   2   5
ATOM      5  C   UNL     1       3.043   6.630  18.106  0.00  0.00    +0.000 A 
ATOM      6  C   UNL     1       4.216   6.909  17.389  0.00  0.00    +0.000 A 
ATOM      7  C   UNL     1       4.897   5.886  16.734  0.00  0.00    +0.000 A 
ATOM      8  C   UNL     1       4.407   4.589  16.813  0.00  0.00    +0.000 A 
ATOM      9  F   UNL     1       5.058   3.616  16.158  0.00  0.00    +0.000 F 
ATOM     10  C   UNL     1       3.252   4.283  17.546  0.00  0.00    +0.000 A 
ATOM     11  C   UNL     1       2.548   5.318  18.173  0.00  0.00    +0.000 A 
BRANCH  10  12
ATOM     12  O   UNL     1       2.865   2.977  17.503  0.00  0.00    +0.000 OA
BRANCH  12  13
ATOM     13  C   UNL     1       3.183   2.119  18.584  0.00  0.00    +0.000 C 
ATOM     14  F   UNL     1       2.111   1.761  19.324  0.00  0.00    +0.000 F 
ATOM     15  F   UNL     1       3.770   1.003  18.105  0.00  0.00    +0.000 F 
ATOM     16  F   UNL     1       4.057   2.748  19.397  0.00  0.00    +0.000 F 
ENDBRANCH  12  13
ENDBRANCH  10  12
ENDBRANCH   2   5
BRANCH   1  21
ATOM     17  C   UNL     1      -0.797  11.194  18.576  0.00  0.00    +0.000 A 
ATOM     18  C   UNL     1      -0.057  12.351  18.827  0.00  0.00    +0.000 A 
ATOM     19  C   UNL     1       1.328  12.335  18.723  0.00  0.00    +0.000 A 
ATOM     20  C   UNL     1       1.983  11.157  18.373  0.00  0.00    +0.000 A 
ATOM     21  C   UNL     1       1.265   9.982  18.128  0.00  0.00    +0.000 A 
ATOM     22  C   UNL     1      -0.135  10.012  18.217  0.00  0.00    +0.000 A 
BRANCH  17  24
ATOM     23  C   UNL     1      -2.984  10.580  17.866  0.00  0.00    +0.000 C 
ATOM     24  O   UNL     1      -2.149  11.357  18.712  0.00  0.00    +0.000 OA
ENDBRANCH  17  24
ENDBRANCH   1  21
TORSDOF 5
ENDMDL
