MODEL 1
REMARK VINA RESULT:      -8.5      0.000      0.000
REMARK  Name = 
REMARK  4 active torsions:
REMARK  status: ('A' for Active; 'I' for Inactive)
REMARK    1  A    between atoms: C_1  and  C_2
REMARK    2  A    between atoms: C_2  and  N_3
REMARK    3  A    between atoms: C_12  and  C_13
REMARK    4  A    between atoms: C_19  and  C_20
REMARK                            x       y       z     vdW  Elec       q    Type
REMARK                         _______ _______ _______ _____ _____    ______ ____
ROOT
ATOM      1  N   UNL     1      -1.348  11.722  21.814  0.00  0.00    +0.000 N 
ATOM      2  C   UNL     1      -0.367  10.814  21.470  0.00  0.00    +0.000 C 
ATOM      3  O   UNL     1       0.455  10.395  22.273  0.00  0.00    +0.000 OA
ATOM      4  N   UNL     1      -0.413  10.520  20.133  0.00  0.00    +0.000 N 
ATOM      5  C   UNL     1       0.543   9.708  19.520  0.00  0.00    +0.000 A 
ATOM      6  C   UNL     1       0.987   8.522  20.095  0.00  0.00    +0.000 A 
ATOM      7  C   UNL     1       1.974   7.776  19.440  0.00  0.00    +0.000 A 
ATOM      8  C   UNL     1       2.472   6.571  19.952  0.00  0.00    +0.000 A 
ATOM      9  C   UNL     1       3.497   5.883  19.288  0.00  0.00    +0.000 A 
ATOM     10  C   UNL     1       4.046   6.348  18.076  0.00  0.00    +0.000 A 
ATOM     11  C   UNL     1       3.492   7.529  17.554  0.00  0.00    +0.000 A 
ATOM     12  C   UNL     1       2.490   8.254  18.228  0.00  0.00    +0.000 A 
ATOM     13  C   UNL     1       1.965   9.450  17.735  0.00  0.00    +0.000 A 
ATOM     14  N   UNL     1       0.984  10.164  18.329  0.00  0.00    +0.000 NA
ATOM     15  H   UNL     1      -2.207  11.683  21.282  0.00  0.00    +0.000 HD
ATOM     16  H   UNL     1      -0.694  11.287  19.541  0.00  0.00    +0.000 HD
ENDROOT
BRANCH  10  17
ATOM     17  C   UNL     1       5.120   5.593  17.369  0.00  0.00    +0.000 A 
ATOM     18  C   UNL     1       4.885   5.168  16.042  0.00  0.00    +0.000 A 
ATOM     19  C   UNL     1       5.841   4.461  15.317  0.00  0.00    +0.000 A 
ATOM     20  F   UNL     1       5.559   4.061  14.070  0.00  0.00    +0.000 F 
ATOM     21  C   UNL     1       7.075   4.165  15.866  0.00  0.00    +0.000 A 
ATOM     22  C   UNL     1       7.345   4.567  17.168  0.00  0.00    +0.000 A 
ATOM     23  C   UNL     1       6.382   5.256  17.938  0.00  0.00    +0.000 A 
ATOM     24  C   UNL     1       6.779   5.593  19.355  0.00  0.00    +0.000 C 
ENDBRANCH  10  17
BRANCH   1  26
ATOM     25  C   UNL     1      -2.785  12.731  23.561  0.00  0.00    +0.000 C 
ATOM     26  C   UNL     1      -1.391  12.302  23.139  0.00  0.00    +0.000 C 
ENDBRANCH   1  26
TORSDOF 2
ENDMDL
MODEL 2
REMARK VINA RESULT:      -8.4      1.870      2.928
REMARK  Name = 
REMARK  4 active torsions:
REMARK  status: ('A' for Active; 'I' for Inactive)
REMARK    1  A    between atoms: C_1  and  C_2
REMARK    2  A    between atoms: C_2  and  N_3
REMARK    3  A    between atoms: C_12  and  C_13
REMARK    4  A    between atoms: C_19  and  C_20
REMARK                            x       y       z     vdW  Elec       q    Type
REMARK                         _______ _______ _______ _____ _____    ______ ____
ROOT
ATOM      1  N   UNL     1      -2.557  13.003  21.790  0.00  0.00    +0.000 N 
ATOM      2  C   UNL     1      -1.855  12.118  20.997  0.00  0.00    +0.000 C 
ATOM      3  O   UNL     1      -2.192  11.847  19.852  0.00  0.00    +0.000 OA
ATOM      4  N   UNL     1      -0.808  11.562  21.683  0.00  0.00    +0.000 N 
ATOM      5  C   UNL     1      -0.011  10.557  21.133  0.00  0.00    +0.000 A 
ATOM      6  C   UNL     1       0.457  10.615  19.825  0.00  0.00    +0.000 A 
ATOM      7  C   UNL     1       1.222   9.554  19.328  0.00  0.00    +0.000 A 
ATOM      8  C   UNL     1       1.731   9.538  18.023  0.00  0.00    +0.000 A 
ATOM      9  C   UNL     1       2.450   8.430  17.551  0.00  0.00    +0.000 A 
ATOM     10  C   UNL     1       2.715   7.310  18.364  0.00  0.00    +0.000 A 
ATOM     11  C   UNL     1       2.243   7.373  19.686  0.00  0.00    +0.000 A 
ATOM     12  C   UNL     1       1.485   8.460  20.164  0.00  0.00    +0.000 A 
ATOM     13  C   UNL     1       0.976   8.510  21.463  0.00  0.00    +0.000 A 
ATOM     14  N   UNL     1       0.271   9.543  21.976  0.00  0.00    +0.000 NA
ATOM     15  H   UNL     1      -2.026  13.500  22.492  0.00  0.00    +0.000 HD
ATOM     16  H   UNL     1      -0.978  11.415  22.667  0.00  0.00    +0.000 HD
ENDROOT
BRANCH  10  17
ATOM     17  C   UNL     1       3.501   6.149  17.856  0.00  0.00    +0.000 A 
ATOM     18  C   UNL     1       4.865   6.343  17.540  0.00  0.00    +0.000 A 
ATOM     19  C   UNL     1       5.662   5.306  17.063  0.00  0.00    +0.000 A 
ATOM     20  F   UNL     1       6.944   5.548  16.756  0.00  0.00    +0.000 F 
ATOM     21  C   UNL     1       5.152   4.032  16.900  0.00  0.00    +0.000 A 
ATOM     22  C   UNL     1       3.815   3.801  17.200  0.00  0.00    +0.000 A 
ATOM     23  C   UNL     1       2.974   4.841  17.654  0.00  0.00    +0.000 A 
ATOM     24  C   UNL     1       1.531   4.473  17.899  0.00  0.00    +0.000 C 
ENDBRANCH  10  17
BRANCH   1  26
ATOM     25  C   UNL     1      -5.013  13.101  22.098  0.00  0.00    +0.000 C 
ATOM     26  C   UNL     1      -3.798  13.589  21.330  0.00  0.00    +0.000 C 
ENDBRANCH   1  26
TORSDOF 2
ENDMDL
MODEL 3
REMARK VINA RESULT:      -8.4      2.092      2.946
REMARK  Name = 
REMARK  4 active torsions:
REMARK  status: ('A' for Active; 'I' for Inactive)
REMARK    1  A    between atoms: C_1  and  C_2
REMARK    2  A    between atoms: C_2  and  N_3
REMARK    3  A    between atoms: C_12  and  C_13
REMARK    4  A    between atoms: C_19  and  C_20
REMARK                            x       y       z     vdW  Elec       q    Type
REMARK                         _______ _______ _______ _____ _____    ______ ____
ROOT
ATOM      1  N   UNL     1      -2.159  13.321  22.232  0.00  0.00    +0.000 N 
ATOM      2  C   UNL     1      -1.625  12.344  21.417  0.00  0.00    +0.000 C 
ATOM      3  O   UNL     1      -2.176  11.964  20.392  0.00  0.00    +0.000 OA
ATOM      4  N   UNL     1      -0.468  11.837  21.947  0.00  0.00    +0.000 N 
ATOM      5  C   UNL     1       0.206  10.762  21.363  0.00  0.00    +0.000 A 
ATOM      6  C   UNL     1       0.415  10.675  19.991  0.00  0.00    +0.000 A 
ATOM      7  C   UNL     1       1.067   9.551  19.472  0.00  0.00    +0.000 A 
ATOM      8  C   UNL     1       1.317   9.389  18.104  0.00  0.00    +0.000 A 
ATOM      9  C   UNL     1       1.928   8.222  17.623  0.00  0.00    +0.000 A 
ATOM     10  C   UNL     1       2.341   7.186  18.484  0.00  0.00    +0.000 A 
ATOM     11  C   UNL     1       2.131   7.395  19.857  0.00  0.00    +0.000 A 
ATOM     12  C   UNL     1       1.482   8.543  20.354  0.00  0.00    +0.000 A 
ATOM     13  C   UNL     1       1.232   8.738  21.713  0.00  0.00    +0.000 A 
ATOM     14  N   UNL     1       0.641   9.833  22.239  0.00  0.00    +0.000 NA
ATOM     15  H   UNL     1      -1.501  13.875  22.763  0.00  0.00    +0.000 HD
ATOM     16  H   UNL     1      -0.447  11.795  22.954  0.00  0.00    +0.000 HD
ENDROOT
BRANCH  10  17
ATOM     17  C   UNL     1       3.011   5.961  17.960  0.00  0.00    +0.000 A 
ATOM     18  C   UNL     1       2.276   4.755  17.918  0.00  0.00    +0.000 A 
ATOM     19  C   UNL     1       2.834   3.571  17.441  0.00  0.00    +0.000 A 
ATOM     20  F   UNL     1       2.102   2.449  17.444  0.00  0.00    +0.000 F 
ATOM     21  C   UNL     1       4.131   3.537  16.965  0.00  0.00    +0.000 A 
ATOM     22  C   UNL     1       4.887   4.703  16.989  0.00  0.00    +0.000 A 
ATOM     23  C   UNL     1       4.358   5.910  17.499  0.00  0.00    +0.000 A 
ATOM     24  C   UNL     1       5.295   7.093  17.515  0.00  0.00    +0.000 C 
ENDBRANCH  10  17
BRANCH   1  26
ATOM     25  C   UNL     1      -4.592  13.163  22.670  0.00  0.00    +0.000 C 
ATOM     26  C   UNL     1      -3.463  13.886  21.957  0.00  0.00    +0.000 C 
ENDBRANCH   1  26
TORSDOF 2
ENDMDL
MODEL 4
REMARK VINA RESULT:      -8.3      1.534      2.177
REMARK  Name = 
REMARK  4 active torsions:
REMARK  status: ('A' for Active; 'I' for Inactive)
REMARK    1  A    between atoms: C_1  and  C_2
REMARK    2  A    between atoms: C_2  and  N_3
REMARK    3  A    between atoms: C_12  and  C_13
REMARK    4  A    between atoms: C_19  and  C_20
REMARK                            x       y       z     vdW  Elec       q    Type
REMARK                         _______ _______ _______ _____ _____    ______ ____
ROOT
ATOM      1  N   UNL     1      -1.797  13.225  22.246  0.00  0.00    +0.000 N 
ATOM      2  C   UNL     1      -0.922  12.212  21.909  0.00  0.00    +0.000 C 
ATOM      3  O   UNL     1      -0.027  11.838  22.655  0.00  0.00    +0.000 OA
ATOM      4  N   UNL     1      -1.157  11.756  20.639  0.00  0.00    +0.000 N 
ATOM      5  C   UNL     1      -0.336  10.806  20.029  0.00  0.00    +0.000 A 
ATOM      6  C   UNL     1       0.111   9.673  20.699  0.00  0.00    +0.000 A 
ATOM      7  C   UNL     1       0.961   8.781  20.035  0.00  0.00    +0.000 A 
ATOM      8  C   UNL     1       1.454   7.618  20.639  0.00  0.00    +0.000 A 
ATOM      9  C   UNL     1       2.344   6.779  19.953  0.00  0.00    +0.000 A 
ATOM     10  C   UNL     1       2.756   7.047  18.633  0.00  0.00    +0.000 A 
ATOM     11  C   UNL     1       2.205   8.189  18.028  0.00  0.00    +0.000 A 
ATOM     12  C   UNL     1       1.341   9.064  18.716  0.00  0.00    +0.000 A 
ATOM     13  C   UNL     1       0.824  10.224  18.135  0.00  0.00    +0.000 A 
ATOM     14  N   UNL     1      -0.030  11.076  18.743  0.00  0.00    +0.000 NA
ATOM     15  H   UNL     1      -2.719  13.181  21.832  0.00  0.00    +0.000 HD
ATOM     16  H   UNL     1      -1.470  12.461  19.989  0.00  0.00    +0.000 HD
ENDROOT
BRANCH  10  17
ATOM     17  C   UNL     1       3.685   6.133  17.907  0.00  0.00    +0.000 A 
ATOM     18  C   UNL     1       4.989   6.591  17.613  0.00  0.00    +0.000 A 
ATOM     19  C   UNL     1       5.912   5.795  16.941  0.00  0.00    +0.000 A 
ATOM     20  F   UNL     1       7.129   6.284  16.666  0.00  0.00    +0.000 F 
ATOM     21  C   UNL     1       5.592   4.507  16.552  0.00  0.00    +0.000 A 
ATOM     22  C   UNL     1       4.319   4.020  16.823  0.00  0.00    +0.000 A 
ATOM     23  C   UNL     1       3.352   4.818  17.474  0.00  0.00    +0.000 A 
ATOM     24  C   UNL     1       1.992   4.191  17.666  0.00  0.00    +0.000 C 
ENDBRANCH  10  17
BRANCH   1  26
ATOM     25  C   UNL     1      -2.875  13.954  24.353  0.00  0.00    +0.000 C 
ATOM     26  C   UNL     1      -1.635  13.968  23.476  0.00  0.00    +0.000 C 
ENDBRANCH   1  26
TORSDOF 2
ENDMDL
MODEL 5
REMARK VINA RESULT:      -8.2      2.304      3.837
REMARK  Name = 
REMARK  4 active torsions:
REMARK  status: ('A' for Active; 'I' for Inactive)
REMARK    1  A    between atoms: C_1  and  C_2
REMARK    2  A    between atoms: C_2  and  N_3
REMARK    3  A    between atoms: C_12  and  C_13
REMARK    4  A    between atoms: C_19  and  C_20
REMARK                            x       y       z     vdW  Elec       q    Type
REMARK                         _______ _______ _______ _____ _____    ______ ____
ROOT
ATOM      1  N   UNL     1      -3.455  13.461  23.510  0.00  0.00    +0.000 N 
ATOM      2  C   UNL     1      -2.793  12.623  22.636  0.00  0.00    +0.000 C 
ATOM      3  O   UNL     1      -3.268  12.281  21.561  0.00  0.00    +0.000 OA
ATOM      4  N   UNL     1      -1.605  12.195  23.166  0.00  0.00    +0.000 N 
ATOM      5  C   UNL     1      -0.801  11.254  22.519  0.00  0.00    +0.000 A 
ATOM      6  C   UNL     1      -0.542  11.313  21.154  0.00  0.00    +0.000 A 
ATOM      7  C   UNL     1       0.244  10.315  20.567  0.00  0.00    +0.000 A 
ATOM      8  C   UNL     1       0.551  10.304  19.200  0.00  0.00    +0.000 A 
ATOM      9  C   UNL     1       1.300   9.256  18.646  0.00  0.00    +0.000 A 
ATOM     10  C   UNL     1       1.796   8.196  19.430  0.00  0.00    +0.000 A 
ATOM     11  C   UNL     1       1.522   8.257  20.806  0.00  0.00    +0.000 A 
ATOM     12  C   UNL     1       0.738   9.281  21.374  0.00  0.00    +0.000 A 
ATOM     13  C   UNL     1       0.427   9.325  22.734  0.00  0.00    +0.000 A 
ATOM     14  N   UNL     1      -0.295  10.301  23.328  0.00  0.00    +0.000 NA
ATOM     15  H   UNL     1      -2.878  14.032  24.113  0.00  0.00    +0.000 HD
ATOM     16  H   UNL     1      -1.611  12.065  24.166  0.00  0.00    +0.000 HD
ENDROOT
BRANCH  10  17
ATOM     17  C   UNL     1       2.611   7.100  18.830  0.00  0.00    +0.000 A 
ATOM     18  C   UNL     1       3.435   7.401  17.722  0.00  0.00    +0.000 A 
ATOM     19  C   UNL     1       4.225   6.431  17.111  0.00  0.00    +0.000 A 
ATOM     20  F   UNL     1       4.971   6.762  16.049  0.00  0.00    +0.000 F 
ATOM     21  C   UNL     1       4.250   5.132  17.583  0.00  0.00    +0.000 A 
ATOM     22  C   UNL     1       3.454   4.796  18.671  0.00  0.00    +0.000 A 
ATOM     23  C   UNL     1       2.617   5.752  19.290  0.00  0.00    +0.000 A 
ATOM     24  C   UNL     1       1.765   5.251  20.431  0.00  0.00    +0.000 C 
ENDBRANCH  10  17
BRANCH   1  26
ATOM     25  C   UNL     1      -5.869  13.014  23.841  0.00  0.00    +0.000 C 
ATOM     26  C   UNL     1      -4.803  13.908  23.233  0.00  0.00    +0.000 C 
ENDBRANCH   1  26
TORSDOF 2
ENDMDL
MODEL 6
REMARK VINA RESULT:      -8.0      4.206      9.165
REMARK  Name = 
REMARK  4 active torsions:
REMARK  status: ('A' for Active; 'I' for Inactive)
REMARK    1  A    between atoms: C_1  and  C_2
REMARK    2  A    between atoms: C_2  and  N_3
REMARK    3  A    between atoms: C_12  and  C_13
REMARK    4  A    between atoms: C_19  and  C_20
REMARK                            x       y       z     vdW  Elec       q    Type
REMARK                         _______ _______ _______ _____ _____    ______ ____
ROOT
ATOM      1  N   UNL     1       5.255   4.286  16.396  0.00  0.00    +0.000 N 
ATOM      2  C   UNL     1       4.696   5.446  16.892  0.00  0.00    +0.000 C 
ATOM      3  O   UNL     1       5.151   6.555  16.647  0.00  0.00    +0.000 OA
ATOM      4  N   UNL     1       3.641   5.171  17.720  0.00  0.00    +0.000 N 
ATOM      5  C   UNL     1       2.975   6.172  18.431  0.00  0.00    +0.000 A 
ATOM      6  C   UNL     1       2.619   7.383  17.847  0.00  0.00    +0.000 A 
ATOM      7  C   UNL     1       1.985   8.355  18.629  0.00  0.00    +0.000 A 
ATOM      8  C   UNL     1       1.593   9.598  18.116  0.00  0.00    +0.000 A 
ATOM      9  C   UNL     1       1.007  10.561  18.950  0.00  0.00    +0.000 A 
ATOM     10  C   UNL     1       0.761  10.317  20.315  0.00  0.00    +0.000 A 
ATOM     11  C   UNL     1       1.112   9.044  20.794  0.00  0.00    +0.000 A 
ATOM     12  C   UNL     1       1.737   8.079  19.981  0.00  0.00    +0.000 A 
ATOM     13  C   UNL     1       2.127   6.827  20.461  0.00  0.00    +0.000 A 
ATOM     14  N   UNL     1       2.702   5.860  19.714  0.00  0.00    +0.000 NA
ATOM     15  H   UNL     1       4.628   3.505  16.257  0.00  0.00    +0.000 HD
ATOM     16  H   UNL     1       3.736   4.324  18.260  0.00  0.00    +0.000 HD
ENDROOT
BRANCH  10  17
ATOM     17  C   UNL     1       0.115  11.343  21.184  0.00  0.00    +0.000 A 
ATOM     18  C   UNL     1      -0.947  10.943  22.026  0.00  0.00    +0.000 A 
ATOM     19  C   UNL     1      -1.597  11.844  22.866  0.00  0.00    +0.000 A 
ATOM     20  F   UNL     1      -2.613  11.419  23.628  0.00  0.00    +0.000 F 
ATOM     21  C   UNL     1      -1.209  13.169  22.926  0.00  0.00    +0.000 A 
ATOM     22  C   UNL     1      -0.167  13.602  22.113  0.00  0.00    +0.000 A 
ATOM     23  C   UNL     1       0.487  12.718  21.227  0.00  0.00    +0.000 A 
ATOM     24  C   UNL     1       1.569  13.320  20.363  0.00  0.00    +0.000 C 
ENDBRANCH  10  17
BRANCH   1  26
ATOM     25  C   UNL     1       6.251   4.265  14.128  0.00  0.00    +0.000 C 
ATOM     26  C   UNL     1       6.481   4.322  15.628  0.00  0.00    +0.000 C 
ENDBRANCH   1  26
TORSDOF 2
ENDMDL
MODEL 7
REMARK VINA RESULT:      -7.8      4.165      9.104
REMARK  Name = 
REMARK  4 active torsions:
REMARK  status: ('A' for Active; 'I' for Inactive)
REMARK    1  A    between atoms: C_1  and  C_2
REMARK    2  A    between atoms: C_2  and  N_3
REMARK    3  A    between atoms: C_12  and  C_13
REMARK    4  A    between atoms: C_19  and  C_20
REMARK                            x       y       z     vdW  Elec       q    Type
REMARK                         _______ _______ _______ _____ _____    ______ ____
ROOT
ATOM      1  N   UNL     1       5.869   4.580  16.167  0.00  0.00    +0.000 N 
ATOM      2  C   UNL     1       5.185   5.664  16.680  0.00  0.00    +0.000 C 
ATOM      3  O   UNL     1       5.557   6.818  16.514  0.00  0.00    +0.000 OA
ATOM      4  N   UNL     1       4.111   5.262  17.429  0.00  0.00    +0.000 N 
ATOM      5  C   UNL     1       3.323   6.168  18.141  0.00  0.00    +0.000 A 
ATOM      6  C   UNL     1       2.899   7.373  17.592  0.00  0.00    +0.000 A 
ATOM      7  C   UNL     1       2.141   8.249  18.378  0.00  0.00    +0.000 A 
ATOM      8  C   UNL     1       1.675   9.480  17.898  0.00  0.00    +0.000 A 
ATOM      9  C   UNL     1       0.962  10.349  18.737  0.00  0.00    +0.000 A 
ATOM     10  C   UNL     1       0.660  10.017  20.072  0.00  0.00    +0.000 A 
ATOM     11  C   UNL     1       1.089   8.754  20.514  0.00  0.00    +0.000 A 
ATOM     12  C   UNL     1       1.841   7.886  19.698  0.00  0.00    +0.000 A 
ATOM     13  C   UNL     1       2.307   6.648  20.144  0.00  0.00    +0.000 A 
ATOM     14  N   UNL     1       3.005   5.770  19.390  0.00  0.00    +0.000 NA
ATOM     15  H   UNL     1       5.319   3.759  15.954  0.00  0.00    +0.000 HD
ATOM     16  H   UNL     1       4.247   4.399  17.934  0.00  0.00    +0.000 HD
ENDROOT
BRANCH  10  17
ATOM     17  C   UNL     1      -0.119  10.941  20.946  0.00  0.00    +0.000 A 
ATOM     18  C   UNL     1      -0.558  12.171  20.406  0.00  0.00    +0.000 A 
ATOM     19  C   UNL     1      -1.292  13.084  21.159  0.00  0.00    +0.000 A 
ATOM     20  F   UNL     1      -1.665  14.246  20.607  0.00  0.00    +0.000 F 
ATOM     21  C   UNL     1      -1.640  12.809  22.468  0.00  0.00    +0.000 A 
ATOM     22  C   UNL     1      -1.228  11.609  23.036  0.00  0.00    +0.000 A 
ATOM     23  C   UNL     1      -0.454  10.680  22.306  0.00  0.00    +0.000 A 
ATOM     24  C   UNL     1      -0.027   9.438  23.050  0.00  0.00    +0.000 C 
ENDBRANCH  10  17
BRANCH   1  26
ATOM     25  C   UNL     1       6.989   4.767  13.966  0.00  0.00    +0.000 C 
ATOM     26  C   UNL     1       7.128   4.755  15.478  0.00  0.00    +0.000 C 
ENDBRANCH   1  26
TORSDOF 2
ENDMDL
MODEL 8
REMARK VINA RESULT:      -7.7      4.421      9.696
REMARK  Name = 
REMARK  4 active torsions:
REMARK  status: ('A' for Active; 'I' for Inactive)
REMARK    1  A    between atoms: C_1  and  C_2
REMARK    2  A    between atoms: C_2  and  N_3
REMARK    3  A    between atoms: C_12  and  C_13
REMARK    4  A    between atoms: C_19  and  C_20
REMARK                            x       y       z     vdW  Elec       q    Type
REMARK                         _______ _______ _______ _____ _____    ______ ____
ROOT
ATOM      1  N   UNL     1       3.197   5.102  17.843  0.00  0.00    +0.000 N 
ATOM      2  C   UNL     1       2.441   5.860  18.715  0.00  0.00    +0.000 C 
ATOM      3  O   UNL     1       1.675   5.362  19.529  0.00  0.00    +0.000 OA
ATOM      4  N   UNL     1       2.622   7.199  18.490  0.00  0.00    +0.000 N 
ATOM      5  C   UNL     1       1.886   8.170  19.172  0.00  0.00    +0.000 A 
ATOM      6  C   UNL     1       1.658   8.102  20.542  0.00  0.00    +0.000 A 
ATOM      7  C   UNL     1       0.882   9.093  21.153  0.00  0.00    +0.000 A 
ATOM      8  C   UNL     1       0.608   9.096  22.526  0.00  0.00    +0.000 A 
ATOM      9  C   UNL     1      -0.218  10.082  23.087  0.00  0.00    +0.000 A 
ATOM     10  C   UNL     1      -0.778  11.116  22.312  0.00  0.00    +0.000 A 
ATOM     11  C   UNL     1      -0.445  11.124  20.947  0.00  0.00    +0.000 A 
ATOM     12  C   UNL     1       0.351  10.120  20.360  0.00  0.00    +0.000 A 
ATOM     13  C   UNL     1       0.651  10.098  18.997  0.00  0.00    +0.000 A 
ATOM     14  N   UNL     1       1.432   9.175  18.394  0.00  0.00    +0.000 NA
ATOM     15  H   UNL     1       4.075   5.502  17.542  0.00  0.00    +0.000 HD
ATOM     16  H   UNL     1       2.776   7.448  17.525  0.00  0.00    +0.000 HD
ENDROOT
BRANCH  10  17
ATOM     17  C   UNL     1      -1.636  12.171  22.926  0.00  0.00    +0.000 A 
ATOM     18  C   UNL     1      -2.860  11.786  23.518  0.00  0.00    +0.000 A 
ATOM     19  C   UNL     1      -3.711  12.713  24.112  0.00  0.00    +0.000 A 
ATOM     20  F   UNL     1      -4.872  12.300  24.639  0.00  0.00    +0.000 F 
ATOM     21  C   UNL     1      -3.378  14.053  24.166  0.00  0.00    +0.000 A 
ATOM     22  C   UNL     1      -2.182  14.472  23.596  0.00  0.00    +0.000 A 
ATOM     23  C   UNL     1      -1.315  13.558  22.956  0.00  0.00    +0.000 A 
ATOM     24  C   UNL     1      -0.071  14.145  22.334  0.00  0.00    +0.000 C 
ENDBRANCH  10  17
BRANCH   1  26
ATOM     25  C   UNL     1       4.081   2.919  18.610  0.00  0.00    +0.000 C 
ATOM     26  C   UNL     1       3.046   3.664  17.787  0.00  0.00    +0.000 C 
ENDBRANCH   1  26
TORSDOF 2
ENDMDL
MODEL 9
REMARK VINA RESULT:      -7.6      4.743      9.860
REMARK  Name = 
REMARK  4 active torsions:
REMARK  status: ('A' for Active; 'I' for Inactive)
REMARK    1  A    between atoms: C_1  and  C_2
REMARK    2  A    between atoms: C_2  and  N_3
REMARK    3  A    between atoms: C_12  and  C_13
REMARK    4  A    between atoms: C_19  and  C_20
REMARK                            x       y       z     vdW  Elec       q    Type
REMARK                         _______ _______ _______ _____ _____    ______ ____
ROOT
ATOM      1  N   UNL     1       3.096   4.902  19.536  0.00  0.00    +0.000 N 
ATOM      2  C   UNL     1       2.214   5.795  20.113  0.00  0.00    +0.000 C 
ATOM      3  O   UNL     1       1.281   5.438  20.819  0.00  0.00    +0.000 OA
ATOM      4  N   UNL     1       2.493   7.081  19.732  0.00  0.00    +0.000 N 
ATOM      5  C   UNL     1       1.678   8.155  20.097  0.00  0.00    +0.000 A 
ATOM      6  C   UNL     1       1.180   8.302  21.387  0.00  0.00    +0.000 A 
ATOM      7  C   UNL     1       0.340   9.384  21.672  0.00  0.00    +0.000 A 
ATOM      8  C   UNL     1      -0.202   9.603  22.945  0.00  0.00    +0.000 A 
ATOM      9  C   UNL     1      -1.080  10.673  23.173  0.00  0.00    +0.000 A 
ATOM     10  C   UNL     1      -1.430  11.581  22.155  0.00  0.00    +0.000 A 
ATOM     11  C   UNL     1      -0.831  11.374  20.901  0.00  0.00    +0.000 A 
ATOM     12  C   UNL     1       0.021  10.282  20.644  0.00  0.00    +0.000 A 
ATOM     13  C   UNL     1       0.586  10.046  19.389  0.00  0.00    +0.000 A 
ATOM     14  N   UNL     1       1.431   9.031  19.103  0.00  0.00    +0.000 NA
ATOM     15  H   UNL     1       4.032   5.241  19.364  0.00  0.00    +0.000 HD
ATOM     16  H   UNL     1       2.846   7.176  18.792  0.00  0.00    +0.000 HD
ENDROOT
BRANCH  10  17
ATOM     17  C   UNL     1      -2.347  12.728  22.418  0.00  0.00    +0.000 A 
ATOM     18  C   UNL     1      -3.739  12.521  22.295  0.00  0.00    +0.000 A 
ATOM     19  C   UNL     1      -4.657  13.542  22.526  0.00  0.00    +0.000 A 
ATOM     20  F   UNL     1      -5.965  13.301  22.374  0.00  0.00    +0.000 F 
ATOM     21  C   UNL     1      -4.237  14.802  22.910  0.00  0.00    +0.000 A 
ATOM     22  C   UNL     1      -2.875  15.046  23.042  0.00  0.00    +0.000 A 
ATOM     23  C   UNL     1      -1.921  14.038  22.780  0.00  0.00    +0.000 A 
ATOM     24  C   UNL     1      -0.472  14.442  22.912  0.00  0.00    +0.000 C 
ENDBRANCH  10  17
BRANCH   1  26
ATOM     25  C   UNL     1       2.064   2.880  18.545  0.00  0.00    +0.000 C 
ATOM     26  C   UNL     1       2.898   3.475  19.666  0.00  0.00    +0.000 C 
ENDBRANCH   1  26
TORSDOF 2
ENDMDL
