MODEL 1
REMARK VINA RESULT:      -7.7      0.000      0.000
REMARK  Name = 
REMARK  4 active torsions:
REMARK  status: ('A' for Active; 'I' for Inactive)
REMARK    1  A    between atoms: C_1  and  N_2
REMARK    2  A    between atoms: C_4  and  C_5
REMARK    3  A    between atoms: N_9  and  C_10
REMARK    4  A    between atoms: C_17  and  C_18
REMARK                            x       y       z     vdW  Elec       q    Type
REMARK                         _______ _______ _______ _____ _____    ______ ____
ROOT
ATOM      1  C   UNL     1       6.914   4.694  17.812  0.00  0.00    +0.000 A 
ATOM      2  N   UNL     1       8.190   4.785  18.123  0.00  0.00    +0.000 NA
ATOM      3  N   UNL     1       8.235   5.074  19.462  0.00  0.00    +0.000 NA
ATOM      4  N   UNL     1       7.016   5.136  19.982  0.00  0.00    +0.000 NA
ATOM      5  N   UNL     1       6.179   4.757  18.989  0.00  0.00    +0.000 N 
ENDROOT
BRANCH   5   6
ATOM      6  C   UNL     1       4.836   4.388  19.243  0.00  0.00    +0.000 A 
ATOM      7  C   UNL     1       3.928   5.346  19.713  0.00  0.00    +0.000 A 
ATOM      8  C   UNL     1       2.595   4.985  19.941  0.00  0.00    +0.000 A 
ATOM      9  C   UNL     1       2.182   3.670  19.730  0.00  0.00    +0.000 A 
ATOM     10 CL   UNL     1       0.542   3.230  20.015  0.00  0.00    +0.000 Cl
ATOM     11  C   UNL     1       3.085   2.706  19.298  0.00  0.00    +0.000 A 
ATOM     12  C   UNL     1       4.414   3.061  19.063  0.00  0.00    +0.000 A 
ENDBRANCH   5   6
BRANCH   1  16
ATOM     13  C   UNL     1       6.226   3.412  13.055  0.00  0.00    +0.000 C 
ATOM     14  N   UNL     1       6.089   4.044  14.345  0.00  0.00    +0.000 N 
ATOM     15  C   UNL     1       6.752   3.714  15.484  0.00  0.00    +0.000 A 
ATOM     16  C   UNL     1       6.387   4.654  16.423  0.00  0.00    +0.000 A 
ATOM     17  C   UNL     1       5.447   5.499  15.775  0.00  0.00    +0.000 A 
ATOM     18  N   UNL     1       5.287   5.112  14.487  0.00  0.00    +0.000 NA
BRANCH  17  19
ATOM     19  C   UNL     1       4.768   6.734  16.309  0.00  0.00    +0.000 C 
ATOM     20  F   UNL     1       5.536   7.448  17.172  0.00  0.00    +0.000 F 
ATOM     21  F   UNL     1       4.451   7.603  15.305  0.00  0.00    +0.000 F 
ATOM     22  F   UNL     1       3.607   6.451  16.958  0.00  0.00    +0.000 F 
ENDBRANCH  17  19
ENDBRANCH   1  16
TORSDOF 3
ENDMDL
MODEL 2
REMARK VINA RESULT:      -7.7      0.037      1.308
REMARK  Name = 
REMARK  4 active torsions:
REMARK  status: ('A' for Active; 'I' for Inactive)
REMARK    1  A    between atoms: C_1  and  N_2
REMARK    2  A    between atoms: C_4  and  C_5
REMARK    3  A    between atoms: N_9  and  C_10
REMARK    4  A    between atoms: C_17  and  C_18
REMARK                            x       y       z     vdW  Elec       q    Type
REMARK                         _______ _______ _______ _____ _____    ______ ____
ROOT
ATOM      1  C   UNL     1       6.905   4.698  17.812  0.00  0.00    +0.000 A 
ATOM      2  N   UNL     1       8.179   4.791  18.130  0.00  0.00    +0.000 NA
ATOM      3  N   UNL     1       8.217   5.081  19.470  0.00  0.00    +0.000 NA
ATOM      4  N   UNL     1       6.995   5.141  19.982  0.00  0.00    +0.000 NA
ATOM      5  N   UNL     1       6.163   4.760  18.985  0.00  0.00    +0.000 N 
ENDROOT
BRANCH   5   6
ATOM      6  C   UNL     1       4.819   4.389  19.231  0.00  0.00    +0.000 A 
ATOM      7  C   UNL     1       4.400   3.080  18.963  0.00  0.00    +0.000 A 
ATOM      8  C   UNL     1       3.077   2.708  19.229  0.00  0.00    +0.000 A 
ATOM      9  C   UNL     1       2.175   3.647  19.729  0.00  0.00    +0.000 A 
ATOM     10 CL   UNL     1       0.547   3.186  20.051  0.00  0.00    +0.000 Cl
ATOM     11  C   UNL     1       2.575   4.957  19.963  0.00  0.00    +0.000 A 
ATOM     12  C   UNL     1       3.894   5.332  19.706  0.00  0.00    +0.000 A 
ENDBRANCH   5   6
BRANCH   1  16
ATOM     13  C   UNL     1       6.241   3.408  13.053  0.00  0.00    +0.000 C 
ATOM     14  N   UNL     1       6.098   4.044  14.341  0.00  0.00    +0.000 N 
ATOM     15  C   UNL     1       6.753   3.714  15.485  0.00  0.00    +0.000 A 
ATOM     16  C   UNL     1       6.386   4.657  16.420  0.00  0.00    +0.000 A 
ATOM     17  C   UNL     1       5.453   5.504  15.764  0.00  0.00    +0.000 A 
ATOM     18  N   UNL     1       5.299   5.114  14.476  0.00  0.00    +0.000 NA
BRANCH  17  19
ATOM     19  C   UNL     1       4.774   6.742  16.292  0.00  0.00    +0.000 C 
ATOM     20  F   UNL     1       3.633   6.485  16.981  0.00  0.00    +0.000 F 
ATOM     21  F   UNL     1       5.577   7.418  17.164  0.00  0.00    +0.000 F 
ATOM     22  F   UNL     1       4.449   7.619  15.304  0.00  0.00    +0.000 F 
ENDBRANCH  17  19
ENDBRANCH   1  16
TORSDOF 3
ENDMDL
MODEL 3
REMARK VINA RESULT:      -7.7      2.568      4.617
REMARK  Name = 
REMARK  4 active torsions:
REMARK  status: ('A' for Active; 'I' for Inactive)
REMARK    1  A    between atoms: C_1  and  N_2
REMARK    2  A    between atoms: C_4  and  C_5
REMARK    3  A    between atoms: N_9  and  C_10
REMARK    4  A    between atoms: C_17  and  C_18
REMARK                            x       y       z     vdW  Elec       q    Type
REMARK                         _______ _______ _______ _____ _____    ______ ____
ROOT
ATOM      1  C   UNL     1       6.116   5.165  18.849  0.00  0.00    +0.000 A 
ATOM      2  N   UNL     1       6.895   5.537  19.842  0.00  0.00    +0.000 NA
ATOM      3  N   UNL     1       8.156   5.104  19.519  0.00  0.00    +0.000 NA
ATOM      4  N   UNL     1       8.167   4.499  18.338  0.00  0.00    +0.000 NA
ATOM      5  N   UNL     1       6.920   4.655  17.838  0.00  0.00    +0.000 N 
ENDROOT
BRANCH   5   6
ATOM      6  C   UNL     1       6.629   4.430  16.470  0.00  0.00    +0.000 A 
ATOM      7  C   UNL     1       7.398   5.060  15.483  0.00  0.00    +0.000 A 
ATOM      8  C   UNL     1       7.123   4.819  14.132  0.00  0.00    +0.000 A 
ATOM      9  C   UNL     1       6.069   3.979  13.773  0.00  0.00    +0.000 A 
ATOM     10 CL   UNL     1       5.734   3.688  12.109  0.00  0.00    +0.000 Cl
ATOM     11  C   UNL     1       5.280   3.379  14.746  0.00  0.00    +0.000 A 
ATOM     12  C   UNL     1       5.552   3.611  16.095  0.00  0.00    +0.000 A 
ENDBRANCH   5   6
BRANCH   1  16
ATOM     13  C   UNL     1       1.394   3.910  19.789  0.00  0.00    +0.000 C 
ATOM     14  N   UNL     1       2.568   4.626  19.349  0.00  0.00    +0.000 N 
ATOM     15  C   UNL     1       3.861   4.292  19.599  0.00  0.00    +0.000 A 
ATOM     16  C   UNL     1       4.630   5.190  18.891  0.00  0.00    +0.000 A 
ATOM     17  C   UNL     1       3.711   6.077  18.272  0.00  0.00    +0.000 A 
ATOM     18  N   UNL     1       2.441   5.703  18.558  0.00  0.00    +0.000 NA
BRANCH  17  19
ATOM     19  C   UNL     1       3.994   7.217  17.326  0.00  0.00    +0.000 C 
ATOM     20  F   UNL     1       5.039   7.995  17.710  0.00  0.00    +0.000 F 
ATOM     21  F   UNL     1       4.322   6.762  16.082  0.00  0.00    +0.000 F 
ATOM     22  F   UNL     1       2.925   8.042  17.169  0.00  0.00    +0.000 F 
ENDBRANCH  17  19
ENDBRANCH   1  16
TORSDOF 3
ENDMDL
MODEL 4
REMARK VINA RESULT:      -7.5      2.668      4.743
REMARK  Name = 
REMARK  4 active torsions:
REMARK  status: ('A' for Active; 'I' for Inactive)
REMARK    1  A    between atoms: C_1  and  N_2
REMARK    2  A    between atoms: C_4  and  C_5
REMARK    3  A    between atoms: N_9  and  C_10
REMARK    4  A    between atoms: C_17  and  C_18
REMARK                            x       y       z     vdW  Elec       q    Type
REMARK                         _______ _______ _______ _____ _____    ______ ____
ROOT
ATOM      1  C   UNL     1       5.823   4.805  18.879  0.00  0.00    +0.000 A 
ATOM      2  N   UNL     1       6.467   5.328  19.901  0.00  0.00    +0.000 NA
ATOM      3  N   UNL     1       7.795   5.313  19.563  0.00  0.00    +0.000 NA
ATOM      4  N   UNL     1       7.975   4.817  18.345  0.00  0.00    +0.000 NA
ATOM      5  N   UNL     1       6.733   4.626  17.844  0.00  0.00    +0.000 N 
ENDROOT
BRANCH   5   6
ATOM      6  C   UNL     1       6.507   4.413  16.463  0.00  0.00    +0.000 A 
ATOM      7  C   UNL     1       7.345   5.024  15.520  0.00  0.00    +0.000 A 
ATOM      8  C   UNL     1       7.135   4.794  14.155  0.00  0.00    +0.000 A 
ATOM      9  C   UNL     1       6.078   3.986  13.738  0.00  0.00    +0.000 A 
ATOM     10 CL   UNL     1       5.823   3.710  12.057  0.00  0.00    +0.000 Cl
ATOM     11  C   UNL     1       5.222   3.406  14.665  0.00  0.00    +0.000 A 
ATOM     12  C   UNL     1       5.430   3.626  16.028  0.00  0.00    +0.000 A 
ENDBRANCH   5   6
BRANCH   1  16
ATOM     13  C   UNL     1       1.733   2.008  19.323  0.00  0.00    +0.000 C 
ATOM     14  N   UNL     1       2.620   3.132  19.142  0.00  0.00    +0.000 N 
ATOM     15  C   UNL     1       3.971   3.129  19.292  0.00  0.00    +0.000 A 
ATOM     16  C   UNL     1       4.399   4.382  18.909  0.00  0.00    +0.000 A 
ATOM     17  C   UNL     1       3.221   5.108  18.586  0.00  0.00    +0.000 A 
ATOM     18  N   UNL     1       2.134   4.311  18.725  0.00  0.00    +0.000 NA
BRANCH  17  19
ATOM     19  C   UNL     1       3.098   6.510  18.047  0.00  0.00    +0.000 C 
ATOM     20  F   UNL     1       1.864   6.799  17.559  0.00  0.00    +0.000 F 
ATOM     21  F   UNL     1       3.328   7.440  19.018  0.00  0.00    +0.000 F 
ATOM     22  F   UNL     1       3.986   6.763  17.049  0.00  0.00    +0.000 F 
ENDBRANCH  17  19
ENDBRANCH   1  16
TORSDOF 3
ENDMDL
MODEL 5
REMARK VINA RESULT:      -7.5      2.672      4.778
REMARK  Name = 
REMARK  4 active torsions:
REMARK  status: ('A' for Active; 'I' for Inactive)
REMARK    1  A    between atoms: C_1  and  N_2
REMARK    2  A    between atoms: C_4  and  C_5
REMARK    3  A    between atoms: N_9  and  C_10
REMARK    4  A    between atoms: C_17  and  C_18
REMARK                            x       y       z     vdW  Elec       q    Type
REMARK                         _______ _______ _______ _____ _____    ______ ____
ROOT
ATOM      1  C   UNL     1       5.807   4.806  18.861  0.00  0.00    +0.000 A 
ATOM      2  N   UNL     1       6.445   5.333  19.885  0.00  0.00    +0.000 NA
ATOM      3  N   UNL     1       7.775   5.318  19.553  0.00  0.00    +0.000 NA
ATOM      4  N   UNL     1       7.961   4.818  18.338  0.00  0.00    +0.000 NA
ATOM      5  N   UNL     1       6.722   4.624  17.832  0.00  0.00    +0.000 N 
ENDROOT
BRANCH   5   6
ATOM      6  C   UNL     1       6.504   4.408  16.449  0.00  0.00    +0.000 A 
ATOM      7  C   UNL     1       5.460   3.571  16.034  0.00  0.00    +0.000 A 
ATOM      8  C   UNL     1       5.231   3.376  14.667  0.00  0.00    +0.000 A 
ATOM      9  C   UNL     1       6.058   3.988  13.726  0.00  0.00    +0.000 A 
ATOM     10 CL   UNL     1       5.774   3.743  12.045  0.00  0.00    +0.000 Cl
ATOM     11  C   UNL     1       7.116   4.792  14.131  0.00  0.00    +0.000 A 
ATOM     12  C   UNL     1       7.347   4.995  15.493  0.00  0.00    +0.000 A 
ENDBRANCH   5   6
BRANCH   1  16
ATOM     13  C   UNL     1       1.718   2.000  19.255  0.00  0.00    +0.000 C 
ATOM     14  N   UNL     1       2.605   3.128  19.096  0.00  0.00    +0.000 N 
ATOM     15  C   UNL     1       3.956   3.123  19.243  0.00  0.00    +0.000 A 
ATOM     16  C   UNL     1       4.382   4.383  18.885  0.00  0.00    +0.000 A 
ATOM     17  C   UNL     1       3.204   5.115  18.580  0.00  0.00    +0.000 A 
ATOM     18  N   UNL     1       2.118   4.316  18.705  0.00  0.00    +0.000 NA
BRANCH  17  19
ATOM     19  C   UNL     1       3.080   6.528  18.070  0.00  0.00    +0.000 C 
ATOM     20  F   UNL     1       1.850   6.821  17.573  0.00  0.00    +0.000 F 
ATOM     21  F   UNL     1       3.293   7.437  19.064  0.00  0.00    +0.000 F 
ATOM     22  F   UNL     1       3.978   6.808  17.088  0.00  0.00    +0.000 F 
ENDBRANCH  17  19
ENDBRANCH   1  16
TORSDOF 3
ENDMDL
MODEL 6
REMARK VINA RESULT:      -7.4      2.837      3.734
REMARK  Name = 
REMARK  4 active torsions:
REMARK  status: ('A' for Active; 'I' for Inactive)
REMARK    1  A    between atoms: C_1  and  N_2
REMARK    2  A    between atoms: C_4  and  C_5
REMARK    3  A    between atoms: N_9  and  C_10
REMARK    4  A    between atoms: C_17  and  C_18
REMARK                            x       y       z     vdW  Elec       q    Type
REMARK                         _______ _______ _______ _____ _____    ______ ____
ROOT
ATOM      1  C   UNL     1       4.597   3.900  18.456  0.00  0.00    +0.000 A 
ATOM      2  N   UNL     1       4.520   2.660  18.891  0.00  0.00    +0.000 NA
ATOM      3  N   UNL     1       3.755   2.703  20.028  0.00  0.00    +0.000 NA
ATOM      4  N   UNL     1       3.340   3.937  20.282  0.00  0.00    +0.000 NA
ATOM      5  N   UNL     1       3.741   4.679  19.224  0.00  0.00    +0.000 N 
ENDROOT
BRANCH   5   6
ATOM      6  C   UNL     1       3.213   5.969  18.971  0.00  0.00    +0.000 A 
ATOM      7  C   UNL     1       2.369   6.571  19.913  0.00  0.00    +0.000 A 
ATOM      8  C   UNL     1       1.868   7.856  19.673  0.00  0.00    +0.000 A 
ATOM      9  C   UNL     1       2.183   8.517  18.487  0.00  0.00    +0.000 A 
ATOM     10 CL   UNL     1       1.560  10.096  18.194  0.00  0.00    +0.000 Cl
ATOM     11  C   UNL     1       2.991   7.912  17.532  0.00  0.00    +0.000 A 
ATOM     12  C   UNL     1       3.499   6.634  17.768  0.00  0.00    +0.000 A 
ENDBRANCH   5   6
BRANCH   1  16
ATOM     13  C   UNL     1       6.793   4.572  14.042  0.00  0.00    +0.000 C 
ATOM     14  N   UNL     1       6.459   4.665  15.444  0.00  0.00    +0.000 N 
ATOM     15  C   UNL     1       5.381   4.112  16.058  0.00  0.00    +0.000 A 
ATOM     16  C   UNL     1       5.538   4.365  17.404  0.00  0.00    +0.000 A 
ATOM     17  C   UNL     1       6.728   5.132  17.513  0.00  0.00    +0.000 A 
ATOM     18  N   UNL     1       7.288   5.295  16.291  0.00  0.00    +0.000 NA
BRANCH  17  19
ATOM     19  C   UNL     1       7.413   5.633  18.759  0.00  0.00    +0.000 C 
ATOM     20  F   UNL     1       8.492   4.892  19.121  0.00  0.00    +0.000 F 
ATOM     21  F   UNL     1       7.887   6.902  18.592  0.00  0.00    +0.000 F 
ATOM     22  F   UNL     1       6.581   5.667  19.833  0.00  0.00    +0.000 F 
ENDBRANCH  17  19
ENDBRANCH   1  16
TORSDOF 3
ENDMDL
MODEL 7
REMARK VINA RESULT:      -7.4      3.052      4.173
REMARK  Name = 
REMARK  4 active torsions:
REMARK  status: ('A' for Active; 'I' for Inactive)
REMARK    1  A    between atoms: C_1  and  N_2
REMARK    2  A    between atoms: C_4  and  C_5
REMARK    3  A    between atoms: N_9  and  C_10
REMARK    4  A    between atoms: C_17  and  C_18
REMARK                            x       y       z     vdW  Elec       q    Type
REMARK                         _______ _______ _______ _____ _____    ______ ____
ROOT
ATOM      1  C   UNL     1       4.430   4.268  17.742  0.00  0.00    +0.000 A 
ATOM      2  N   UNL     1       4.310   2.999  17.412  0.00  0.00    +0.000 NA
ATOM      3  N   UNL     1       3.183   2.546  18.050  0.00  0.00    +0.000 NA
ATOM      4  N   UNL     1       2.599   3.517  18.740  0.00  0.00    +0.000 NA
ATOM      5  N   UNL     1       3.290   4.641  18.442  0.00  0.00    +0.000 N 
ENDROOT
BRANCH   5   6
ATOM      6  C   UNL     1       2.779   5.931  18.726  0.00  0.00    +0.000 A 
ATOM      7  C   UNL     1       2.780   6.914  17.729  0.00  0.00    +0.000 A 
ATOM      8  C   UNL     1       2.254   8.182  18.005  0.00  0.00    +0.000 A 
ATOM      9  C   UNL     1       1.761   8.471  19.276  0.00  0.00    +0.000 A 
ATOM     10 CL   UNL     1       1.117  10.033  19.612  0.00  0.00    +0.000 Cl
ATOM     11  C   UNL     1       1.789   7.512  20.281  0.00  0.00    +0.000 A 
ATOM     12  C   UNL     1       2.307   6.244  20.011  0.00  0.00    +0.000 A 
ENDBRANCH   5   6
BRANCH   1  16
ATOM     13  C   UNL     1       8.182   7.469  18.396  0.00  0.00    +0.000 C 
ATOM     14  N   UNL     1       7.300   6.478  17.828  0.00  0.00    +0.000 N 
ATOM     15  C   UNL     1       6.265   5.860  18.455  0.00  0.00    +0.000 A 
ATOM     16  C   UNL     1       5.644   5.089  17.496  0.00  0.00    +0.000 A 
ATOM     17  C   UNL     1       6.409   5.261  16.311  0.00  0.00    +0.000 A 
ATOM     18  N   UNL     1       7.420   6.134  16.536  0.00  0.00    +0.000 NA
BRANCH  17  19
ATOM     19  C   UNL     1       6.151   4.702  14.935  0.00  0.00    +0.000 C 
ATOM     20  F   UNL     1       4.948   5.063  14.419  0.00  0.00    +0.000 F 
ATOM     21  F   UNL     1       7.077   5.144  14.036  0.00  0.00    +0.000 F 
ATOM     22  F   UNL     1       6.200   3.344  14.908  0.00  0.00    +0.000 F 
ENDBRANCH  17  19
ENDBRANCH   1  16
TORSDOF 3
ENDMDL
MODEL 8
REMARK VINA RESULT:      -7.4      3.024      4.124
REMARK  Name = 
REMARK  4 active torsions:
REMARK  status: ('A' for Active; 'I' for Inactive)
REMARK    1  A    between atoms: C_1  and  N_2
REMARK    2  A    between atoms: C_4  and  C_5
REMARK    3  A    between atoms: N_9  and  C_10
REMARK    4  A    between atoms: C_17  and  C_18
REMARK                            x       y       z     vdW  Elec       q    Type
REMARK                         _______ _______ _______ _____ _____    ______ ____
ROOT
ATOM      1  C   UNL     1       4.418   4.121  17.698  0.00  0.00    +0.000 A 
ATOM      2  N   UNL     1       4.306   2.859  17.342  0.00  0.00    +0.000 NA
ATOM      3  N   UNL     1       3.190   2.381  17.979  0.00  0.00    +0.000 NA
ATOM      4  N   UNL     1       2.602   3.331  18.695  0.00  0.00    +0.000 NA
ATOM      5  N   UNL     1       3.280   4.468  18.415  0.00  0.00    +0.000 N 
ENDROOT
BRANCH   5   6
ATOM      6  C   UNL     1       2.761   5.747  18.732  0.00  0.00    +0.000 A 
ATOM      7  C   UNL     1       2.279   6.001  20.023  0.00  0.00    +0.000 A 
ATOM      8  C   UNL     1       1.787   7.272  20.341  0.00  0.00    +0.000 A 
ATOM      9  C   UNL     1       1.750   8.270  19.368  0.00  0.00    +0.000 A 
ATOM     10 CL   UNL     1       1.141   9.831  19.764  0.00  0.00    +0.000 Cl
ATOM     11  C   UNL     1       2.193   8.015  18.076  0.00  0.00    +0.000 A 
ATOM     12  C   UNL     1       2.690   6.751  17.754  0.00  0.00    +0.000 A 
ENDBRANCH   5   6
BRANCH   1  16
ATOM     13  C   UNL     1       8.147   7.341  18.392  0.00  0.00    +0.000 C 
ATOM     14  N   UNL     1       7.268   6.355  17.809  0.00  0.00    +0.000 N 
ATOM     15  C   UNL     1       6.244   5.714  18.431  0.00  0.00    +0.000 A 
ATOM     16  C   UNL     1       5.623   4.959  17.460  0.00  0.00    +0.000 A 
ATOM     17  C   UNL     1       6.376   5.164  16.273  0.00  0.00    +0.000 A 
ATOM     18  N   UNL     1       7.381   6.041  16.509  0.00  0.00    +0.000 NA
BRANCH  17  19
ATOM     19  C   UNL     1       6.111   4.633  14.888  0.00  0.00    +0.000 C 
ATOM     20  F   UNL     1       6.990   5.083  13.956  0.00  0.00    +0.000 F 
ATOM     21  F   UNL     1       6.209   3.272  14.848  0.00  0.00    +0.000 F 
ATOM     22  F   UNL     1       4.867   4.946  14.439  0.00  0.00    +0.000 F 
ENDBRANCH  17  19
ENDBRANCH   1  16
TORSDOF 3
ENDMDL
MODEL 9
REMARK VINA RESULT:      -7.4      2.832      3.767
REMARK  Name = 
REMARK  4 active torsions:
REMARK  status: ('A' for Active; 'I' for Inactive)
REMARK    1  A    between atoms: C_1  and  N_2
REMARK    2  A    between atoms: C_4  and  C_5
REMARK    3  A    between atoms: N_9  and  C_10
REMARK    4  A    between atoms: C_17  and  C_18
REMARK                            x       y       z     vdW  Elec       q    Type
REMARK                         _______ _______ _______ _____ _____    ______ ____
ROOT
ATOM      1  C   UNL     1       4.555   3.875  18.395  0.00  0.00    +0.000 A 
ATOM      2  N   UNL     1       4.461   2.627  18.804  0.00  0.00    +0.000 NA
ATOM      3  N   UNL     1       3.698   2.657  19.943  0.00  0.00    +0.000 NA
ATOM      4  N   UNL     1       3.301   3.892  20.223  0.00  0.00    +0.000 NA
ATOM      5  N   UNL     1       3.712   4.650  19.181  0.00  0.00    +0.000 N 
ENDROOT
BRANCH   5   6
ATOM      6  C   UNL     1       3.203   5.952  18.957  0.00  0.00    +0.000 A 
ATOM      7  C   UNL     1       3.546   6.640  17.785  0.00  0.00    +0.000 A 
ATOM      8  C   UNL     1       3.023   7.918  17.554  0.00  0.00    +0.000 A 
ATOM      9  C   UNL     1       2.191   8.514  18.501  0.00  0.00    +0.000 A 
ATOM     10 CL   UNL     1       1.554  10.088  18.213  0.00  0.00    +0.000 Cl
ATOM     11  C   UNL     1       1.876   7.852  19.681  0.00  0.00    +0.000 A 
ATOM     12  C   UNL     1       2.388   6.575  19.915  0.00  0.00    +0.000 A 
ENDBRANCH   5   6
BRANCH   1  16
ATOM     13  C   UNL     1       6.786   4.566  14.002  0.00  0.00    +0.000 C 
ATOM     14  N   UNL     1       6.438   4.656  15.400  0.00  0.00    +0.000 N 
ATOM     15  C   UNL     1       5.359   4.094  16.005  0.00  0.00    +0.000 A 
ATOM     16  C   UNL     1       5.502   4.349  17.352  0.00  0.00    +0.000 A 
ATOM     17  C   UNL     1       6.684   5.127  17.472  0.00  0.00    +0.000 A 
ATOM     18  N   UNL     1       7.254   5.294  16.255  0.00  0.00    +0.000 NA
BRANCH  17  19
ATOM     19  C   UNL     1       7.353   5.633  18.724  0.00  0.00    +0.000 C 
ATOM     20  F   UNL     1       8.443   4.910  19.089  0.00  0.00    +0.000 F 
ATOM     21  F   UNL     1       7.805   6.911  18.566  0.00  0.00    +0.000 F 
ATOM     22  F   UNL     1       6.513   5.648  19.794  0.00  0.00    +0.000 F 
ENDBRANCH  17  19
ENDBRANCH   1  16
TORSDOF 3
ENDMDL
