MODEL 1
REMARK VINA RESULT:      -8.5      0.000      0.000
REMARK  Name = 
REMARK  4 active torsions:
REMARK  status: ('A' for Active; 'I' for Inactive)
REMARK    1  A    between atoms: C_1  and  N_2
REMARK    2  A    between atoms: C_6  and  C_8
REMARK    3  A    between atoms: C_13  and  N_14
REMARK    4  A    between atoms: N_14  and  C_15
REMARK                            x       y       z     vdW  Elec       q    Type
REMARK                         _______ _______ _______ _____ _____    ______ ____
ROOT
ATOM      1  C   UNL     1       3.419   3.717  19.112  0.00  0.00    +0.000 A 
ATOM      2  C   UNL     1       2.970   2.524  18.504  0.00  0.00    +0.000 A 
ATOM      3  C   UNL     1       1.632   2.138  18.566  0.00  0.00    +0.000 A 
ATOM      4  C   UNL     1       0.726   2.925  19.265  0.00  0.00    +0.000 A 
ATOM      5  C   UNL     1       1.150   4.121  19.844  0.00  0.00    +0.000 A 
ATOM      6  C   UNL     1       2.479   4.577  19.715  0.00  0.00    +0.000 A 
ENDROOT
BRANCH   1  12
ATOM      7  C   UNL     1       7.142   4.804  13.864  0.00  0.00    +0.000 C 
ATOM      8  N   UNL     1       6.586   5.272  15.141  0.00  0.00    +0.000 NA
ATOM      9  C   UNL     1       7.383   4.721  16.257  0.00  0.00    +0.000 C 
ATOM     10  C   UNL     1       6.761   4.908  17.652  0.00  0.00    +0.000 C 
ATOM     11  N   UNL     1       5.345   4.530  17.694  0.00  0.00    +0.000 N 
ATOM     12  C   UNL     1       4.858   4.033  18.905  0.00  0.00    +0.000 C 
ATOM     13  O   UNL     1       5.604   3.833  19.866  0.00  0.00    +0.000 OA
ATOM     14  C   UNL     1       4.563   5.192  16.643  0.00  0.00    +0.000 C 
ATOM     15  C   UNL     1       5.162   4.889  15.253  0.00  0.00    +0.000 C 
ENDBRANCH   1  12
BRANCH   6  16
ATOM     16  N   UNL     1       2.830   5.853  20.239  0.00  0.00    +0.000 N 
ATOM     17  H   UNL     1       3.845   5.922  20.335  0.00  0.00    +0.000 HD
BRANCH  16  18
ATOM     18  C   UNL     1       2.358   7.104  19.762  0.00  0.00    +0.000 A 
ATOM     19  C   UNL     1       2.519   7.412  18.406  0.00  0.00    +0.000 A 
ATOM     20  C   UNL     1       1.960   8.573  17.868  0.00  0.00    +0.000 A 
ATOM     21  C   UNL     1       1.218   9.431  18.678  0.00  0.00    +0.000 A 
ATOM     22  C   UNL     1       1.041   9.130  20.026  0.00  0.00    +0.000 A 
ATOM     23  C   UNL     1       1.599   7.969  20.562  0.00  0.00    +0.000 A 
ENDBRANCH  16  18
ENDBRANCH   6  16
TORSDOF 3
ENDMDL
MODEL 2
REMARK VINA RESULT:      -8.4      0.156      1.038
REMARK  Name = 
REMARK  4 active torsions:
REMARK  status: ('A' for Active; 'I' for Inactive)
REMARK    1  A    between atoms: C_1  and  N_2
REMARK    2  A    between atoms: C_6  and  C_8
REMARK    3  A    between atoms: C_13  and  N_14
REMARK    4  A    between atoms: N_14  and  C_15
REMARK                            x       y       z     vdW  Elec       q    Type
REMARK                         _______ _______ _______ _____ _____    ______ ____
ROOT
ATOM      1  C   UNL     1       3.474   3.752  19.215  0.00  0.00    +0.000 A 
ATOM      2  C   UNL     1       3.048   2.496  18.730  0.00  0.00    +0.000 A 
ATOM      3  C   UNL     1       1.718   2.090  18.836  0.00  0.00    +0.000 A 
ATOM      4  C   UNL     1       0.798   2.922  19.460  0.00  0.00    +0.000 A 
ATOM      5  C   UNL     1       1.199   4.178  19.917  0.00  0.00    +0.000 A 
ATOM      6  C   UNL     1       2.518   4.646  19.738  0.00  0.00    +0.000 A 
ENDROOT
BRANCH   1  12
ATOM      7  C   UNL     1       7.068   4.780  13.867  0.00  0.00    +0.000 C 
ATOM      8  N   UNL     1       6.536   5.265  15.148  0.00  0.00    +0.000 NA
ATOM      9  C   UNL     1       7.364   4.740  16.255  0.00  0.00    +0.000 C 
ATOM     10  C   UNL     1       6.771   4.946  17.660  0.00  0.00    +0.000 C 
ATOM     11  N   UNL     1       5.360   4.556  17.740  0.00  0.00    +0.000 N 
ATOM     12  C   UNL     1       4.905   4.076  18.970  0.00  0.00    +0.000 C 
ATOM     13  O   UNL     1       5.674   3.899  19.918  0.00  0.00    +0.000 OA
ATOM     14  C   UNL     1       4.549   5.194  16.697  0.00  0.00    +0.000 C 
ATOM     15  C   UNL     1       5.118   4.872  15.298  0.00  0.00    +0.000 C 
ENDBRANCH   1  12
BRANCH   6  16
ATOM     16  N   UNL     1       2.842   5.975  20.133  0.00  0.00    +0.000 N 
ATOM     17  H   UNL     1       3.855   6.112  20.091  0.00  0.00    +0.000 HD
BRANCH  16  18
ATOM     18  C   UNL     1       2.229   7.158  19.646  0.00  0.00    +0.000 A 
ATOM     19  C   UNL     1       1.556   7.990  20.549  0.00  0.00    +0.000 A 
ATOM     20  C   UNL     1       1.045   9.223  20.139  0.00  0.00    +0.000 A 
ATOM     21  C   UNL     1       1.219   9.647  18.822  0.00  0.00    +0.000 A 
ATOM     22  C   UNL     1       1.896   8.834  17.916  0.00  0.00    +0.000 A 
ATOM     23  C   UNL     1       2.406   7.602  18.328  0.00  0.00    +0.000 A 
ENDBRANCH  16  18
ENDBRANCH   6  16
TORSDOF 3
ENDMDL
MODEL 3
REMARK VINA RESULT:      -7.8      1.527      2.261
REMARK  Name = 
REMARK  4 active torsions:
REMARK  status: ('A' for Active; 'I' for Inactive)
REMARK    1  A    between atoms: C_1  and  N_2
REMARK    2  A    between atoms: C_6  and  C_8
REMARK    3  A    between atoms: C_13  and  N_14
REMARK    4  A    between atoms: N_14  and  C_15
REMARK                            x       y       z     vdW  Elec       q    Type
REMARK                         _______ _______ _______ _____ _____    ______ ____
ROOT
ATOM      1  C   UNL     1       2.761   3.761  19.059  0.00  0.00    +0.000 A 
ATOM      2  C   UNL     1       2.150   2.488  19.089  0.00  0.00    +0.000 A 
ATOM      3  C   UNL     1       1.426   2.058  20.200  0.00  0.00    +0.000 A 
ATOM      4  C   UNL     1       1.328   2.882  21.313  0.00  0.00    +0.000 A 
ATOM      5  C   UNL     1       1.902   4.154  21.285  0.00  0.00    +0.000 A 
ATOM      6  C   UNL     1       2.560   4.646  20.138  0.00  0.00    +0.000 A 
ENDROOT
BRANCH   1  12
ATOM      7  C   UNL     1       7.891   7.476  17.490  0.00  0.00    +0.000 C 
ATOM      8  N   UNL     1       7.235   6.162  17.500  0.00  0.00    +0.000 NA
ATOM      9  C   UNL     1       6.270   6.084  16.383  0.00  0.00    +0.000 C 
ATOM     10  C   UNL     1       5.323   4.871  16.428  0.00  0.00    +0.000 C 
ATOM     11  N   UNL     1       4.716   4.680  17.748  0.00  0.00    +0.000 N 
ATOM     12  C   UNL     1       3.441   4.110  17.782  0.00  0.00    +0.000 C 
ATOM     13  O   UNL     1       2.816   3.866  16.747  0.00  0.00    +0.000 OA
ATOM     14  C   UNL     1       5.718   4.642  18.820  0.00  0.00    +0.000 C 
ATOM     15  C   UNL     1       6.576   5.925  18.802  0.00  0.00    +0.000 C 
ENDBRANCH   1  12
BRANCH   6  16
ATOM     16  N   UNL     1       3.036   5.988  20.132  0.00  0.00    +0.000 N 
ATOM     17  H   UNL     1       3.986   6.017  19.755  0.00  0.00    +0.000 HD
BRANCH  16  18
ATOM     18  C   UNL     1       2.337   7.113  19.623  0.00  0.00    +0.000 A 
ATOM     19  C   UNL     1       1.617   7.919  20.513  0.00  0.00    +0.000 A 
ATOM     20  C   UNL     1       1.018   9.103  20.078  0.00  0.00    +0.000 A 
ATOM     21  C   UNL     1       1.149   9.504  18.750  0.00  0.00    +0.000 A 
ATOM     22  C   UNL     1       1.872   8.717  17.856  0.00  0.00    +0.000 A 
ATOM     23  C   UNL     1       2.470   7.534  18.293  0.00  0.00    +0.000 A 
ENDBRANCH  16  18
ENDBRANCH   6  16
TORSDOF 3
ENDMDL
MODEL 4
REMARK VINA RESULT:      -7.4      1.506      1.990
REMARK  Name = 
REMARK  4 active torsions:
REMARK  status: ('A' for Active; 'I' for Inactive)
REMARK    1  A    between atoms: C_1  and  N_2
REMARK    2  A    between atoms: C_6  and  C_8
REMARK    3  A    between atoms: C_13  and  N_14
REMARK    4  A    between atoms: N_14  and  C_15
REMARK                            x       y       z     vdW  Elec       q    Type
REMARK                         _______ _______ _______ _____ _____    ______ ____
ROOT
ATOM      1  C   UNL     1       2.701   3.763  18.943  0.00  0.00    +0.000 A 
ATOM      2  C   UNL     1       1.994   2.540  18.944  0.00  0.00    +0.000 A 
ATOM      3  C   UNL     1       1.238   2.141  20.044  0.00  0.00    +0.000 A 
ATOM      4  C   UNL     1       1.202   2.943  21.176  0.00  0.00    +0.000 A 
ATOM      5  C   UNL     1       1.871   4.167  21.179  0.00  0.00    +0.000 A 
ATOM      6  C   UNL     1       2.567   4.634  20.043  0.00  0.00    +0.000 A 
ENDROOT
BRANCH   1  12
ATOM      7  C   UNL     1       7.892   7.412  17.422  0.00  0.00    +0.000 C 
ATOM      8  N   UNL     1       7.225   6.104  17.437  0.00  0.00    +0.000 NA
ATOM      9  C   UNL     1       6.280   6.020  16.303  0.00  0.00    +0.000 C 
ATOM     10  C   UNL     1       5.321   4.816  16.347  0.00  0.00    +0.000 C 
ATOM     11  N   UNL     1       4.688   4.647  17.658  0.00  0.00    +0.000 N 
ATOM     12  C   UNL     1       3.408   4.089  17.676  0.00  0.00    +0.000 C 
ATOM     13  O   UNL     1       2.800   3.837  16.632  0.00  0.00    +0.000 OA
ATOM     14  C   UNL     1       5.670   4.614  18.748  0.00  0.00    +0.000 C 
ATOM     15  C   UNL     1       6.539   5.890  18.730  0.00  0.00    +0.000 C 
ENDBRANCH   1  12
BRANCH   6  16
ATOM     16  N   UNL     1       3.144   5.936  20.070  0.00  0.00    +0.000 N 
ATOM     17  H   UNL     1       4.070   5.913  19.636  0.00  0.00    +0.000 HD
BRANCH  16  18
ATOM     18  C   UNL     1       2.506   7.134  19.658  0.00  0.00    +0.000 A 
ATOM     19  C   UNL     1       2.593   7.517  18.314  0.00  0.00    +0.000 A 
ATOM     20  C   UNL     1       1.879   8.619  17.840  0.00  0.00    +0.000 A 
ATOM     21  C   UNL     1       1.055   9.340  18.702  0.00  0.00    +0.000 A 
ATOM     22  C   UNL     1       0.951   8.964  20.038  0.00  0.00    +0.000 A 
ATOM     23  C   UNL     1       1.665   7.861  20.511  0.00  0.00    +0.000 A 
ENDBRANCH  16  18
ENDBRANCH   6  16
TORSDOF 3
ENDMDL
MODEL 5
REMARK VINA RESULT:      -7.2      2.495      6.806
REMARK  Name = 
REMARK  4 active torsions:
REMARK  status: ('A' for Active; 'I' for Inactive)
REMARK    1  A    between atoms: C_1  and  N_2
REMARK    2  A    between atoms: C_6  and  C_8
REMARK    3  A    between atoms: C_13  and  N_14
REMARK    4  A    between atoms: N_14  and  C_15
REMARK                            x       y       z     vdW  Elec       q    Type
REMARK                         _______ _______ _______ _____ _____    ______ ____
ROOT
ATOM      1  C   UNL     1       5.872   4.855  17.800  0.00  0.00    +0.000 A 
ATOM      2  C   UNL     1       6.408   5.004  19.098  0.00  0.00    +0.000 A 
ATOM      3  C   UNL     1       7.398   5.947  19.370  0.00  0.00    +0.000 A 
ATOM      4  C   UNL     1       7.892   6.736  18.340  0.00  0.00    +0.000 A 
ATOM      5  C   UNL     1       7.350   6.621  17.059  0.00  0.00    +0.000 A 
ATOM      6  C   UNL     1       6.285   5.738  16.781  0.00  0.00    +0.000 A 
ENDROOT
BRANCH   1  12
ATOM      7  C   UNL     1       1.192   2.696  21.802  0.00  0.00    +0.000 C 
ATOM      8  N   UNL     1       1.582   3.345  20.543  0.00  0.00    +0.000 NA
ATOM      9  C   UNL     1       1.956   2.313  19.552  0.00  0.00    +0.000 C 
ATOM     10  C   UNL     1       2.636   2.852  18.281  0.00  0.00    +0.000 C 
ATOM     11  N   UNL     1       3.710   3.805  18.577  0.00  0.00    +0.000 N 
ATOM     12  C   UNL     1       4.775   3.858  17.675  0.00  0.00    +0.000 C 
ATOM     13  O   UNL     1       4.855   3.075  16.725  0.00  0.00    +0.000 OA
ATOM     14  C   UNL     1       3.266   4.883  19.469  0.00  0.00    +0.000 C 
ATOM     15  C   UNL     1       2.688   4.298  20.775  0.00  0.00    +0.000 C 
ENDBRANCH   1  12
BRANCH   6  16
ATOM     16  N   UNL     1       5.705   5.738  15.481  0.00  0.00    +0.000 N 
ATOM     17  H   UNL     1       5.502   6.697  15.191  0.00  0.00    +0.000 HD
BRANCH  16  18
ATOM     18  C   UNL     1       6.208   5.045  14.349  0.00  0.00    +0.000 A 
ATOM     19  C   UNL     1       5.403   4.074  13.740  0.00  0.00    +0.000 A 
ATOM     20  C   UNL     1       5.805   3.457  12.554  0.00  0.00    +0.000 A 
ATOM     21  C   UNL     1       7.009   3.818  11.953  0.00  0.00    +0.000 A 
ATOM     22  C   UNL     1       7.814   4.790  12.542  0.00  0.00    +0.000 A 
ATOM     23  C   UNL     1       7.411   5.406  13.728  0.00  0.00    +0.000 A 
ENDBRANCH  16  18
ENDBRANCH   6  16
TORSDOF 3
ENDMDL
MODEL 6
REMARK VINA RESULT:      -7.2      1.877      6.066
REMARK  Name = 
REMARK  4 active torsions:
REMARK  status: ('A' for Active; 'I' for Inactive)
REMARK    1  A    between atoms: C_1  and  N_2
REMARK    2  A    between atoms: C_6  and  C_8
REMARK    3  A    between atoms: C_13  and  N_14
REMARK    4  A    between atoms: N_14  and  C_15
REMARK                            x       y       z     vdW  Elec       q    Type
REMARK                         _______ _______ _______ _____ _____    ______ ____
ROOT
ATOM      1  C   UNL     1       2.342   5.070  19.495  0.00  0.00    +0.000 A 
ATOM      2  C   UNL     1       1.115   4.577  19.990  0.00  0.00    +0.000 A 
ATOM      3  C   UNL     1       1.043   3.363  20.671  0.00  0.00    +0.000 A 
ATOM      4  C   UNL     1       2.194   2.605  20.839  0.00  0.00    +0.000 A 
ATOM      5  C   UNL     1       3.418   3.094  20.382  0.00  0.00    +0.000 A 
ATOM      6  C   UNL     1       3.529   4.362  19.772  0.00  0.00    +0.000 A 
ENDROOT
BRANCH   1  12
ATOM      7  C   UNL     1      -0.578  10.711  20.990  0.00  0.00    +0.000 C 
ATOM      8  N   UNL     1       0.651   9.955  20.716  0.00  0.00    +0.000 NA
ATOM      9  C   UNL     1       0.829   9.816  19.255  0.00  0.00    +0.000 C 
ATOM     10  C   UNL     1       1.926   8.825  18.828  0.00  0.00    +0.000 C 
ATOM     11  N   UNL     1       1.838   7.545  19.537  0.00  0.00    +0.000 N 
ATOM     12  C   UNL     1       2.277   6.410  18.852  0.00  0.00    +0.000 C 
ATOM     13  O   UNL     1       2.634   6.466  17.672  0.00  0.00    +0.000 OA
ATOM     14  C   UNL     1       1.785   7.720  20.993  0.00  0.00    +0.000 C 
ATOM     15  C   UNL     1       0.604   8.636  21.383  0.00  0.00    +0.000 C 
ENDBRANCH   1  12
BRANCH   6  16
ATOM     16  N   UNL     1       4.818   4.851  19.418  0.00  0.00    +0.000 N 
ATOM     17  H   UNL     1       5.466   4.717  20.197  0.00  0.00    +0.000 HD
BRANCH  16  18
ATOM     18  C   UNL     1       5.519   4.551  18.221  0.00  0.00    +0.000 A 
ATOM     19  C   UNL     1       4.796   4.094  17.113  0.00  0.00    +0.000 A 
ATOM     20  C   UNL     1       5.424   3.906  15.880  0.00  0.00    +0.000 A 
ATOM     21  C   UNL     1       6.780   4.192  15.737  0.00  0.00    +0.000 A 
ATOM     22  C   UNL     1       7.509   4.658  16.828  0.00  0.00    +0.000 A 
ATOM     23  C   UNL     1       6.880   4.846  18.060  0.00  0.00    +0.000 A 
ENDBRANCH  16  18
ENDBRANCH   6  16
TORSDOF 3
ENDMDL
MODEL 7
REMARK VINA RESULT:      -7.1      1.912      6.150
REMARK  Name = 
REMARK  4 active torsions:
REMARK  status: ('A' for Active; 'I' for Inactive)
REMARK    1  A    between atoms: C_1  and  N_2
REMARK    2  A    between atoms: C_6  and  C_8
REMARK    3  A    between atoms: C_13  and  N_14
REMARK    4  A    between atoms: N_14  and  C_15
REMARK                            x       y       z     vdW  Elec       q    Type
REMARK                         _______ _______ _______ _____ _____    ______ ____
ROOT
ATOM      1  C   UNL     1       2.334   5.208  19.583  0.00  0.00    +0.000 A 
ATOM      2  C   UNL     1       1.127   4.695  20.107  0.00  0.00    +0.000 A 
ATOM      3  C   UNL     1       1.085   3.466  20.762  0.00  0.00    +0.000 A 
ATOM      4  C   UNL     1       2.245   2.713  20.877  0.00  0.00    +0.000 A 
ATOM      5  C   UNL     1       3.451   3.220  20.391  0.00  0.00    +0.000 A 
ATOM      6  C   UNL     1       3.534   4.502  19.806  0.00  0.00    +0.000 A 
ENDROOT
BRANCH   1  12
ATOM      7  C   UNL     1      -0.623  10.776  21.264  0.00  0.00    +0.000 C 
ATOM      8  N   UNL     1       0.610  10.042  20.948  0.00  0.00    +0.000 NA
ATOM      9  C   UNL     1       0.759   9.938  19.481  0.00  0.00    +0.000 C 
ATOM     10  C   UNL     1       1.859   8.970  19.009  0.00  0.00    +0.000 C 
ATOM     11  N   UNL     1       1.800   7.674  19.690  0.00  0.00    +0.000 N 
ATOM     12  C   UNL     1       2.239   6.560  18.971  0.00  0.00    +0.000 C 
ATOM     13  O   UNL     1       2.571   6.648  17.787  0.00  0.00    +0.000 OA
ATOM     14  C   UNL     1       1.775   7.816  21.151  0.00  0.00    +0.000 C 
ATOM     15  C   UNL     1       0.593   8.708  21.586  0.00  0.00    +0.000 C 
ENDBRANCH   1  12
BRANCH   6  16
ATOM     16  N   UNL     1       4.808   5.008  19.421  0.00  0.00    +0.000 N 
ATOM     17  H   UNL     1       5.496   4.804  20.149  0.00  0.00    +0.000 HD
BRANCH  16  18
ATOM     18  C   UNL     1       5.437   4.804  18.166  0.00  0.00    +0.000 A 
ATOM     19  C   UNL     1       6.823   4.972  18.071  0.00  0.00    +0.000 A 
ATOM     20  C   UNL     1       7.499   4.662  16.889  0.00  0.00    +0.000 A 
ATOM     21  C   UNL     1       6.798   4.160  15.794  0.00  0.00    +0.000 A 
ATOM     22  C   UNL     1       5.420   3.978  15.879  0.00  0.00    +0.000 A 
ATOM     23  C   UNL     1       4.745   4.288  17.061  0.00  0.00    +0.000 A 
ENDBRANCH  16  18
ENDBRANCH   6  16
TORSDOF 3
ENDMDL
MODEL 8
REMARK VINA RESULT:      -7.0      1.539      5.814
REMARK  Name = 
REMARK  4 active torsions:
REMARK  status: ('A' for Active; 'I' for Inactive)
REMARK    1  A    between atoms: C_1  and  N_2
REMARK    2  A    between atoms: C_6  and  C_8
REMARK    3  A    between atoms: C_13  and  N_14
REMARK    4  A    between atoms: N_14  and  C_15
REMARK                            x       y       z     vdW  Elec       q    Type
REMARK                         _______ _______ _______ _____ _____    ______ ____
ROOT
ATOM      1  C   UNL     1       5.010   5.602  17.858  0.00  0.00    +0.000 A 
ATOM      2  C   UNL     1       6.229   6.310  17.951  0.00  0.00    +0.000 A 
ATOM      3  C   UNL     1       7.211   6.194  16.968  0.00  0.00    +0.000 A 
ATOM      4  C   UNL     1       7.004   5.343  15.892  0.00  0.00    +0.000 A 
ATOM      5  C   UNL     1       5.793   4.660  15.772  0.00  0.00    +0.000 A 
ATOM      6  C   UNL     1       4.749   4.832  16.706  0.00  0.00    +0.000 A 
ENDROOT
BRANCH   1  12
ATOM      7  C   UNL     1       1.050  10.590  19.275  0.00  0.00    +0.000 C 
ATOM      8  N   UNL     1       1.230   9.168  18.952  0.00  0.00    +0.000 NA
ATOM      9  C   UNL     1       1.619   8.431  20.174  0.00  0.00    +0.000 C 
ATOM     10  C   UNL     1       2.098   6.988  19.934  0.00  0.00    +0.000 C 
ATOM     11  N   UNL     1       3.078   6.892  18.848  0.00  0.00    +0.000 N 
ATOM     12  C   UNL     1       4.031   5.876  18.944  0.00  0.00    +0.000 C 
ATOM     13  O   UNL     1       4.105   5.153  19.941  0.00  0.00    +0.000 OA
ATOM     14  C   UNL     1       2.603   7.531  17.615  0.00  0.00    +0.000 C 
ATOM     15  C   UNL     1       2.235   9.007  17.880  0.00  0.00    +0.000 C 
ENDBRANCH   1  12
BRANCH   6  16
ATOM     16  N   UNL     1       3.499   4.189  16.478  0.00  0.00    +0.000 N 
ATOM     17  H   UNL     1       3.529   3.678  15.593  0.00  0.00    +0.000 HD
BRANCH  16  18
ATOM     18  C   UNL     1       2.796   3.387  17.414  0.00  0.00    +0.000 A 
ATOM     19  C   UNL     1       3.453   2.296  17.994  0.00  0.00    +0.000 A 
ATOM     20  C   UNL     1       2.844   1.555  19.010  0.00  0.00    +0.000 A 
ATOM     21  C   UNL     1       1.577   1.911  19.469  0.00  0.00    +0.000 A 
ATOM     22  C   UNL     1       0.917   3.001  18.908  0.00  0.00    +0.000 A 
ATOM     23  C   UNL     1       1.527   3.740  17.893  0.00  0.00    +0.000 A 
ENDBRANCH  16  18
ENDBRANCH   6  16
TORSDOF 3
ENDMDL
MODEL 9
REMARK VINA RESULT:      -6.9      2.502      6.748
REMARK  Name = 
REMARK  4 active torsions:
REMARK  status: ('A' for Active; 'I' for Inactive)
REMARK    1  A    between atoms: C_1  and  N_2
REMARK    2  A    between atoms: C_6  and  C_8
REMARK    3  A    between atoms: C_13  and  N_14
REMARK    4  A    between atoms: N_14  and  C_15
REMARK                            x       y       z     vdW  Elec       q    Type
REMARK                         _______ _______ _______ _____ _____    ______ ____
ROOT
ATOM      1  C   UNL     1       5.893   4.854  17.764  0.00  0.00    +0.000 A 
ATOM      2  C   UNL     1       6.495   4.949  19.039  0.00  0.00    +0.000 A 
ATOM      3  C   UNL     1       7.480   5.899  19.306  0.00  0.00    +0.000 A 
ATOM      4  C   UNL     1       7.903   6.748  18.293  0.00  0.00    +0.000 A 
ATOM      5  C   UNL     1       7.296   6.686  17.038  0.00  0.00    +0.000 A 
ATOM      6  C   UNL     1       6.234   5.795  16.772  0.00  0.00    +0.000 A 
ENDROOT
BRANCH   1  12
ATOM      7  C   UNL     1       1.207   2.700  21.762  0.00  0.00    +0.000 C 
ATOM      8  N   UNL     1       1.599   3.333  20.495  0.00  0.00    +0.000 NA
ATOM      9  C   UNL     1       1.994   2.291  19.525  0.00  0.00    +0.000 C 
ATOM     10  C   UNL     1       2.679   2.818  18.251  0.00  0.00    +0.000 C 
ATOM     11  N   UNL     1       3.738   3.789  18.540  0.00  0.00    +0.000 N 
ATOM     12  C   UNL     1       4.810   3.841  17.646  0.00  0.00    +0.000 C 
ATOM     13  O   UNL     1       4.909   3.044  16.710  0.00  0.00    +0.000 OA
ATOM     14  C   UNL     1       3.272   4.875  19.411  0.00  0.00    +0.000 C 
ATOM     15  C   UNL     1       2.691   4.304  20.722  0.00  0.00    +0.000 C 
ENDBRANCH   1  12
BRANCH   6  16
ATOM     16  N   UNL     1       5.586   5.847  15.505  0.00  0.00    +0.000 N 
ATOM     17  H   UNL     1       5.371   6.817  15.265  0.00  0.00    +0.000 HD
BRANCH  16  18
ATOM     18  C   UNL     1       6.026   5.199  14.322  0.00  0.00    +0.000 A 
ATOM     19  C   UNL     1       7.308   5.482  13.835  0.00  0.00    +0.000 A 
ATOM     20  C   UNL     1       7.829   4.777  12.747  0.00  0.00    +0.000 A 
ATOM     21  C   UNL     1       7.079   3.768  12.146  0.00  0.00    +0.000 A 
ATOM     22  C   UNL     1       5.807   3.469  12.627  0.00  0.00    +0.000 A 
ATOM     23  C   UNL     1       5.288   4.174  13.715  0.00  0.00    +0.000 A 
ENDBRANCH  16  18
ENDBRANCH   6  16
TORSDOF 3
ENDMDL
