MODEL 1
REMARK VINA RESULT:      -4.4      0.000      0.000
REMARK  Name = 
REMARK  4 active torsions:
REMARK  status: ('A' for Active; 'I' for Inactive)
REMARK    1  A    between atoms: C_1  and  S_2
REMARK    2  A    between atoms: S_2  and  C_3
REMARK    3  A    between atoms: C_3  and  N_5
REMARK    4  A    between atoms: C_9  and  C_10
REMARK                            x       y       z     vdW  Elec       q    Type
REMARK                         _______ _______ _______ _____ _____    ______ ____
ROOT
ATOM      1  N   UNL     1       5.714   4.963  16.851  0.00  0.00    +0.000 N 
ATOM      2  C   UNL     1       5.660   4.131  15.790  0.00  0.00    +0.000 A 
ATOM      3  C   UNL     1       6.700   4.433  14.940  0.00  0.00    +0.000 A 
ATOM      4  N   UNL     1       7.418   5.443  15.461  0.00  0.00    +0.000 NA
ATOM      5  C   UNL     1       6.801   5.750  16.620  0.00  0.00    +0.000 A 
ATOM      6  C   UNL     1       7.329   6.807  17.539  0.00  0.00    +0.000 C 
ENDROOT
BRANCH   1   7
ATOM      7  C   UNL     1       4.787   4.938  17.966  0.00  0.00    +0.000 C 
ATOM      8  S   UNL     1       4.909   3.997  19.049  0.00  0.00    +0.000 S 
BRANCH   7  10
ATOM      9  C   UNL     1       2.160   4.767  17.924  0.00  0.00    +0.000 C 
ATOM     10  S   UNL     1       3.407   6.089  18.022  0.00  0.00    +0.000 S 
ENDBRANCH   7  10
ENDBRANCH   1   7
TORSDOF 2
ENDMDL
MODEL 2
REMARK VINA RESULT:      -4.4      1.242      1.745
REMARK  Name = 
REMARK  4 active torsions:
REMARK  status: ('A' for Active; 'I' for Inactive)
REMARK    1  A    between atoms: C_1  and  S_2
REMARK    2  A    between atoms: S_2  and  C_3
REMARK    3  A    between atoms: C_3  and  N_5
REMARK    4  A    between atoms: C_9  and  C_10
REMARK                            x       y       z     vdW  Elec       q    Type
REMARK                         _______ _______ _______ _____ _____    ______ ____
ROOT
ATOM      1  N   UNL     1       5.586   4.542  17.067  0.00  0.00    +0.000 N 
ATOM      2  C   UNL     1       5.479   4.135  15.785  0.00  0.00    +0.000 A 
ATOM      3  C   UNL     1       6.700   4.287  15.170  0.00  0.00    +0.000 A 
ATOM      4  N   UNL     1       7.583   4.778  16.056  0.00  0.00    +0.000 NA
ATOM      5  C   UNL     1       6.885   4.927  17.200  0.00  0.00    +0.000 A 
ATOM      6  C   UNL     1       7.532   5.409  18.461  0.00  0.00    +0.000 C 
ENDROOT
BRANCH   1   7
ATOM      7  C   UNL     1       4.506   4.517  18.034  0.00  0.00    +0.000 C 
ATOM      8  S   UNL     1       3.462   5.509  18.049  0.00  0.00    +0.000 S 
BRANCH   7  10
ATOM      9  C   UNL     1       3.476   2.103  18.251  0.00  0.00    +0.000 C 
ATOM     10  S   UNL     1       4.447   3.236  19.294  0.00  0.00    +0.000 S 
ENDBRANCH   7  10
ENDBRANCH   1   7
TORSDOF 2
ENDMDL
MODEL 3
REMARK VINA RESULT:      -4.3      1.297      1.781
REMARK  Name = 
REMARK  4 active torsions:
REMARK  status: ('A' for Active; 'I' for Inactive)
REMARK    1  A    between atoms: C_1  and  S_2
REMARK    2  A    between atoms: S_2  and  C_3
REMARK    3  A    between atoms: C_3  and  N_5
REMARK    4  A    between atoms: C_9  and  C_10
REMARK                            x       y       z     vdW  Elec       q    Type
REMARK                         _______ _______ _______ _____ _____    ______ ____
ROOT
ATOM      1  N   UNL     1       5.553   4.808  16.387  0.00  0.00    +0.000 N 
ATOM      2  C   UNL     1       5.468   4.750  15.042  0.00  0.00    +0.000 A 
ATOM      3  C   UNL     1       6.739   4.802  14.516  0.00  0.00    +0.000 A 
ATOM      4  N   UNL     1       7.629   4.881  15.520  0.00  0.00    +0.000 NA
ATOM      5  C   UNL     1       6.888   4.886  16.646  0.00  0.00    +0.000 A 
ATOM      6  C   UNL     1       7.517   4.915  18.005  0.00  0.00    +0.000 C 
ENDROOT
BRANCH   1   7
ATOM      7  C   UNL     1       4.418   4.766  17.289  0.00  0.00    +0.000 C 
ATOM      8  S   UNL     1       3.863   5.953  17.884  0.00  0.00    +0.000 S 
BRANCH   7  10
ATOM      9  C   UNL     1       4.413   3.173  19.386  0.00  0.00    +0.000 C 
ATOM     10  S   UNL     1       3.667   3.192  17.726  0.00  0.00    +0.000 S 
ENDBRANCH   7  10
ENDBRANCH   1   7
TORSDOF 2
ENDMDL
MODEL 4
REMARK VINA RESULT:      -4.3      1.376      1.390
REMARK  Name = 
REMARK  4 active torsions:
REMARK  status: ('A' for Active; 'I' for Inactive)
REMARK    1  A    between atoms: C_1  and  S_2
REMARK    2  A    between atoms: S_2  and  C_3
REMARK    3  A    between atoms: C_3  and  N_5
REMARK    4  A    between atoms: C_9  and  C_10
REMARK                            x       y       z     vdW  Elec       q    Type
REMARK                         _______ _______ _______ _____ _____    ______ ____
ROOT
ATOM      1  N   UNL     1       5.584   4.672  16.220  0.00  0.00    +0.000 N 
ATOM      2  C   UNL     1       5.485   4.674  14.874  0.00  0.00    +0.000 A 
ATOM      3  C   UNL     1       6.747   4.792  14.339  0.00  0.00    +0.000 A 
ATOM      4  N   UNL     1       7.647   4.854  15.337  0.00  0.00    +0.000 NA
ATOM      5  C   UNL     1       6.918   4.782  16.469  0.00  0.00    +0.000 A 
ATOM      6  C   UNL     1       7.562   4.768  17.821  0.00  0.00    +0.000 C 
ENDROOT
BRANCH   1   7
ATOM      7  C   UNL     1       4.462   4.551  17.130  0.00  0.00    +0.000 C 
ATOM      8  S   UNL     1       3.885   3.279  17.477  0.00  0.00    +0.000 S 
BRANCH   7  10
ATOM      9  C   UNL     1       3.962   5.440  19.558  0.00  0.00    +0.000 C 
ATOM     10  S   UNL     1       3.717   6.021  17.850  0.00  0.00    +0.000 S 
ENDBRANCH   7  10
ENDBRANCH   1   7
TORSDOF 2
ENDMDL
MODEL 5
REMARK VINA RESULT:      -4.3      1.576      2.461
REMARK  Name = 
REMARK  4 active torsions:
REMARK  status: ('A' for Active; 'I' for Inactive)
REMARK    1  A    between atoms: C_1  and  S_2
REMARK    2  A    between atoms: S_2  and  C_3
REMARK    3  A    between atoms: C_3  and  N_5
REMARK    4  A    between atoms: C_9  and  C_10
REMARK                            x       y       z     vdW  Elec       q    Type
REMARK                         _______ _______ _______ _____ _____    ______ ____
ROOT
ATOM      1  N   UNL     1       5.433   4.693  17.369  0.00  0.00    +0.000 N 
ATOM      2  C   UNL     1       6.374   4.789  18.332  0.00  0.00    +0.000 A 
ATOM      3  C   UNL     1       7.615   4.686  17.747  0.00  0.00    +0.000 A 
ATOM      4  N   UNL     1       7.468   4.536  16.419  0.00  0.00    +0.000 NA
ATOM      5  C   UNL     1       6.136   4.540  16.213  0.00  0.00    +0.000 A 
ATOM      6  C   UNL     1       5.551   4.445  14.838  0.00  0.00    +0.000 C 
ENDROOT
BRANCH   1   7
ATOM      7  C   UNL     1       4.004   4.769  17.601  0.00  0.00    +0.000 C 
ATOM      8  S   UNL     1       3.356   5.984  18.024  0.00  0.00    +0.000 S 
BRANCH   7  10
ATOM      9  C   UNL     1       3.479   2.591  18.984  0.00  0.00    +0.000 C 
ATOM     10  S   UNL     1       2.972   3.312  17.392  0.00  0.00    +0.000 S 
ENDBRANCH   7  10
ENDBRANCH   1   7
TORSDOF 2
ENDMDL
MODEL 6
REMARK VINA RESULT:      -4.3      1.338      2.194
REMARK  Name = 
REMARK  4 active torsions:
REMARK  status: ('A' for Active; 'I' for Inactive)
REMARK    1  A    between atoms: C_1  and  S_2
REMARK    2  A    between atoms: S_2  and  C_3
REMARK    3  A    between atoms: C_3  and  N_5
REMARK    4  A    between atoms: C_9  and  C_10
REMARK                            x       y       z     vdW  Elec       q    Type
REMARK                         _______ _______ _______ _____ _____    ______ ____
ROOT
ATOM      1  N   UNL     1       5.557   4.364  17.600  0.00  0.00    +0.000 N 
ATOM      2  C   UNL     1       6.393   4.799  18.565  0.00  0.00    +0.000 A 
ATOM      3  C   UNL     1       7.635   5.006  18.013  0.00  0.00    +0.000 A 
ATOM      4  N   UNL     1       7.590   4.717  16.700  0.00  0.00    +0.000 NA
ATOM      5  C   UNL     1       6.319   4.327  16.472  0.00  0.00    +0.000 A 
ATOM      6  C   UNL     1       5.841   3.962  15.101  0.00  0.00    +0.000 C 
ENDROOT
BRANCH   1   7
ATOM      7  C   UNL     1       4.155   4.050  17.801  0.00  0.00    +0.000 C 
ATOM      8  S   UNL     1       3.672   2.696  17.876  0.00  0.00    +0.000 S 
BRANCH   7  10
ATOM      9  C   UNL     1       1.528   4.228  17.847  0.00  0.00    +0.000 C 
ATOM     10  S   UNL     1       2.942   5.370  17.939  0.00  0.00    +0.000 S 
ENDBRANCH   7  10
ENDBRANCH   1   7
TORSDOF 2
ENDMDL
MODEL 7
REMARK VINA RESULT:      -4.2      1.772      1.882
REMARK  Name = 
REMARK  4 active torsions:
REMARK  status: ('A' for Active; 'I' for Inactive)
REMARK    1  A    between atoms: C_1  and  S_2
REMARK    2  A    between atoms: S_2  and  C_3
REMARK    3  A    between atoms: C_3  and  N_5
REMARK    4  A    between atoms: C_9  and  C_10
REMARK                            x       y       z     vdW  Elec       q    Type
REMARK                         _______ _______ _______ _____ _____    ______ ____
ROOT
ATOM      1  N   UNL     1       5.132   4.495  16.599  0.00  0.00    +0.000 N 
ATOM      2  C   UNL     1       5.891   3.778  15.745  0.00  0.00    +0.000 A 
ATOM      3  C   UNL     1       6.434   4.632  14.813  0.00  0.00    +0.000 A 
ATOM      4  N   UNL     1       6.034   5.888  15.079  0.00  0.00    +0.000 NA
ATOM      5  C   UNL     1       5.243   5.780  16.165  0.00  0.00    +0.000 A 
ATOM      6  C   UNL     1       4.629   6.981  16.815  0.00  0.00    +0.000 C 
ENDROOT
BRANCH   1   7
ATOM      7  C   UNL     1       4.408   3.938  17.726  0.00  0.00    +0.000 C 
ATOM      8  S   UNL     1       4.930   3.968  19.067  0.00  0.00    +0.000 S 
BRANCH   7  10
ATOM      9  C   UNL     1       3.296   1.640  18.371  0.00  0.00    +0.000 C 
ATOM     10  S   UNL     1       2.812   3.150  17.476  0.00  0.00    +0.000 S 
ENDBRANCH   7  10
ENDBRANCH   1   7
TORSDOF 2
ENDMDL
MODEL 8
REMARK VINA RESULT:      -4.2      1.528      1.598
REMARK  Name = 
REMARK  4 active torsions:
REMARK  status: ('A' for Active; 'I' for Inactive)
REMARK    1  A    between atoms: C_1  and  S_2
REMARK    2  A    between atoms: S_2  and  C_3
REMARK    3  A    between atoms: C_3  and  N_5
REMARK    4  A    between atoms: C_9  and  C_10
REMARK                            x       y       z     vdW  Elec       q    Type
REMARK                         _______ _______ _______ _____ _____    ______ ____
ROOT
ATOM      1  N   UNL     1       5.079   4.444  16.611  0.00  0.00    +0.000 N 
ATOM      2  C   UNL     1       5.864   3.755  15.756  0.00  0.00    +0.000 A 
ATOM      3  C   UNL     1       6.430   4.638  14.866  0.00  0.00    +0.000 A 
ATOM      4  N   UNL     1       6.019   5.884  15.157  0.00  0.00    +0.000 NA
ATOM      5  C   UNL     1       5.198   5.743  16.218  0.00  0.00    +0.000 A 
ATOM      6  C   UNL     1       4.562   6.922  16.886  0.00  0.00    +0.000 C 
ENDROOT
BRANCH   1   7
ATOM      7  C   UNL     1       4.326   3.853  17.700  0.00  0.00    +0.000 C 
ATOM      8  S   UNL     1       4.825   3.814  19.049  0.00  0.00    +0.000 S 
BRANCH   7  10
ATOM      9  C   UNL     1       1.807   4.573  17.968  0.00  0.00    +0.000 C 
ATOM     10  S   UNL     1       2.719   3.108  17.390  0.00  0.00    +0.000 S 
ENDBRANCH   7  10
ENDBRANCH   1   7
TORSDOF 2
ENDMDL
MODEL 9
REMARK VINA RESULT:      -4.2      2.460      4.472
REMARK  Name = 
REMARK  4 active torsions:
REMARK  status: ('A' for Active; 'I' for Inactive)
REMARK    1  A    between atoms: C_1  and  S_2
REMARK    2  A    between atoms: S_2  and  C_3
REMARK    3  A    between atoms: C_3  and  N_5
REMARK    4  A    between atoms: C_9  and  C_10
REMARK                            x       y       z     vdW  Elec       q    Type
REMARK                         _______ _______ _______ _____ _____    ______ ____
ROOT
ATOM      1  N   UNL     1       3.670   3.713  17.796  0.00  0.00    +0.000 N 
ATOM      2  C   UNL     1       3.333   2.409  17.874  0.00  0.00    +0.000 A 
ATOM      3  C   UNL     1       2.008   2.316  18.235  0.00  0.00    +0.000 A 
ATOM      4  N   UNL     1       1.501   3.553  18.376  0.00  0.00    +0.000 NA
ATOM      5  C   UNL     1       2.527   4.385  18.107  0.00  0.00    +0.000 A 
ATOM      6  C   UNL     1       2.357   5.872  18.107  0.00  0.00    +0.000 C 
ENDROOT
BRANCH   1   7
ATOM      7  C   UNL     1       4.983   4.205  17.429  0.00  0.00    +0.000 C 
ATOM      8  S   UNL     1       5.499   4.100  16.089  0.00  0.00    +0.000 S 
BRANCH   7  10
ATOM      9  C   UNL     1       7.562   4.667  17.700  0.00  0.00    +0.000 C 
ATOM     10  S   UNL     1       6.048   4.956  18.668  0.00  0.00    +0.000 S 
ENDBRANCH   7  10
ENDBRANCH   1   7
TORSDOF 2
ENDMDL
