MODEL 1
REMARK VINA RESULT:      -9.4      0.000      0.000
REMARK  Name = 
REMARK  5 active torsions:
REMARK  status: ('A' for Active; 'I' for Inactive)
REMARK    1  A    between atoms: C_1  and  C_2
REMARK    2  A    between atoms: C_2  and  C_3
REMARK    3  A    between atoms: C_6  and  C_8
REMARK    4  A    between atoms: C_8  and  C_9
REMARK    5  A    between atoms: N_24  and  C_25
REMARK                            x       y       z     vdW  Elec       q    Type
REMARK                         _______ _______ _______ _____ _____    ______ ____
ROOT
ATOM      1  C   UNL     1       2.086   8.103  18.896  0.00  0.00    +0.000 A 
ATOM      2  C   UNL     1       1.476   9.326  18.693  0.00  0.00    +0.000 A 
ATOM      3  C   UNL     1       0.855   9.949  19.764  0.00  0.00    +0.000 A 
ATOM      4  C   UNL     1       0.886   9.368  21.038  0.00  0.00    +0.000 A 
ATOM      5  N   UNL     1       0.320  10.012  22.133  0.00  0.00    +0.000 N 
ATOM      6  C   UNL     1      -0.739  10.865  22.177  0.00  0.00    +0.000 A 
ATOM      7  N   UNL     1      -1.127  11.404  23.355  0.00  0.00    +0.000 NA
ATOM      8  C   UNL     1      -2.192  12.239  23.399  0.00  0.00    +0.000 A 
ATOM      9  C   UNL     1      -2.924  12.491  22.239  0.00  0.00    +0.000 A 
ATOM     10  C   UNL     1      -4.132  13.066  21.807  0.00  0.00    +0.000 A 
ATOM     11  C   UNL     1      -5.422  13.328  22.269  0.00  0.00    +0.000 A 
ATOM     12  C   UNL     1      -6.099  14.321  21.579  0.00  0.00    +0.000 A 
ATOM     13  N   UNL     1      -5.509  15.121  20.663  0.00  0.00    +0.000 NA
ATOM     14  C   UNL     1      -4.320  14.726  20.138  0.00  0.00    +0.000 A 
ATOM     15  C   UNL     1      -3.871  13.462  20.493  0.00  0.00    +0.000 A 
ATOM     16  N   UNL     1      -3.078  12.455  19.986  0.00  0.00    +0.000 N 
ATOM     17  C   UNL     1      -2.360  11.987  21.071  0.00  0.00    +0.000 A 
ATOM     18  N   UNL     1      -1.345  11.172  21.001  0.00  0.00    +0.000 NA
ATOM     19  N   UNL     1       1.479   8.180  21.249  0.00  0.00    +0.000 NA
ATOM     20  C   UNL     1       2.063   7.576  20.186  0.00  0.00    +0.000 A 
ATOM     21  H   UNL     1       0.686   9.723  23.033  0.00  0.00    +0.000 HD
ENDROOT
BRANCH  16  22
ATOM     22  C   UNL     1      -3.379  11.538  18.862  0.00  0.00    +0.000 C 
ATOM     23  C   UNL     1      -4.735  11.860  18.184  0.00  0.00    +0.000 C 
ATOM     24  C   UNL     1      -4.645  11.373  16.744  0.00  0.00    +0.000 C 
ATOM     25  C   UNL     1      -3.166  11.308  16.401  0.00  0.00    +0.000 C 
ATOM     26  C   UNL     1      -2.383  11.537  17.698  0.00  0.00    +0.000 C 
ENDBRANCH  16  22
BRANCH   1  27
ATOM     27  C   UNL     1       2.752   7.384  17.763  0.00  0.00    +0.000 C 
BRANCH  27  33
ATOM     28  C   UNL     1       3.000   3.296  20.069  0.00  0.00    +0.000 C 
ATOM     29  C   UNL     1       3.876   2.916  18.859  0.00  0.00    +0.000 C 
ATOM     30  C   UNL     1       3.779   1.395  18.653  0.00  0.00    +0.000 C 
ATOM     31  C   UNL     1       3.373   3.621  17.572  0.00  0.00    +0.000 C 
ATOM     32  N   UNL     1       3.591   5.063  17.645  0.00  0.00    +0.000 N 
ATOM     33  C   UNL     1       2.472   5.887  17.739  0.00  0.00    +0.000 C 
ATOM     34  O   UNL     1       1.333   5.437  17.782  0.00  0.00    +0.000 OA
ATOM     35  C   UNL     1       4.986   5.436  17.891  0.00  0.00    +0.000 C 
ATOM     36  C   UNL     1       5.543   4.710  19.137  0.00  0.00    +0.000 C 
ATOM     37  N   UNL     1       5.308   3.256  19.115  0.00  0.00    +0.000 NA
ATOM     38  H   UNL     1       5.600   2.842  19.997  0.00  0.00    +0.000 HD
ENDBRANCH  27  33
ENDBRANCH   1  27
TORSDOF 3
ENDMDL
MODEL 2
REMARK VINA RESULT:      -8.8      0.811      1.066
REMARK  Name = 
REMARK  5 active torsions:
REMARK  status: ('A' for Active; 'I' for Inactive)
REMARK    1  A    between atoms: C_1  and  C_2
REMARK    2  A    between atoms: C_2  and  C_3
REMARK    3  A    between atoms: C_6  and  C_8
REMARK    4  A    between atoms: C_8  and  C_9
REMARK    5  A    between atoms: N_24  and  C_25
REMARK                            x       y       z     vdW  Elec       q    Type
REMARK                         _______ _______ _______ _____ _____    ______ ____
ROOT
ATOM      1  C   UNL     1       2.208   7.801  18.916  0.00  0.00    +0.000 A 
ATOM      2  C   UNL     1       1.851   9.134  18.849  0.00  0.00    +0.000 A 
ATOM      3  C   UNL     1       1.176   9.699  19.919  0.00  0.00    +0.000 A 
ATOM      4  C   UNL     1       0.899   8.941  21.064  0.00  0.00    +0.000 A 
ATOM      5  N   UNL     1       0.276   9.512  22.168  0.00  0.00    +0.000 N 
ATOM      6  C   UNL     1      -0.619  10.536  22.218  0.00  0.00    +0.000 A 
ATOM      7  N   UNL     1      -1.099  10.959  23.409  0.00  0.00    +0.000 NA
ATOM      8  C   UNL     1      -2.003  11.967  23.454  0.00  0.00    +0.000 A 
ATOM      9  C   UNL     1      -2.482  12.523  22.269  0.00  0.00    +0.000 A 
ATOM     10  C   UNL     1      -3.489  13.376  21.785  0.00  0.00    +0.000 A 
ATOM     11  C   UNL     1      -4.775  13.809  22.108  0.00  0.00    +0.000 A 
ATOM     12  C   UNL     1      -5.155  15.005  21.518  0.00  0.00    +0.000 A 
ATOM     13  N   UNL     1      -4.296  15.803  20.844  0.00  0.00    +0.000 NA
ATOM     14  C   UNL     1      -3.120  15.269  20.424  0.00  0.00    +0.000 A 
ATOM     15  C   UNL     1      -2.953  13.905  20.608  0.00  0.00    +0.000 A 
ATOM     16  N   UNL     1      -2.266  12.851  20.044  0.00  0.00    +0.000 N 
ATOM     17  C   UNL     1      -1.825  12.099  21.117  0.00  0.00    +0.000 A 
ATOM     18  N   UNL     1      -0.963  11.124  21.043  0.00  0.00    +0.000 NA
ATOM     19  N   UNL     1       1.243   7.643  21.142  0.00  0.00    +0.000 NA
ATOM     20  C   UNL     1       1.885   7.103  20.078  0.00  0.00    +0.000 A 
ATOM     21  H   UNL     1       0.435   9.028  23.045  0.00  0.00    +0.000 HD
ENDROOT
BRANCH  16  22
ATOM     22  C   UNL     1      -2.526  12.185  18.746  0.00  0.00    +0.000 C 
ATOM     23  C   UNL     1      -1.306  11.372  18.245  0.00  0.00    +0.000 C 
ATOM     24  C   UNL     1      -1.842  10.262  17.350  0.00  0.00    +0.000 C 
ATOM     25  C   UNL     1      -3.291  10.045  17.752  0.00  0.00    +0.000 C 
ATOM     26  C   UNL     1      -3.674  11.172  18.718  0.00  0.00    +0.000 C 
ENDBRANCH  16  22
BRANCH   1  27
ATOM     27  C   UNL     1       2.921   7.143  17.774  0.00  0.00    +0.000 C 
BRANCH  27  33
ATOM     28  C   UNL     1       2.955   2.982  19.960  0.00  0.00    +0.000 C 
ATOM     29  C   UNL     1       3.964   2.649  18.843  0.00  0.00    +0.000 C 
ATOM     30  C   UNL     1       3.908   1.135  18.579  0.00  0.00    +0.000 C 
ATOM     31  C   UNL     1       3.600   3.393  17.532  0.00  0.00    +0.000 C 
ATOM     32  N   UNL     1       3.793   4.833  17.676  0.00  0.00    +0.000 N 
ATOM     33  C   UNL     1       2.661   5.645  17.671  0.00  0.00    +0.000 C 
ATOM     34  O   UNL     1       1.530   5.186  17.571  0.00  0.00    +0.000 OA
ATOM     35  C   UNL     1       5.148   5.208  18.087  0.00  0.00    +0.000 C 
ATOM     36  C   UNL     1       5.571   4.445  19.364  0.00  0.00    +0.000 C 
ATOM     37  N   UNL     1       5.355   2.991  19.269  0.00  0.00    +0.000 NA
ATOM     38  H   UNL     1       5.552   2.549  20.164  0.00  0.00    +0.000 HD
ENDBRANCH  27  33
ENDBRANCH   1  27
TORSDOF 3
ENDMDL
MODEL 3
REMARK VINA RESULT:      -8.6      1.234      1.869
REMARK  Name = 
REMARK  5 active torsions:
REMARK  status: ('A' for Active; 'I' for Inactive)
REMARK    1  A    between atoms: C_1  and  C_2
REMARK    2  A    between atoms: C_2  and  C_3
REMARK    3  A    between atoms: C_6  and  C_8
REMARK    4  A    between atoms: C_8  and  C_9
REMARK    5  A    between atoms: N_24  and  C_25
REMARK                            x       y       z     vdW  Elec       q    Type
REMARK                         _______ _______ _______ _____ _____    ______ ____
ROOT
ATOM      1  C   UNL     1       1.661   8.300  18.825  0.00  0.00    +0.000 A 
ATOM      2  C   UNL     1       1.031   9.507  18.589  0.00  0.00    +0.000 A 
ATOM      3  C   UNL     1       0.570  10.242  19.670  0.00  0.00    +0.000 A 
ATOM      4  C   UNL     1       0.780   9.787  20.979  0.00  0.00    +0.000 A 
ATOM      5  N   UNL     1       0.377  10.545  22.074  0.00  0.00    +0.000 N 
ATOM      6  C   UNL     1      -0.663  11.415  22.182  0.00  0.00    +0.000 A 
ATOM      7  N   UNL     1      -0.878  12.073  23.343  0.00  0.00    +0.000 NA
ATOM      8  C   UNL     1      -1.924  12.926  23.454  0.00  0.00    +0.000 A 
ATOM      9  C   UNL     1      -2.812  13.076  22.390  0.00  0.00    +0.000 A 
ATOM     10  C   UNL     1      -4.068  13.626  22.078  0.00  0.00    +0.000 A 
ATOM     11  C   UNL     1      -5.278  13.953  22.689  0.00  0.00    +0.000 A 
ATOM     12  C   UNL     1      -6.044  14.886  22.007  0.00  0.00    +0.000 A 
ATOM     13  N   UNL     1      -5.587  15.583  20.942  0.00  0.00    +0.000 NA
ATOM     14  C   UNL     1      -4.486  15.118  20.297  0.00  0.00    +0.000 A 
ATOM     15  C   UNL     1      -3.995  13.888  20.707  0.00  0.00    +0.000 A 
ATOM     16  N   UNL     1      -3.284  12.823  20.196  0.00  0.00    +0.000 N 
ATOM     17  C   UNL     1      -2.421  12.451  21.210  0.00  0.00    +0.000 A 
ATOM     18  N   UNL     1      -1.428  11.616  21.078  0.00  0.00    +0.000 NA
ATOM     19  N   UNL     1       1.394   8.616  21.221  0.00  0.00    +0.000 NA
ATOM     20  C   UNL     1       1.820   7.902  20.150  0.00  0.00    +0.000 A 
ATOM     21  H   UNL     1       0.866  10.338  22.937  0.00  0.00    +0.000 HD
ENDROOT
BRANCH  16  22
ATOM     22  C   UNL     1      -3.744  11.806  19.221  0.00  0.00    +0.000 C 
ATOM     23  C   UNL     1      -5.176  12.091  18.703  0.00  0.00    +0.000 C 
ATOM     24  C   UNL     1      -5.288  11.461  17.320  0.00  0.00    +0.000 C 
ATOM     25  C   UNL     1      -3.871  11.328  16.791  0.00  0.00    +0.000 C 
ATOM     26  C   UNL     1      -2.916  11.666  17.941  0.00  0.00    +0.000 C 
ENDBRANCH  16  22
BRANCH   1  27
ATOM     27  C   UNL     1       2.157   7.463  17.686  0.00  0.00    +0.000 C 
BRANCH  27  33
ATOM     28  C   UNL     1       5.858   5.435  15.615  0.00  0.00    +0.000 C 
ATOM     29  C   UNL     1       6.007   4.789  17.007  0.00  0.00    +0.000 C 
ATOM     30  C   UNL     1       7.491   4.455  17.226  0.00  0.00    +0.000 C 
ATOM     31  C   UNL     1       5.552   5.769  18.120  0.00  0.00    +0.000 C 
ATOM     32  N   UNL     1       4.111   5.997  18.060  0.00  0.00    +0.000 N 
ATOM     33  C   UNL     1       3.667   7.263  17.684  0.00  0.00    +0.000 C 
ATOM     34  O   UNL     1       4.443   8.164  17.389  0.00  0.00    +0.000 OA
ATOM     35  C   UNL     1       3.316   4.769  18.138  0.00  0.00    +0.000 C 
ATOM     36  C   UNL     1       3.776   3.743  17.077  0.00  0.00    +0.000 C 
ATOM     37  N   UNL     1       5.231   3.515  17.084  0.00  0.00    +0.000 NA
ATOM     38  H   UNL     1       5.494   2.913  16.307  0.00  0.00    +0.000 HD
ENDBRANCH  27  33
ENDBRANCH   1  27
TORSDOF 3
ENDMDL
MODEL 4
REMARK VINA RESULT:      -8.0      1.115      1.520
REMARK  Name = 
REMARK  5 active torsions:
REMARK  status: ('A' for Active; 'I' for Inactive)
REMARK    1  A    between atoms: C_1  and  C_2
REMARK    2  A    between atoms: C_2  and  C_3
REMARK    3  A    between atoms: C_6  and  C_8
REMARK    4  A    between atoms: C_8  and  C_9
REMARK    5  A    between atoms: N_24  and  C_25
REMARK                            x       y       z     vdW  Elec       q    Type
REMARK                         _______ _______ _______ _____ _____    ______ ____
ROOT
ATOM      1  C   UNL     1       1.745   8.280  19.103  0.00  0.00    +0.000 A 
ATOM      2  C   UNL     1       1.122   9.482  18.828  0.00  0.00    +0.000 A 
ATOM      3  C   UNL     1       0.578  10.208  19.876  0.00  0.00    +0.000 A 
ATOM      4  C   UNL     1       0.699   9.750  21.194  0.00  0.00    +0.000 A 
ATOM      5  N   UNL     1       0.212  10.499  22.260  0.00  0.00    +0.000 N 
ATOM      6  C   UNL     1      -0.841  11.360  22.297  0.00  0.00    +0.000 A 
ATOM      7  N   UNL     1      -1.145  12.011  23.443  0.00  0.00    +0.000 NA
ATOM      8  C   UNL     1      -2.204  12.855  23.482  0.00  0.00    +0.000 A 
ATOM      9  C   UNL     1      -3.015  13.001  22.358  0.00  0.00    +0.000 A 
ATOM     10  C   UNL     1      -4.250  13.541  21.959  0.00  0.00    +0.000 A 
ATOM     11  C   UNL     1      -5.504  13.855  22.483  0.00  0.00    +0.000 A 
ATOM     12  C   UNL     1      -6.228  14.784  21.751  0.00  0.00    +0.000 A 
ATOM     13  N   UNL     1      -5.702  15.489  20.725  0.00  0.00    +0.000 NA
ATOM     14  C   UNL     1      -4.554  15.037  20.158  0.00  0.00    +0.000 A 
ATOM     15  C   UNL     1      -4.082  13.810  20.598  0.00  0.00    +0.000 A 
ATOM     16  N   UNL     1      -3.327  12.753  20.134  0.00  0.00    +0.000 N 
ATOM     17  C   UNL     1      -2.535  12.385  21.206  0.00  0.00    +0.000 A 
ATOM     18  N   UNL     1      -1.528  11.559  21.143  0.00  0.00    +0.000 NA
ATOM     19  N   UNL     1       1.304   8.583  21.475  0.00  0.00    +0.000 NA
ATOM     20  C   UNL     1       1.812   7.878  20.435  0.00  0.00    +0.000 A 
ATOM     21  H   UNL     1       0.640  10.294  23.156  0.00  0.00    +0.000 HD
ENDROOT
BRANCH  16  22
ATOM     22  C   UNL     1      -3.707  11.736  19.126  0.00  0.00    +0.000 C 
ATOM     23  C   UNL     1      -5.118  11.988  18.537  0.00  0.00    +0.000 C 
ATOM     24  C   UNL     1      -5.141  11.373  17.144  0.00  0.00    +0.000 C 
ATOM     25  C   UNL     1      -3.694  11.286  16.687  0.00  0.00    +0.000 C 
ATOM     26  C   UNL     1      -2.810  11.635  17.889  0.00  0.00    +0.000 C 
ENDBRANCH  16  22
BRANCH   1  27
ATOM     27  C   UNL     1       2.328   7.452  17.999  0.00  0.00    +0.000 C 
BRANCH  27  33
ATOM     28  C   UNL     1       4.249   3.227  17.255  0.00  0.00    +0.000 C 
ATOM     29  C   UNL     1       3.626   2.942  18.636  0.00  0.00    +0.000 C 
ATOM     30  C   UNL     1       4.457   1.846  19.322  0.00  0.00    +0.000 C 
ATOM     31  C   UNL     1       3.654   4.213  19.526  0.00  0.00    +0.000 C 
ATOM     32  N   UNL     1       2.751   5.236  19.007  0.00  0.00    +0.000 N 
ATOM     33  C   UNL     1       3.315   6.396  18.482  0.00  0.00    +0.000 C 
ATOM     34  O   UNL     1       4.527   6.565  18.428  0.00  0.00    +0.000 OA
ATOM     35  C   UNL     1       1.367   4.779  18.855  0.00  0.00    +0.000 C 
ATOM     36  C   UNL     1       1.301   3.481  18.018  0.00  0.00    +0.000 C 
ATOM     37  N   UNL     1       2.227   2.437  18.491  0.00  0.00    +0.000 NA
ATOM     38  H   UNL     1       2.220   1.647  17.851  0.00  0.00    +0.000 HD
ENDBRANCH  27  33
ENDBRANCH   1  27
TORSDOF 3
ENDMDL
MODEL 5
REMARK VINA RESULT:      -7.9      2.890     10.881
REMARK  Name = 
REMARK  5 active torsions:
REMARK  status: ('A' for Active; 'I' for Inactive)
REMARK    1  A    between atoms: C_1  and  C_2
REMARK    2  A    between atoms: C_2  and  C_3
REMARK    3  A    between atoms: C_6  and  C_8
REMARK    4  A    between atoms: C_8  and  C_9
REMARK    5  A    between atoms: N_24  and  C_25
REMARK                            x       y       z     vdW  Elec       q    Type
REMARK                         _______ _______ _______ _____ _____    ______ ____
ROOT
ATOM      1  C   UNL     1      -0.690  10.807  21.727  0.00  0.00    +0.000 A 
ATOM      2  C   UNL     1       0.411   9.987  21.879  0.00  0.00    +0.000 A 
ATOM      3  C   UNL     1       1.156   9.655  20.758  0.00  0.00    +0.000 A 
ATOM      4  C   UNL     1       0.822  10.180  19.503  0.00  0.00    +0.000 A 
ATOM      5  N   UNL     1       1.598   9.903  18.382  0.00  0.00    +0.000 N 
ATOM      6  C   UNL     1       2.339   8.798  18.099  0.00  0.00    +0.000 A 
ATOM      7  N   UNL     1       3.044   8.731  16.947  0.00  0.00    +0.000 NA
ATOM      8  C   UNL     1       3.768   7.623  16.660  0.00  0.00    +0.000 A 
ATOM      9  C   UNL     1       3.733   6.529  17.524  0.00  0.00    +0.000 A 
ATOM     10  C   UNL     1       4.102   5.175  17.594  0.00  0.00    +0.000 A 
ATOM     11  C   UNL     1       4.319   4.077  16.762  0.00  0.00    +0.000 A 
ATOM     12  C   UNL     1       5.101   3.072  17.311  0.00  0.00    +0.000 A 
ATOM     13  N   UNL     1       5.774   3.212  18.475  0.00  0.00    +0.000 NA
ATOM     14  C   UNL     1       5.405   4.214  19.313  0.00  0.00    +0.000 A 
ATOM     15  C   UNL     1       4.276   4.938  18.961  0.00  0.00    +0.000 A 
ATOM     16  N   UNL     1       3.273   5.670  19.562  0.00  0.00    +0.000 N 
ATOM     17  C   UNL     1       3.081   6.759  18.732  0.00  0.00    +0.000 A 
ATOM     18  N   UNL     1       2.368   7.809  19.029  0.00  0.00    +0.000 NA
ATOM     19  N   UNL     1      -0.246  10.981  19.343  0.00  0.00    +0.000 NA
ATOM     20  C   UNL     1      -0.974  11.278  20.446  0.00  0.00    +0.000 A 
ATOM     21  H   UNL     1       1.513  10.577  17.629  0.00  0.00    +0.000 HD
ENDROOT
BRANCH  16  22
ATOM     22  C   UNL     1       2.143   5.167  20.376  0.00  0.00    +0.000 C 
ATOM     23  C   UNL     1       1.147   4.320  19.544  0.00  0.00    +0.000 C 
ATOM     24  C   UNL     1       0.465   3.355  20.505  0.00  0.00    +0.000 C 
ATOM     25  C   UNL     1       1.392   3.209  21.700  0.00  0.00    +0.000 C 
ATOM     26  C   UNL     1       2.503   4.253  21.551  0.00  0.00    +0.000 C 
ENDBRANCH  16  22
BRANCH   1  27
ATOM     27  C   UNL     1      -1.537  11.175  22.907  0.00  0.00    +0.000 C 
BRANCH  27  33
ATOM     28  C   UNL     1      -3.052  14.606  25.740  0.00  0.00    +0.000 C 
ATOM     29  C   UNL     1      -3.737  15.078  24.442  0.00  0.00    +0.000 C 
ATOM     30  C   UNL     1      -3.915  16.603  24.518  0.00  0.00    +0.000 C 
ATOM     31  C   UNL     1      -2.863  14.744  23.205  0.00  0.00    +0.000 C 
ATOM     32  N   UNL     1      -2.793  13.302  22.987  0.00  0.00    +0.000 N 
ATOM     33  C   UNL     1      -1.568  12.671  23.195  0.00  0.00    +0.000 C 
ATOM     34  O   UNL     1      -0.575  13.283  23.570  0.00  0.00    +0.000 OA
ATOM     35  C   UNL     1      -4.103  12.663  22.843  0.00  0.00    +0.000 C 
ATOM     36  C   UNL     1      -5.025  13.017  24.033  0.00  0.00    +0.000 C 
ATOM     37  N   UNL     1      -5.092  14.463  24.306  0.00  0.00    +0.000 NA
ATOM     38  H   UNL     1      -5.626  14.634  25.154  0.00  0.00    +0.000 HD
ENDBRANCH  27  33
ENDBRANCH   1  27
TORSDOF 3
ENDMDL
MODEL 6
REMARK VINA RESULT:      -7.8      1.417      2.103
REMARK  Name = 
REMARK  5 active torsions:
REMARK  status: ('A' for Active; 'I' for Inactive)
REMARK    1  A    between atoms: C_1  and  C_2
REMARK    2  A    between atoms: C_2  and  C_3
REMARK    3  A    between atoms: C_6  and  C_8
REMARK    4  A    between atoms: C_8  and  C_9
REMARK    5  A    between atoms: N_24  and  C_25
REMARK                            x       y       z     vdW  Elec       q    Type
REMARK                         _______ _______ _______ _____ _____    ______ ____
ROOT
ATOM      1  C   UNL     1       2.050   8.233  18.583  0.00  0.00    +0.000 A 
ATOM      2  C   UNL     1       1.595   9.538  18.563  0.00  0.00    +0.000 A 
ATOM      3  C   UNL     1       0.960  10.042  19.686  0.00  0.00    +0.000 A 
ATOM      4  C   UNL     1       0.822   9.254  20.837  0.00  0.00    +0.000 A 
ATOM      5  N   UNL     1       0.241   9.768  21.992  0.00  0.00    +0.000 N 
ATOM      6  C   UNL     1      -0.718  10.724  22.121  0.00  0.00    +0.000 A 
ATOM      7  N   UNL     1      -1.140  11.100  23.349  0.00  0.00    +0.000 NA
ATOM      8  C   UNL     1      -2.108  12.040  23.474  0.00  0.00    +0.000 A 
ATOM      9  C   UNL     1      -2.709  12.571  22.334  0.00  0.00    +0.000 A 
ATOM     10  C   UNL     1      -3.808  13.354  21.937  0.00  0.00    +0.000 A 
ATOM     11  C   UNL     1      -5.094  13.690  22.357  0.00  0.00    +0.000 A 
ATOM     12  C   UNL     1      -5.600  14.861  21.814  0.00  0.00    +0.000 A 
ATOM     13  N   UNL     1      -4.851  15.725  21.093  0.00  0.00    +0.000 NA
ATOM     14  C   UNL     1      -3.674  15.283  20.581  0.00  0.00    +0.000 A 
ATOM     15  C   UNL     1      -3.397  13.933  20.733  0.00  0.00    +0.000 A 
ATOM     16  N   UNL     1      -2.679  12.936  20.105  0.00  0.00    +0.000 N 
ATOM     17  C   UNL     1      -2.109  12.207  21.133  0.00  0.00    +0.000 A 
ATOM     18  N   UNL     1      -1.187  11.298  20.982  0.00  0.00    +0.000 NA
ATOM     19  N   UNL     1       1.262   7.984  20.870  0.00  0.00    +0.000 NA
ATOM     20  C   UNL     1       1.863   7.503  19.755  0.00  0.00    +0.000 A 
ATOM     21  H   UNL     1       0.498   9.289  22.847  0.00  0.00    +0.000 HD
ENDROOT
BRANCH  16  22
ATOM     22  C   UNL     1      -2.985  12.266  18.820  0.00  0.00    +0.000 C 
ATOM     23  C   UNL     1      -1.704  11.851  18.051  0.00  0.00    +0.000 C 
ATOM     24  C   UNL     1      -2.072  10.664  17.171  0.00  0.00    +0.000 C 
ATOM     25  C   UNL     1      -3.304  10.031  17.794  0.00  0.00    +0.000 C 
ATOM     26  C   UNL     1      -3.794  10.969  18.902  0.00  0.00    +0.000 C 
ENDBRANCH  16  22
BRANCH   1  27
ATOM     27  C   UNL     1       2.724   7.641  17.384  0.00  0.00    +0.000 C 
BRANCH  27  33
ATOM     28  C   UNL     1       6.567   5.458  15.786  0.00  0.00    +0.000 C 
ATOM     29  C   UNL     1       6.461   4.742  17.147  0.00  0.00    +0.000 C 
ATOM     30  C   UNL     1       7.871   4.296  17.568  0.00  0.00    +0.000 C 
ATOM     31  C   UNL     1       5.901   5.700  18.231  0.00  0.00    +0.000 C 
ATOM     32  N   UNL     1       4.503   6.029  17.967  0.00  0.00    +0.000 N 
ATOM     33  C   UNL     1       4.201   7.338  17.599  0.00  0.00    +0.000 C 
ATOM     34  O   UNL     1       5.067   8.196  17.473  0.00  0.00    +0.000 OA
ATOM     35  C   UNL     1       3.632   4.856  17.858  0.00  0.00    +0.000 C 
ATOM     36  C   UNL     1       4.186   3.849  16.823  0.00  0.00    +0.000 C 
ATOM     37  N   UNL     1       5.606   3.521  17.036  0.00  0.00    +0.000 NA
ATOM     38  H   UNL     1       5.948   2.939  16.276  0.00  0.00    +0.000 HD
ENDBRANCH  27  33
ENDBRANCH   1  27
TORSDOF 3
ENDMDL
MODEL 7
REMARK VINA RESULT:      -7.8      1.632      2.212
REMARK  Name = 
REMARK  5 active torsions:
REMARK  status: ('A' for Active; 'I' for Inactive)
REMARK    1  A    between atoms: C_1  and  C_2
REMARK    2  A    between atoms: C_2  and  C_3
REMARK    3  A    between atoms: C_6  and  C_8
REMARK    4  A    between atoms: C_8  and  C_9
REMARK    5  A    between atoms: N_24  and  C_25
REMARK                            x       y       z     vdW  Elec       q    Type
REMARK                         _______ _______ _______ _____ _____    ______ ____
ROOT
ATOM      1  C   UNL     1       2.156   6.608  18.607  0.00  0.00    +0.000 A 
ATOM      2  C   UNL     1       1.838   7.944  18.458  0.00  0.00    +0.000 A 
ATOM      3  C   UNL     1       1.393   8.653  19.563  0.00  0.00    +0.000 A 
ATOM      4  C   UNL     1       1.311   8.033  20.818  0.00  0.00    +0.000 A 
ATOM      5  N   UNL     1       0.925   8.748  21.946  0.00  0.00    +0.000 N 
ATOM      6  C   UNL     1       0.090   9.818  22.044  0.00  0.00    +0.000 A 
ATOM      7  N   UNL     1      -0.145  10.387  23.247  0.00  0.00    +0.000 NA
ATOM      8  C   UNL     1      -0.990  11.441  23.344  0.00  0.00    +0.000 A 
ATOM      9  C   UNL     1      -1.664  11.895  22.211  0.00  0.00    +0.000 A 
ATOM     10  C   UNL     1      -2.715  12.746  21.828  0.00  0.00    +0.000 A 
ATOM     11  C   UNL     1      -3.903  13.278  22.329  0.00  0.00    +0.000 A 
ATOM     12  C   UNL     1      -4.347  14.425  21.688  0.00  0.00    +0.000 A 
ATOM     13  N   UNL     1      -3.603  15.102  20.785  0.00  0.00    +0.000 NA
ATOM     14  C   UNL     1      -2.546  14.466  20.218  0.00  0.00    +0.000 A 
ATOM     15  C   UNL     1      -2.392  13.121  20.520  0.00  0.00    +0.000 A 
ATOM     16  N   UNL     1      -1.858  11.979  19.962  0.00  0.00    +0.000 N 
ATOM     17  C   UNL     1      -1.249  11.320  21.014  0.00  0.00    +0.000 A 
ATOM     18  N   UNL     1      -0.448  10.298  20.893  0.00  0.00    +0.000 NA
ATOM     19  N   UNL     1       1.621   6.734  20.976  0.00  0.00    +0.000 NA
ATOM     20  C   UNL     1       2.034   6.053  19.879  0.00  0.00    +0.000 A 
ATOM     21  H   UNL     1       1.230   8.350  22.827  0.00  0.00    +0.000 HD
ENDROOT
BRANCH  16  22
ATOM     22  C   UNL     1      -2.379  11.197  18.817  0.00  0.00    +0.000 C 
ATOM     23  C   UNL     1      -3.836  11.582  18.453  0.00  0.00    +0.000 C 
ATOM     24  C   UNL     1      -4.029  11.268  16.975  0.00  0.00    +0.000 C 
ATOM     25  C   UNL     1      -2.644  11.260  16.351  0.00  0.00    +0.000 C 
ATOM     26  C   UNL     1      -1.624  11.344  17.492  0.00  0.00    +0.000 C 
ENDBRANCH  16  22
BRANCH   1  27
ATOM     27  C   UNL     1       2.620   5.799  17.435  0.00  0.00    +0.000 C 
BRANCH  27  33
ATOM     28  C   UNL     1       6.829   5.485  19.505  0.00  0.00    +0.000 C 
ATOM     29  C   UNL     1       7.278   5.207  18.057  0.00  0.00    +0.000 C 
ATOM     30  C   UNL     1       8.549   4.343  18.105  0.00  0.00    +0.000 C 
ATOM     31  C   UNL     1       6.182   4.430  17.280  0.00  0.00    +0.000 C 
ATOM     32  N   UNL     1       5.004   5.265  17.062  0.00  0.00    +0.000 N 
ATOM     33  C   UNL     1       3.833   4.926  17.736  0.00  0.00    +0.000 C 
ATOM     34  O   UNL     1       3.776   3.976  18.507  0.00  0.00    +0.000 OA
ATOM     35  C   UNL     1       5.293   6.523  16.369  0.00  0.00    +0.000 C 
ATOM     36  C   UNL     1       6.421   7.303  17.083  0.00  0.00    +0.000 C 
ATOM     37  N   UNL     1       7.613   6.481  17.353  0.00  0.00    +0.000 NA
ATOM     38  H   UNL     1       8.282   7.008  17.910  0.00  0.00    +0.000 HD
ENDBRANCH  27  33
ENDBRANCH   1  27
TORSDOF 3
ENDMDL
MODEL 8
REMARK VINA RESULT:      -7.8      4.334     10.637
REMARK  Name = 
REMARK  5 active torsions:
REMARK  status: ('A' for Active; 'I' for Inactive)
REMARK    1  A    between atoms: C_1  and  C_2
REMARK    2  A    between atoms: C_2  and  C_3
REMARK    3  A    between atoms: C_6  and  C_8
REMARK    4  A    between atoms: C_8  and  C_9
REMARK    5  A    between atoms: N_24  and  C_25
REMARK                            x       y       z     vdW  Elec       q    Type
REMARK                         _______ _______ _______ _____ _____    ______ ____
ROOT
ATOM      1  C   UNL     1       1.793  11.651  18.638  0.00  0.00    +0.000 A 
ATOM      2  C   UNL     1       1.841  10.456  17.946  0.00  0.00    +0.000 A 
ATOM      3  C   UNL     1       1.615   9.275  18.636  0.00  0.00    +0.000 A 
ATOM      4  C   UNL     1       1.301   9.300  20.001  0.00  0.00    +0.000 A 
ATOM      5  N   UNL     1       1.012   8.128  20.691  0.00  0.00    +0.000 N 
ATOM      6  C   UNL     1       1.472   6.866  20.474  0.00  0.00    +0.000 A 
ATOM      7  N   UNL     1       1.052   5.847  21.257  0.00  0.00    +0.000 NA
ATOM      8  C   UNL     1       1.524   4.594  21.050  0.00  0.00    +0.000 A 
ATOM      9  C   UNL     1       2.490   4.371  20.070  0.00  0.00    +0.000 A 
ATOM     10  C   UNL     1       3.390   3.389  19.620  0.00  0.00    +0.000 A 
ATOM     11  C   UNL     1       4.110   2.294  20.096  0.00  0.00    +0.000 A 
ATOM     12  C   UNL     1       4.516   1.393  19.124  0.00  0.00    +0.000 A 
ATOM     13  N   UNL     1       4.088   1.445  17.842  0.00  0.00    +0.000 NA
ATOM     14  C   UNL     1       3.532   2.602  17.398  0.00  0.00    +0.000 A 
ATOM     15  C   UNL     1       3.567   3.684  18.265  0.00  0.00    +0.000 A 
ATOM     16  N   UNL     1       3.581   5.062  18.217  0.00  0.00    +0.000 N 
ATOM     17  C   UNL     1       2.751   5.462  19.247  0.00  0.00    +0.000 A 
ATOM     18  N   UNL     1       2.321   6.680  19.431  0.00  0.00    +0.000 NA
ATOM     19  N   UNL     1       1.249  10.457  20.685  0.00  0.00    +0.000 NA
ATOM     20  C   UNL     1       1.492  11.599  19.997  0.00  0.00    +0.000 A 
ATOM     21  H   UNL     1       0.464   8.254  21.535  0.00  0.00    +0.000 HD
ENDROOT
BRANCH  16  22
ATOM     22  C   UNL     1       4.691   5.946  17.790  0.00  0.00    +0.000 C 
ATOM     23  C   UNL     1       5.983   5.712  18.614  0.00  0.00    +0.000 C 
ATOM     24  C   UNL     1       7.158   6.119  17.735  0.00  0.00    +0.000 C 
ATOM     25  C   UNL     1       6.670   6.036  16.298  0.00  0.00    +0.000 C 
ATOM     26  C   UNL     1       5.156   5.803  16.338  0.00  0.00    +0.000 C 
ENDBRANCH  16  22
BRANCH   1  27
ATOM     27  C   UNL     1       2.051  12.949  17.936  0.00  0.00    +0.000 C 
BRANCH  27  33
ATOM     28  C   UNL     1       1.476  17.615  17.970  0.00  0.00    +0.000 C 
ATOM     29  C   UNL     1       2.111  17.464  19.366  0.00  0.00    +0.000 C 
ATOM     30  C   UNL     1       1.616  18.622  20.248  0.00  0.00    +0.000 C 
ATOM     31  C   UNL     1       1.683  16.126  20.024  0.00  0.00    +0.000 C 
ATOM     32  N   UNL     1       2.264  14.986  19.319  0.00  0.00    +0.000 N 
ATOM     33  C   UNL     1       1.402  14.150  18.613  0.00  0.00    +0.000 C 
ATOM     34  O   UNL     1       0.195  14.357  18.555  0.00  0.00    +0.000 OA
ATOM     35  C   UNL     1       3.724  15.035  19.221  0.00  0.00    +0.000 C 
ATOM     36  C   UNL     1       4.195  16.380  18.619  0.00  0.00    +0.000 C 
ATOM     37  N   UNL     1       3.600  17.552  19.283  0.00  0.00    +0.000 NA
ATOM     38  H   UNL     1       3.859  18.403  18.788  0.00  0.00    +0.000 HD
ENDBRANCH  27  33
ENDBRANCH   1  27
TORSDOF 3
ENDMDL
MODEL 9
REMARK VINA RESULT:      -7.7      4.129     10.468
REMARK  Name = 
REMARK  5 active torsions:
REMARK  status: ('A' for Active; 'I' for Inactive)
REMARK    1  A    between atoms: C_1  and  C_2
REMARK    2  A    between atoms: C_2  and  C_3
REMARK    3  A    between atoms: C_6  and  C_8
REMARK    4  A    between atoms: C_8  and  C_9
REMARK    5  A    between atoms: N_24  and  C_25
REMARK                            x       y       z     vdW  Elec       q    Type
REMARK                         _______ _______ _______ _____ _____    ______ ____
ROOT
ATOM      1  C   UNL     1      -7.174  13.375  20.640  0.00  0.00    +0.000 A 
ATOM      2  C   UNL     1      -5.812  13.554  20.494  0.00  0.00    +0.000 A 
ATOM      3  C   UNL     1      -5.160  12.907  19.456  0.00  0.00    +0.000 A 
ATOM      4  C   UNL     1      -5.880  12.122  18.547  0.00  0.00    +0.000 A 
ATOM      5  N   UNL     1      -5.248  11.517  17.465  0.00  0.00    +0.000 N 
ATOM      6  C   UNL     1      -3.967  11.071  17.356  0.00  0.00    +0.000 A 
ATOM      7  N   UNL     1      -3.537  10.521  16.199  0.00  0.00    +0.000 NA
ATOM      8  C   UNL     1      -2.267  10.062  16.098  0.00  0.00    +0.000 A 
ATOM      9  C   UNL     1      -1.426  10.101  17.209  0.00  0.00    +0.000 A 
ATOM     10  C   UNL     1      -0.190   9.611  17.668  0.00  0.00    +0.000 A 
ATOM     11  C   UNL     1       0.675   8.535  17.477  0.00  0.00    +0.000 A 
ATOM     12  C   UNL     1       1.986   8.762  17.868  0.00  0.00    +0.000 A 
ATOM     13  N   UNL     1       2.453   9.981  18.220  0.00  0.00    +0.000 NA
ATOM     14  C   UNL     1       1.552  10.944  18.544  0.00  0.00    +0.000 A 
ATOM     15  C   UNL     1       0.222  10.556  18.612  0.00  0.00    +0.000 A 
ATOM     16  N   UNL     1      -0.941  10.919  19.258  0.00  0.00    +0.000 N 
ATOM     17  C   UNL     1      -1.931  10.800  18.301  0.00  0.00    +0.000 A 
ATOM     18  N   UNL     1      -3.152  11.241  18.429  0.00  0.00    +0.000 NA
ATOM     19  N   UNL     1      -7.206  11.942  18.677  0.00  0.00    +0.000 NA
ATOM     20  C   UNL     1      -7.823  12.566  19.709  0.00  0.00    +0.000 A 
ATOM     21  H   UNL     1      -5.859  11.286  16.690  0.00  0.00    +0.000 HD
ENDROOT
BRANCH  16  22
ATOM     22  C   UNL     1      -1.284  10.736  20.688  0.00  0.00    +0.000 C 
ATOM     23  C   UNL     1      -0.260   9.840  21.429  0.00  0.00    +0.000 C 
ATOM     24  C   UNL     1      -0.294  10.239  22.899  0.00  0.00    +0.000 C 
ATOM     25  C   UNL     1      -0.843  11.655  22.949  0.00  0.00    +0.000 C 
ATOM     26  C   UNL     1      -1.342  12.005  21.543  0.00  0.00    +0.000 C 
ENDBRANCH  16  22
BRANCH   1  27
ATOM     27  C   UNL     1      -7.916  14.038  21.760  0.00  0.00    +0.000 C 
BRANCH  27  33
ATOM     28  C   UNL     1      -3.736  15.935  22.771  0.00  0.00    +0.000 C 
ATOM     29  C   UNL     1      -4.270  15.806  24.212  0.00  0.00    +0.000 C 
ATOM     30  C   UNL     1      -3.603  16.892  25.072  0.00  0.00    +0.000 C 
ATOM     31  C   UNL     1      -5.806  16.020  24.251  0.00  0.00    +0.000 C 
ATOM     32  N   UNL     1      -6.504  14.924  23.584  0.00  0.00    +0.000 N 
ATOM     33  C   UNL     1      -7.162  15.204  22.389  0.00  0.00    +0.000 C 
ATOM     34  O   UNL     1      -7.151  16.320  21.884  0.00  0.00    +0.000 OA
ATOM     35  C   UNL     1      -6.183  13.603  24.129  0.00  0.00    +0.000 C 
ATOM     36  C   UNL     1      -4.654  13.372  24.157  0.00  0.00    +0.000 C 
ATOM     37  N   UNL     1      -3.913  14.476  24.790  0.00  0.00    +0.000 NA
ATOM     38  H   UNL     1      -2.911  14.325  24.694  0.00  0.00    +0.000 HD
ENDBRANCH  27  33
ENDBRANCH   1  27
TORSDOF 3
ENDMDL
