MODEL 1
REMARK VINA RESULT:      -8.6      0.000      0.000
REMARK  Name = 
REMARK  10 active torsions:
REMARK  status: ('A' for Active; 'I' for Inactive)
REMARK    1  A    between atoms: C_1  and  C_2
REMARK    2  A    between atoms: N_4  and  C_5
REMARK    3  A    between atoms: C_13  and  C_14
REMARK    4  A    between atoms: N_16  and  C_17
REMARK    5  A    between atoms: C_20  and  C_21
REMARK    6  A    between atoms: N_23  and  C_24
REMARK    7  A    between atoms: C_24  and  C_25
REMARK    8  A    between atoms: C_25  and  N_26
REMARK    9  A    between atoms: N_26  and  C_27
REMARK   10  A    between atoms: N_26  and  C_28
REMARK                            x       y       z     vdW  Elec       q    Type
REMARK                         _______ _______ _______ _____ _____    ______ ____
ROOT
ATOM      1  C   UNL     1       1.807   8.328  18.965  0.00  0.00    +0.000 C 
ATOM      2  O   UNL     1       1.403   9.220  18.221  0.00  0.00    +0.000 OA
ATOM      3  N   UNL     1       1.588   8.289  20.340  0.00  0.00    +0.000 N 
ATOM      4  H   UNL     1       2.092   7.572  20.844  0.00  0.00    +0.000 HD
ENDROOT
BRANCH   1  11
ATOM      5  C   UNL     1       6.381   5.872  15.967  0.00  0.00    +0.000 C 
ATOM      6  C   UNL     1       5.253   5.324  16.759  0.00  0.00    +0.000 A 
ATOM      7  N   UNL     1       5.164   3.987  16.996  0.00  0.00    +0.000 NA
ATOM      8  N   UNL     1       4.051   3.854  17.780  0.00  0.00    +0.000 N 
ATOM      9  C   UNL     1       3.449   5.045  17.977  0.00  0.00    +0.000 A 
ATOM     10  S   UNL     1       2.159   5.593  18.842  0.00  0.00    +0.000 S 
ATOM     11  C   UNL     1       2.604   7.228  18.444  0.00  0.00    +0.000 A 
ATOM     12  C   UNL     1       3.754   7.279  17.635  0.00  0.00    +0.000 A 
ATOM     13  C   UNL     1       4.201   5.981  17.397  0.00  0.00    +0.000 A 
BRANCH   8  14
ATOM     14  C   UNL     1       3.745   2.668  18.571  0.00  0.00    +0.000 C 
ATOM     15  C   UNL     1       3.856   2.830  20.085  0.00  0.00    +0.000 C 
ATOM     16  C   UNL     1       2.572   3.289  20.764  0.00  0.00    +0.000 C 
ATOM     17  C   UNL     1       1.355   2.503  20.285  0.00  0.00    +0.000 C 
ATOM     18  C   UNL     1       1.208   2.568  18.772  0.00  0.00    +0.000 C 
ATOM     19  C   UNL     1       2.447   2.008  18.089  0.00  0.00    +0.000 C 
ENDBRANCH   8  14
ENDBRANCH   1  11
BRANCH   3  20
ATOM     20  C   UNL     1       0.850   9.218  21.097  0.00  0.00    +0.000 A 
ATOM     21  C   UNL     1      -0.069   8.835  22.065  0.00  0.00    +0.000 A 
ATOM     22  C   UNL     1      -0.818   9.796  22.728  0.00  0.00    +0.000 A 
ATOM     23  C   UNL     1      -0.620  11.135  22.414  0.00  0.00    +0.000 A 
ATOM     24  N   UNL     1       0.311  11.565  21.516  0.00  0.00    +0.000 NA
ATOM     25  C   UNL     1       1.025  10.593  20.891  0.00  0.00    +0.000 A 
BRANCH  23  26
ATOM     26  C   UNL     1      -1.475  12.164  23.084  0.00  0.00    +0.000 C 
ATOM     27  O   UNL     1      -1.030  13.286  23.325  0.00  0.00    +0.000 OA
ATOM     28  N   UNL     1      -2.758  11.780  23.399  0.00  0.00    +0.000 N 
ATOM     29  H   UNL     1      -3.026  10.808  23.248  0.00  0.00    +0.000 HD
BRANCH  28  30
ATOM     30  C   UNL     1      -3.672  12.666  24.089  0.00  0.00    +0.000 C 
BRANCH  30  31
ATOM     31  C   UNL     1      -4.886  13.046  23.224  0.00  0.00    +0.000 C 
BRANCH  31  32
ATOM     32  N   UNL     1      -4.676  12.910  21.764  0.00  0.00    +0.000 NA
ATOM     33  C   UNL     1      -5.873  12.405  21.087  0.00  0.00    +0.000 C 
ATOM     34  C   UNL     1      -4.308  14.212  21.197  0.00  0.00    +0.000 C 
ENDBRANCH  31  32
ENDBRANCH  30  31
ENDBRANCH  28  30
ENDBRANCH  23  26
ENDBRANCH   3  20
TORSDOF 7
ENDMDL
MODEL 2
REMARK VINA RESULT:      -8.6      1.051      1.360
REMARK  Name = 
REMARK  10 active torsions:
REMARK  status: ('A' for Active; 'I' for Inactive)
REMARK    1  A    between atoms: C_1  and  C_2
REMARK    2  A    between atoms: N_4  and  C_5
REMARK    3  A    between atoms: C_13  and  C_14
REMARK    4  A    between atoms: N_16  and  C_17
REMARK    5  A    between atoms: C_20  and  C_21
REMARK    6  A    between atoms: N_23  and  C_24
REMARK    7  A    between atoms: C_24  and  C_25
REMARK    8  A    between atoms: C_25  and  N_26
REMARK    9  A    between atoms: N_26  and  C_27
REMARK   10  A    between atoms: N_26  and  C_28
REMARK                            x       y       z     vdW  Elec       q    Type
REMARK                         _______ _______ _______ _____ _____    ______ ____
ROOT
ATOM      1  C   UNL     1       2.157   8.356  18.698  0.00  0.00    +0.000 C 
ATOM      2  O   UNL     1       2.133   9.405  18.056  0.00  0.00    +0.000 OA
ATOM      3  N   UNL     1       1.561   8.181  19.944  0.00  0.00    +0.000 N 
ATOM      4  H   UNL     1       1.776   7.312  20.416  0.00  0.00    +0.000 HD
ENDROOT
BRANCH   1  11
ATOM      5  C   UNL     1       6.513   5.521  15.710  0.00  0.00    +0.000 C 
ATOM      6  C   UNL     1       5.360   5.071  16.527  0.00  0.00    +0.000 A 
ATOM      7  N   UNL     1       5.182   3.749  16.797  0.00  0.00    +0.000 NA
ATOM      8  N   UNL     1       4.072   3.711  17.596  0.00  0.00    +0.000 N 
ATOM      9  C   UNL     1       3.557   4.945  17.771  0.00  0.00    +0.000 A 
ATOM     10  S   UNL     1       2.318   5.602  18.637  0.00  0.00    +0.000 S 
ATOM     11  C   UNL     1       2.870   7.192  18.195  0.00  0.00    +0.000 A 
ATOM     12  C   UNL     1       4.010   7.145  17.373  0.00  0.00    +0.000 A 
ATOM     13  C   UNL     1       4.364   5.814  17.160  0.00  0.00    +0.000 A 
BRANCH   8  14
ATOM     14  C   UNL     1       3.695   2.569  18.419  0.00  0.00    +0.000 C 
ATOM     15  C   UNL     1       3.838   2.757  19.927  0.00  0.00    +0.000 C 
ATOM     16  C   UNL     1       2.598   3.320  20.610  0.00  0.00    +0.000 C 
ATOM     17  C   UNL     1       1.323   2.610  20.165  0.00  0.00    +0.000 C 
ATOM     18  C   UNL     1       1.161   2.651  18.652  0.00  0.00    +0.000 C 
ATOM     19  C   UNL     1       2.348   1.990  17.968  0.00  0.00    +0.000 C 
ENDBRANCH   8  14
ENDBRANCH   1  11
BRANCH   3  20
ATOM     20  C   UNL     1       0.809   9.136  20.655  0.00  0.00    +0.000 A 
ATOM     21  C   UNL     1      -0.138   9.948  20.047  0.00  0.00    +0.000 A 
ATOM     22  C   UNL     1      -0.796  10.920  20.788  0.00  0.00    +0.000 A 
ATOM     23  C   UNL     1      -0.496  11.050  22.138  0.00  0.00    +0.000 A 
ATOM     24  N   UNL     1       0.381  10.239  22.794  0.00  0.00    +0.000 NA
ATOM     25  C   UNL     1       1.001   9.299  22.034  0.00  0.00    +0.000 A 
BRANCH  23  26
ATOM     26  C   UNL     1      -1.158  12.141  22.919  0.00  0.00    +0.000 C 
ATOM     27  O   UNL     1      -0.514  13.117  23.301  0.00  0.00    +0.000 OA
ATOM     28  N   UNL     1      -2.502  11.981  23.171  0.00  0.00    +0.000 N 
ATOM     29  H   UNL     1      -2.948  11.106  22.899  0.00  0.00    +0.000 HD
BRANCH  28  30
ATOM     30  C   UNL     1      -3.250  12.942  23.955  0.00  0.00    +0.000 C 
BRANCH  30  31
ATOM     31  C   UNL     1      -4.090  13.887  23.077  0.00  0.00    +0.000 C 
BRANCH  31  32
ATOM     32  N   UNL     1      -5.139  14.640  23.802  0.00  0.00    +0.000 NA
ATOM     33  C   UNL     1      -4.866  16.080  23.814  0.00  0.00    +0.000 C 
ATOM     34  C   UNL     1      -6.442  14.397  23.174  0.00  0.00    +0.000 C 
ENDBRANCH  31  32
ENDBRANCH  30  31
ENDBRANCH  28  30
ENDBRANCH  23  26
ENDBRANCH   3  20
TORSDOF 7
ENDMDL
MODEL 3
REMARK VINA RESULT:      -8.5      1.153      1.484
REMARK  Name = 
REMARK  10 active torsions:
REMARK  status: ('A' for Active; 'I' for Inactive)
REMARK    1  A    between atoms: C_1  and  C_2
REMARK    2  A    between atoms: N_4  and  C_5
REMARK    3  A    between atoms: C_13  and  C_14
REMARK    4  A    between atoms: N_16  and  C_17
REMARK    5  A    between atoms: C_20  and  C_21
REMARK    6  A    between atoms: N_23  and  C_24
REMARK    7  A    between atoms: C_24  and  C_25
REMARK    8  A    between atoms: C_25  and  N_26
REMARK    9  A    between atoms: N_26  and  C_27
REMARK   10  A    between atoms: N_26  and  C_28
REMARK                            x       y       z     vdW  Elec       q    Type
REMARK                         _______ _______ _______ _____ _____    ______ ____
ROOT
ATOM      1  C   UNL     1       2.262   8.505  18.211  0.00  0.00    +0.000 C 
ATOM      2  O   UNL     1       2.269   9.464  17.441  0.00  0.00    +0.000 OA
ATOM      3  N   UNL     1       1.622   8.494  19.448  0.00  0.00    +0.000 N 
ATOM      4  H   UNL     1       1.813   7.692  20.034  0.00  0.00    +0.000 HD
ENDROOT
BRANCH   1  11
ATOM      5  C   UNL     1       6.766   5.300  15.893  0.00  0.00    +0.000 C 
ATOM      6  C   UNL     1       5.538   4.957  16.649  0.00  0.00    +0.000 A 
ATOM      7  N   UNL     1       5.300   3.673  17.030  0.00  0.00    +0.000 NA
ATOM      8  N   UNL     1       4.128   3.737  17.732  0.00  0.00    +0.000 N 
ATOM      9  C   UNL     1       3.635   4.992  17.742  0.00  0.00    +0.000 A 
ATOM     10  S   UNL     1       2.348   5.756  18.432  0.00  0.00    +0.000 S 
ATOM     11  C   UNL     1       2.980   7.283  17.886  0.00  0.00    +0.000 A 
ATOM     12  C   UNL     1       4.182   7.131  17.172  0.00  0.00    +0.000 A 
ATOM     13  C   UNL     1       4.514   5.779  17.120  0.00  0.00    +0.000 A 
BRANCH   8  14
ATOM     14  C   UNL     1       3.652   2.689  18.626  0.00  0.00    +0.000 C 
ATOM     15  C   UNL     1       3.605   3.049  20.110  0.00  0.00    +0.000 C 
ATOM     16  C   UNL     1       2.290   3.667  20.565  0.00  0.00    +0.000 C 
ATOM     17  C   UNL     1       1.080   2.893  20.050  0.00  0.00    +0.000 C 
ATOM     18  C   UNL     1       1.108   2.760  18.534  0.00  0.00    +0.000 C 
ATOM     19  C   UNL     1       2.371   2.043  18.082  0.00  0.00    +0.000 C 
ENDBRANCH   8  14
ENDBRANCH   1  11
BRANCH   3  20
ATOM     20  C   UNL     1       0.856   9.536  20.005  0.00  0.00    +0.000 A 
ATOM     21  C   UNL     1      -0.143  10.192  19.299  0.00  0.00    +0.000 A 
ATOM     22  C   UNL     1      -0.814  11.259  19.878  0.00  0.00    +0.000 A 
ATOM     23  C   UNL     1      -0.477  11.641  21.170  0.00  0.00    +0.000 A 
ATOM     24  N   UNL     1       0.453  10.993  21.926  0.00  0.00    +0.000 NA
ATOM     25  C   UNL     1       1.085   9.952  21.324  0.00  0.00    +0.000 A 
BRANCH  23  26
ATOM     26  C   UNL     1      -1.157  12.833  21.768  0.00  0.00    +0.000 C 
ATOM     27  O   UNL     1      -1.073  13.936  21.230  0.00  0.00    +0.000 OA
ATOM     28  N   UNL     1      -1.865  12.612  22.928  0.00  0.00    +0.000 N 
ATOM     29  H   UNL     1      -1.816  11.691  23.360  0.00  0.00    +0.000 HD
BRANCH  28  30
ATOM     30  C   UNL     1      -2.531  13.689  23.631  0.00  0.00    +0.000 C 
BRANCH  30  31
ATOM     31  C   UNL     1      -4.003  13.842  23.211  0.00  0.00    +0.000 C 
BRANCH  31  32
ATOM     32  N   UNL     1      -4.854  12.662  23.488  0.00  0.00    +0.000 NA
ATOM     33  C   UNL     1      -4.833  12.298  24.907  0.00  0.00    +0.000 C 
ATOM     34  C   UNL     1      -6.234  12.943  23.078  0.00  0.00    +0.000 C 
ENDBRANCH  31  32
ENDBRANCH  30  31
ENDBRANCH  28  30
ENDBRANCH  23  26
ENDBRANCH   3  20
TORSDOF 7
ENDMDL
MODEL 4
REMARK VINA RESULT:      -8.4      1.013      1.406
REMARK  Name = 
REMARK  10 active torsions:
REMARK  status: ('A' for Active; 'I' for Inactive)
REMARK    1  A    between atoms: C_1  and  C_2
REMARK    2  A    between atoms: N_4  and  C_5
REMARK    3  A    between atoms: C_13  and  C_14
REMARK    4  A    between atoms: N_16  and  C_17
REMARK    5  A    between atoms: C_20  and  C_21
REMARK    6  A    between atoms: N_23  and  C_24
REMARK    7  A    between atoms: C_24  and  C_25
REMARK    8  A    between atoms: C_25  and  N_26
REMARK    9  A    between atoms: N_26  and  C_27
REMARK   10  A    between atoms: N_26  and  C_28
REMARK                            x       y       z     vdW  Elec       q    Type
REMARK                         _______ _______ _______ _____ _____    ______ ____
ROOT
ATOM      1  C   UNL     1       2.255   8.432  18.358  0.00  0.00    +0.000 C 
ATOM      2  O   UNL     1       2.284   9.449  17.666  0.00  0.00    +0.000 OA
ATOM      3  N   UNL     1       1.585   8.326  19.574  0.00  0.00    +0.000 N 
ATOM      4  H   UNL     1       1.759   7.479  20.099  0.00  0.00    +0.000 HD
ENDROOT
BRANCH   1  11
ATOM      5  C   UNL     1       6.753   5.401  15.805  0.00  0.00    +0.000 C 
ATOM      6  C   UNL     1       5.538   5.006  16.557  0.00  0.00    +0.000 A 
ATOM      7  N   UNL     1       5.315   3.700  16.868  0.00  0.00    +0.000 NA
ATOM      8  N   UNL     1       4.152   3.714  17.587  0.00  0.00    +0.000 N 
ATOM      9  C   UNL     1       3.650   4.963  17.674  0.00  0.00    +0.000 A 
ATOM     10  S   UNL     1       2.367   5.676  18.422  0.00  0.00    +0.000 S 
ATOM     11  C   UNL     1       2.979   7.237  17.955  0.00  0.00    +0.000 A 
ATOM     12  C   UNL     1       4.172   7.135  17.218  0.00  0.00    +0.000 A 
ATOM     13  C   UNL     1       4.514   5.791  17.087  0.00  0.00    +0.000 A 
BRANCH   8  14
ATOM     14  C   UNL     1       3.697   2.614  18.427  0.00  0.00    +0.000 C 
ATOM     15  C   UNL     1       3.786   2.844  19.934  0.00  0.00    +0.000 C 
ATOM     16  C   UNL     1       2.544   3.477  20.548  0.00  0.00    +0.000 C 
ATOM     17  C   UNL     1       1.260   2.804  20.073  0.00  0.00    +0.000 C 
ATOM     18  C   UNL     1       1.160   2.803  18.554  0.00  0.00    +0.000 C 
ATOM     19  C   UNL     1       2.345   2.075  17.939  0.00  0.00    +0.000 C 
ENDBRANCH   8  14
ENDBRANCH   1  11
BRANCH   3  20
ATOM     20  C   UNL     1       0.807   9.324  20.192  0.00  0.00    +0.000 A 
ATOM     21  C   UNL     1       0.932   9.646  21.537  0.00  0.00    +0.000 A 
ATOM     22  C   UNL     1       0.087  10.589  22.105  0.00  0.00    +0.000 A 
ATOM     23  C   UNL     1      -0.866  11.204  21.303  0.00  0.00    +0.000 A 
ATOM     24  N   UNL     1      -0.989  10.967  19.966  0.00  0.00    +0.000 NA
ATOM     25  C   UNL     1      -0.141  10.040  19.449  0.00  0.00    +0.000 A 
BRANCH  23  26
ATOM     26  C   UNL     1      -1.818  12.172  21.932  0.00  0.00    +0.000 C 
ATOM     27  O   UNL     1      -1.758  12.414  23.137  0.00  0.00    +0.000 OA
ATOM     28  N   UNL     1      -2.737  12.757  21.091  0.00  0.00    +0.000 N 
ATOM     29  H   UNL     1      -2.782  12.440  20.124  0.00  0.00    +0.000 HD
BRANCH  28  30
ATOM     30  C   UNL     1      -3.743  13.675  21.582  0.00  0.00    +0.000 C 
BRANCH  30  31
ATOM     31  C   UNL     1      -5.160  13.078  21.527  0.00  0.00    +0.000 C 
BRANCH  31  32
ATOM     32  N   UNL     1      -5.639  12.496  22.801  0.00  0.00    +0.000 NA
ATOM     33  C   UNL     1      -5.059  13.177  23.962  0.00  0.00    +0.000 C 
ATOM     34  C   UNL     1      -7.101  12.586  22.865  0.00  0.00    +0.000 C 
ENDBRANCH  31  32
ENDBRANCH  30  31
ENDBRANCH  28  30
ENDBRANCH  23  26
ENDBRANCH   3  20
TORSDOF 7
ENDMDL
MODEL 5
REMARK VINA RESULT:      -8.4      2.002      2.639
REMARK  Name = 
REMARK  10 active torsions:
REMARK  status: ('A' for Active; 'I' for Inactive)
REMARK    1  A    between atoms: C_1  and  C_2
REMARK    2  A    between atoms: N_4  and  C_5
REMARK    3  A    between atoms: C_13  and  C_14
REMARK    4  A    between atoms: N_16  and  C_17
REMARK    5  A    between atoms: C_20  and  C_21
REMARK    6  A    between atoms: N_23  and  C_24
REMARK    7  A    between atoms: C_24  and  C_25
REMARK    8  A    between atoms: C_25  and  N_26
REMARK    9  A    between atoms: N_26  and  C_27
REMARK   10  A    between atoms: N_26  and  C_28
REMARK                            x       y       z     vdW  Elec       q    Type
REMARK                         _______ _______ _______ _____ _____    ______ ____
ROOT
ATOM      1  C   UNL     1       2.119   8.590  18.332  0.00  0.00    +0.000 C 
ATOM      2  O   UNL     1       2.132   9.563  17.580  0.00  0.00    +0.000 OA
ATOM      3  N   UNL     1       1.451   8.549  19.553  0.00  0.00    +0.000 N 
ATOM      4  H   UNL     1       1.638   7.738  20.128  0.00  0.00    +0.000 HD
ENDROOT
BRANCH   1  11
ATOM      5  C   UNL     1       6.693   5.476  16.027  0.00  0.00    +0.000 C 
ATOM      6  C   UNL     1       5.462   5.107  16.766  0.00  0.00    +0.000 A 
ATOM      7  N   UNL     1       5.238   3.815  17.129  0.00  0.00    +0.000 NA
ATOM      8  N   UNL     1       4.058   3.854  17.819  0.00  0.00    +0.000 N 
ATOM      9  C   UNL     1       3.547   5.102  17.838  0.00  0.00    +0.000 A 
ATOM     10  S   UNL     1       2.242   5.840  18.522  0.00  0.00    +0.000 S 
ATOM     11  C   UNL     1       2.858   7.382  18.001  0.00  0.00    +0.000 A 
ATOM     12  C   UNL     1       4.070   7.256  17.298  0.00  0.00    +0.000 A 
ATOM     13  C   UNL     1       4.421   5.909  17.235  0.00  0.00    +0.000 A 
BRANCH   8  14
ATOM     14  C   UNL     1       3.587   2.790  18.696  0.00  0.00    +0.000 C 
ATOM     15  C   UNL     1       3.507   3.136  20.181  0.00  0.00    +0.000 C 
ATOM     16  C   UNL     1       2.172   3.724  20.618  0.00  0.00    +0.000 C 
ATOM     17  C   UNL     1       0.987   2.930  20.075  0.00  0.00    +0.000 C 
ATOM     18  C   UNL     1       1.044   2.811  18.559  0.00  0.00    +0.000 C 
ATOM     19  C   UNL     1       2.329   2.123  18.123  0.00  0.00    +0.000 C 
ENDBRANCH   8  14
ENDBRANCH   1  11
BRANCH   3  20
ATOM     20  C   UNL     1       0.661   9.572  20.112  0.00  0.00    +0.000 A 
ATOM     21  C   UNL     1      -0.365  10.192  19.413  0.00  0.00    +0.000 A 
ATOM     22  C   UNL     1      -1.062  11.243  19.992  0.00  0.00    +0.000 A 
ATOM     23  C   UNL     1      -0.721  11.646  21.277  0.00  0.00    +0.000 A 
ATOM     24  N   UNL     1       0.238  11.031  22.027  0.00  0.00    +0.000 NA
ATOM     25  C   UNL     1       0.894  10.005  21.424  0.00  0.00    +0.000 A 
BRANCH  23  26
ATOM     26  C   UNL     1      -1.429  12.821  21.874  0.00  0.00    +0.000 C 
ATOM     27  O   UNL     1      -2.257  13.451  21.218  0.00  0.00    +0.000 OA
ATOM     28  N   UNL     1      -1.099  13.136  23.173  0.00  0.00    +0.000 N 
ATOM     29  H   UNL     1      -0.341  12.624  23.621  0.00  0.00    +0.000 HD
BRANCH  28  30
ATOM     30  C   UNL     1      -1.678  14.277  23.851  0.00  0.00    +0.000 C 
BRANCH  30  31
ATOM     31  C   UNL     1      -0.768  15.517  23.794  0.00  0.00    +0.000 C 
BRANCH  31  32
ATOM     32  N   UNL     1      -0.238  15.958  25.104  0.00  0.00    +0.000 NA
ATOM     33  C   UNL     1       0.128  17.377  25.093  0.00  0.00    +0.000 C 
ATOM     34  C   UNL     1      -1.242  15.723  26.147  0.00  0.00    +0.000 C 
ENDBRANCH  31  32
ENDBRANCH  30  31
ENDBRANCH  28  30
ENDBRANCH  23  26
ENDBRANCH   3  20
TORSDOF 7
ENDMDL
MODEL 6
REMARK VINA RESULT:      -8.3      1.879      2.662
REMARK  Name = 
REMARK  10 active torsions:
REMARK  status: ('A' for Active; 'I' for Inactive)
REMARK    1  A    between atoms: C_1  and  C_2
REMARK    2  A    between atoms: N_4  and  C_5
REMARK    3  A    between atoms: C_13  and  C_14
REMARK    4  A    between atoms: N_16  and  C_17
REMARK    5  A    between atoms: C_20  and  C_21
REMARK    6  A    between atoms: N_23  and  C_24
REMARK    7  A    between atoms: C_24  and  C_25
REMARK    8  A    between atoms: C_25  and  N_26
REMARK    9  A    between atoms: N_26  and  C_27
REMARK   10  A    between atoms: N_26  and  C_28
REMARK                            x       y       z     vdW  Elec       q    Type
REMARK                         _______ _______ _______ _____ _____    ______ ____
ROOT
ATOM      1  C   UNL     1       1.346  10.008  18.762  0.00  0.00    +0.000 C 
ATOM      2  O   UNL     1       1.840  11.090  18.451  0.00  0.00    +0.000 OA
ATOM      3  N   UNL     1       0.112   9.857  19.388  0.00  0.00    +0.000 N 
ATOM      4  H   UNL     1      -0.107   8.923  19.707  0.00  0.00    +0.000 HD
ENDROOT
BRANCH   1  11
ATOM      5  C   UNL     1       5.248   6.444  15.931  0.00  0.00    +0.000 C 
ATOM      6  C   UNL     1       4.360   6.275  17.106  0.00  0.00    +0.000 A 
ATOM      7  N   UNL     1       4.398   5.128  17.837  0.00  0.00    +0.000 NA
ATOM      8  N   UNL     1       3.500   5.338  18.848  0.00  0.00    +0.000 N 
ATOM      9  C   UNL     1       2.896   6.537  18.719  0.00  0.00    +0.000 A 
ATOM     10  S   UNL     1       1.807   7.416  19.589  0.00  0.00    +0.000 S 
ATOM     11  C   UNL     1       2.062   8.766  18.520  0.00  0.00    +0.000 A 
ATOM     12  C   UNL     1       2.995   8.468  17.510  0.00  0.00    +0.000 A 
ATOM     13  C   UNL     1       3.445   7.160  17.676  0.00  0.00    +0.000 A 
BRANCH   8  14
ATOM     14  C   UNL     1       3.445   4.547  20.071  0.00  0.00    +0.000 C 
ATOM     15  C   UNL     1       2.191   4.726  20.924  0.00  0.00    +0.000 C 
ATOM     16  C   UNL     1       1.052   3.778  20.574  0.00  0.00    +0.000 C 
ATOM     17  C   UNL     1       1.529   2.336  20.420  0.00  0.00    +0.000 C 
ATOM     18  C   UNL     1       2.647   2.225  19.394  0.00  0.00    +0.000 C 
ATOM     19  C   UNL     1       3.833   3.088  19.798  0.00  0.00    +0.000 C 
ENDBRANCH   8  14
ENDBRANCH   1  11
BRANCH   3  20
ATOM     20  C   UNL     1      -0.786  10.887  19.731  0.00  0.00    +0.000 A 
ATOM     21  C   UNL     1      -0.628  11.672  20.865  0.00  0.00    +0.000 A 
ATOM     22  C   UNL     1      -1.585  12.623  21.188  0.00  0.00    +0.000 A 
ATOM     23  C   UNL     1      -2.684  12.778  20.352  0.00  0.00    +0.000 A 
ATOM     24  N   UNL     1      -2.855  12.074  19.198  0.00  0.00    +0.000 NA
ATOM     25  C   UNL     1      -1.894  11.155  18.916  0.00  0.00    +0.000 A 
BRANCH  23  26
ATOM     26  C   UNL     1      -3.747  13.758  20.738  0.00  0.00    +0.000 C 
ATOM     27  O   UNL     1      -3.446  14.871  21.166  0.00  0.00    +0.000 OA
ATOM     28  N   UNL     1      -5.049  13.339  20.580  0.00  0.00    +0.000 N 
ATOM     29  H   UNL     1      -5.219  12.374  20.303  0.00  0.00    +0.000 HD
BRANCH  28  30
ATOM     30  C   UNL     1      -6.170  14.175  20.958  0.00  0.00    +0.000 C 
BRANCH  30  31
ATOM     31  C   UNL     1      -6.539  14.022  22.444  0.00  0.00    +0.000 C 
BRANCH  31  32
ATOM     32  N   UNL     1      -6.377  12.654  22.988  0.00  0.00    +0.000 NA
ATOM     33  C   UNL     1      -5.498  12.636  24.161  0.00  0.00    +0.000 C 
ATOM     34  C   UNL     1      -7.689  12.111  23.354  0.00  0.00    +0.000 C 
ENDBRANCH  31  32
ENDBRANCH  30  31
ENDBRANCH  28  30
ENDBRANCH  23  26
ENDBRANCH   3  20
TORSDOF 7
ENDMDL
MODEL 7
REMARK VINA RESULT:      -8.3      1.693      2.140
REMARK  Name = 
REMARK  10 active torsions:
REMARK  status: ('A' for Active; 'I' for Inactive)
REMARK    1  A    between atoms: C_1  and  C_2
REMARK    2  A    between atoms: N_4  and  C_5
REMARK    3  A    between atoms: C_13  and  C_14
REMARK    4  A    between atoms: N_16  and  C_17
REMARK    5  A    between atoms: C_20  and  C_21
REMARK    6  A    between atoms: N_23  and  C_24
REMARK    7  A    between atoms: C_24  and  C_25
REMARK    8  A    between atoms: C_25  and  N_26
REMARK    9  A    between atoms: N_26  and  C_27
REMARK   10  A    between atoms: N_26  and  C_28
REMARK                            x       y       z     vdW  Elec       q    Type
REMARK                         _______ _______ _______ _____ _____    ______ ____
ROOT
ATOM      1  C   UNL     1       2.127   8.621  18.243  0.00  0.00    +0.000 C 
ATOM      2  O   UNL     1       2.101   9.557  17.445  0.00  0.00    +0.000 OA
ATOM      3  N   UNL     1       1.498   8.627  19.485  0.00  0.00    +0.000 N 
ATOM      4  H   UNL     1       1.715   7.847  20.091  0.00  0.00    +0.000 HD
ENDROOT
BRANCH   1  11
ATOM      5  C   UNL     1       6.772   5.489  16.108  0.00  0.00    +0.000 C 
ATOM      6  C   UNL     1       5.519   5.126  16.813  0.00  0.00    +0.000 A 
ATOM      7  N   UNL     1       5.286   3.838  17.183  0.00  0.00    +0.000 NA
ATOM      8  N   UNL     1       4.085   3.883  17.836  0.00  0.00    +0.000 N 
ATOM      9  C   UNL     1       3.573   5.130  17.827  0.00  0.00    +0.000 A 
ATOM     10  S   UNL     1       2.247   5.873  18.464  0.00  0.00    +0.000 S 
ATOM     11  C   UNL     1       2.877   7.411  17.946  0.00  0.00    +0.000 A 
ATOM     12  C   UNL     1       4.109   7.278  17.282  0.00  0.00    +0.000 A 
ATOM     13  C   UNL     1       4.464   5.932  17.243  0.00  0.00    +0.000 A 
BRANCH   8  14
ATOM     14  C   UNL     1       3.589   2.826  18.709  0.00  0.00    +0.000 C 
ATOM     15  C   UNL     1       3.505   3.173  20.194  0.00  0.00    +0.000 C 
ATOM     16  C   UNL     1       2.178   3.785  20.622  0.00  0.00    +0.000 C 
ATOM     17  C   UNL     1       0.983   3.013  20.070  0.00  0.00    +0.000 C 
ATOM     18  C   UNL     1       1.048   2.893  18.554  0.00  0.00    +0.000 C 
ATOM     19  C   UNL     1       2.323   2.183  18.127  0.00  0.00    +0.000 C 
ENDBRANCH   8  14
ENDBRANCH   1  11
BRANCH   3  20
ATOM     20  C   UNL     1       0.706   9.663  20.019  0.00  0.00    +0.000 A 
ATOM     21  C   UNL     1      -0.416  10.158  19.370  0.00  0.00    +0.000 A 
ATOM     22  C   UNL     1      -1.114  11.228  19.913  0.00  0.00    +0.000 A 
ATOM     23  C   UNL     1      -0.675  11.776  21.111  0.00  0.00    +0.000 A 
ATOM     24  N   UNL     1       0.385  11.288  21.816  0.00  0.00    +0.000 NA
ATOM     25  C   UNL     1       1.039  10.238  21.253  0.00  0.00    +0.000 A 
BRANCH  23  26
ATOM     26  C   UNL     1      -1.389  12.971  21.660  0.00  0.00    +0.000 C 
ATOM     27  O   UNL     1      -2.551  13.208  21.335  0.00  0.00    +0.000 OA
ATOM     28  N   UNL     1      -0.675  13.761  22.532  0.00  0.00    +0.000 N 
ATOM     29  H   UNL     1       0.310  13.550  22.684  0.00  0.00    +0.000 HD
BRANCH  28  30
ATOM     30  C   UNL     1      -1.235  14.971  23.098  0.00  0.00    +0.000 C 
BRANCH  30  31
ATOM     31  C   UNL     1      -1.326  14.912  24.633  0.00  0.00    +0.000 C 
BRANCH  31  32
ATOM     32  N   UNL     1      -2.694  15.053  25.179  0.00  0.00    +0.000 NA
ATOM     33  C   UNL     1      -3.268  16.368  24.878  0.00  0.00    +0.000 C 
ATOM     34  C   UNL     1      -3.557  14.006  24.623  0.00  0.00    +0.000 C 
ENDBRANCH  31  32
ENDBRANCH  30  31
ENDBRANCH  28  30
ENDBRANCH  23  26
ENDBRANCH   3  20
TORSDOF 7
ENDMDL
MODEL 8
REMARK VINA RESULT:      -8.3      1.301      3.260
REMARK  Name = 
REMARK  10 active torsions:
REMARK  status: ('A' for Active; 'I' for Inactive)
REMARK    1  A    between atoms: C_1  and  C_2
REMARK    2  A    between atoms: N_4  and  C_5
REMARK    3  A    between atoms: C_13  and  C_14
REMARK    4  A    between atoms: N_16  and  C_17
REMARK    5  A    between atoms: C_20  and  C_21
REMARK    6  A    between atoms: N_23  and  C_24
REMARK    7  A    between atoms: C_24  and  C_25
REMARK    8  A    between atoms: C_25  and  N_26
REMARK    9  A    between atoms: N_26  and  C_27
REMARK   10  A    between atoms: N_26  and  C_28
REMARK                            x       y       z     vdW  Elec       q    Type
REMARK                         _______ _______ _______ _____ _____    ______ ____
ROOT
ATOM      1  C   UNL     1       1.792   7.990  19.766  0.00  0.00    +0.000 C 
ATOM      2  O   UNL     1       1.628   8.852  18.905  0.00  0.00    +0.000 OA
ATOM      3  N   UNL     1       1.399   8.120  21.096  0.00  0.00    +0.000 N 
ATOM      4  H   UNL     1       1.718   7.392  21.721  0.00  0.00    +0.000 HD
ENDROOT
BRANCH   1  11
ATOM      5  C   UNL     1       2.292   2.029  19.372  0.00  0.00    +0.000 C 
ATOM      6  C   UNL     1       3.172   3.165  19.005  0.00  0.00    +0.000 A 
ATOM      7  N   UNL     1       4.349   2.943  18.361  0.00  0.00    +0.000 NA
ATOM      8  N   UNL     1       4.860   4.194  18.145  0.00  0.00    +0.000 N 
ATOM      9  C   UNL     1       4.063   5.143  18.676  0.00  0.00    +0.000 A 
ATOM     10  S   UNL     1       4.045   6.790  18.718  0.00  0.00    +0.000 S 
ATOM     11  C   UNL     1       2.468   6.741  19.451  0.00  0.00    +0.000 A 
ATOM     12  C   UNL     1       2.016   5.423  19.641  0.00  0.00    +0.000 A 
ATOM     13  C   UNL     1       2.984   4.537  19.172  0.00  0.00    +0.000 A 
BRANCH   8  14
ATOM     14  C   UNL     1       5.922   4.490  17.192  0.00  0.00    +0.000 C 
ATOM     15  C   UNL     1       5.635   5.616  16.201  0.00  0.00    +0.000 C 
ATOM     16  C   UNL     1       6.047   6.999  16.686  0.00  0.00    +0.000 C 
ATOM     17  C   UNL     1       7.451   7.007  17.282  0.00  0.00    +0.000 C 
ATOM     18  C   UNL     1       7.585   5.988  18.406  0.00  0.00    +0.000 C 
ATOM     19  C   UNL     1       7.281   4.587  17.898  0.00  0.00    +0.000 C 
ENDBRANCH   8  14
ENDBRANCH   1  11
BRANCH   3  20
ATOM     20  C   UNL     1       0.724   9.217  21.667  0.00  0.00    +0.000 A 
ATOM     21  C   UNL     1      -0.200   9.076  22.693  0.00  0.00    +0.000 A 
ATOM     22  C   UNL     1      -0.884  10.186  23.165  0.00  0.00    +0.000 A 
ATOM     23  C   UNL     1      -0.617  11.428  22.603  0.00  0.00    +0.000 A 
ATOM     24  N   UNL     1       0.323  11.627  21.636  0.00  0.00    +0.000 NA
ATOM     25  C   UNL     1       0.973  10.515  21.203  0.00  0.00    +0.000 A 
BRANCH  23  26
ATOM     26  C   UNL     1      -1.403  12.613  23.069  0.00  0.00    +0.000 C 
ATOM     27  O   UNL     1      -0.843  13.556  23.624  0.00  0.00    +0.000 OA
ATOM     28  N   UNL     1      -2.760  12.574  22.836  0.00  0.00    +0.000 N 
ATOM     29  H   UNL     1      -3.163  11.721  22.450  0.00  0.00    +0.000 HD
BRANCH  28  30
ATOM     30  C   UNL     1      -3.639  13.636  23.278  0.00  0.00    +0.000 C 
BRANCH  30  31
ATOM     31  C   UNL     1      -4.940  13.699  22.457  0.00  0.00    +0.000 C 
BRANCH  31  32
ATOM     32  N   UNL     1      -5.839  12.535  22.628  0.00  0.00    +0.000 NA
ATOM     33  C   UNL     1      -6.763  12.721  23.750  0.00  0.00    +0.000 C 
ATOM     34  C   UNL     1      -6.606  12.320  21.396  0.00  0.00    +0.000 C 
ENDBRANCH  31  32
ENDBRANCH  30  31
ENDBRANCH  28  30
ENDBRANCH  23  26
ENDBRANCH   3  20
TORSDOF 7
ENDMDL
MODEL 9
REMARK VINA RESULT:      -8.2      1.434      1.851
REMARK  Name = 
REMARK  10 active torsions:
REMARK  status: ('A' for Active; 'I' for Inactive)
REMARK    1  A    between atoms: C_1  and  C_2
REMARK    2  A    between atoms: N_4  and  C_5
REMARK    3  A    between atoms: C_13  and  C_14
REMARK    4  A    between atoms: N_16  and  C_17
REMARK    5  A    between atoms: C_20  and  C_21
REMARK    6  A    between atoms: N_23  and  C_24
REMARK    7  A    between atoms: C_24  and  C_25
REMARK    8  A    between atoms: C_25  and  N_26
REMARK    9  A    between atoms: N_26  and  C_27
REMARK   10  A    between atoms: N_26  and  C_28
REMARK                            x       y       z     vdW  Elec       q    Type
REMARK                         _______ _______ _______ _____ _____    ______ ____
ROOT
ATOM      1  C   UNL     1       2.093   8.799  18.176  0.00  0.00    +0.000 C 
ATOM      2  O   UNL     1       2.184   9.668  17.312  0.00  0.00    +0.000 OA
ATOM      3  N   UNL     1       1.324   8.915  19.332  0.00  0.00    +0.000 N 
ATOM      4  H   UNL     1       1.450   8.183  20.018  0.00  0.00    +0.000 HD
ENDROOT
BRANCH   1  11
ATOM      5  C   UNL     1       6.773   5.391  16.622  0.00  0.00    +0.000 C 
ATOM      6  C   UNL     1       5.495   5.129  17.326  0.00  0.00    +0.000 A 
ATOM      7  N   UNL     1       5.237   3.901  17.851  0.00  0.00    +0.000 NA
ATOM      8  N   UNL     1       4.016   4.037  18.453  0.00  0.00    +0.000 N 
ATOM      9  C   UNL     1       3.517   5.275  18.265  0.00  0.00    +0.000 A 
ATOM     10  S   UNL     1       2.179   6.102  18.756  0.00  0.00    +0.000 S 
ATOM     11  C   UNL     1       2.839   7.556  18.065  0.00  0.00    +0.000 A 
ATOM     12  C   UNL     1       4.092   7.332  17.464  0.00  0.00    +0.000 A 
ATOM     13  C   UNL     1       4.434   5.990  17.612  0.00  0.00    +0.000 A 
BRANCH   8  14
ATOM     14  C   UNL     1       3.482   3.106  19.439  0.00  0.00    +0.000 C 
ATOM     15  C   UNL     1       2.889   3.735  20.698  0.00  0.00    +0.000 C 
ATOM     16  C   UNL     1       1.406   4.065  20.598  0.00  0.00    +0.000 C 
ATOM     17  C   UNL     1       0.598   2.913  20.010  0.00  0.00    +0.000 C 
ATOM     18  C   UNL     1       1.140   2.486  18.653  0.00  0.00    +0.000 C 
ATOM     19  C   UNL     1       2.592   2.049  18.769  0.00  0.00    +0.000 C 
ENDBRANCH   8  14
ENDBRANCH   1  11
BRANCH   3  20
ATOM     20  C   UNL     1       0.504  10.004  19.688  0.00  0.00    +0.000 A 
ATOM     21  C   UNL     1       0.798  10.847  20.750  0.00  0.00    +0.000 A 
ATOM     22  C   UNL     1      -0.087  11.859  21.096  0.00  0.00    +0.000 A 
ATOM     23  C   UNL     1      -1.251  12.013  20.354  0.00  0.00    +0.000 A 
ATOM     24  N   UNL     1      -1.556  11.250  19.267  0.00  0.00    +0.000 NA
ATOM     25  C   UNL     1      -0.663  10.273  18.960  0.00  0.00    +0.000 A 
BRANCH  23  26
ATOM     26  C   UNL     1      -2.234  13.062  20.770  0.00  0.00    +0.000 C 
ATOM     27  O   UNL     1      -1.877  14.231  20.914  0.00  0.00    +0.000 OA
ATOM     28  N   UNL     1      -3.529  12.640  20.970  0.00  0.00    +0.000 N 
ATOM     29  H   UNL     1      -3.729  11.643  20.917  0.00  0.00    +0.000 HD
BRANCH  28  30
ATOM     30  C   UNL     1      -4.566  13.546  21.418  0.00  0.00    +0.000 C 
BRANCH  30  31
ATOM     31  C   UNL     1      -5.483  12.911  22.477  0.00  0.00    +0.000 C 
BRANCH  31  32
ATOM     32  N   UNL     1      -5.249  13.379  23.863  0.00  0.00    +0.000 NA
ATOM     33  C   UNL     1      -4.241  12.566  24.549  0.00  0.00    +0.000 C 
ATOM     34  C   UNL     1      -4.814  14.779  23.842  0.00  0.00    +0.000 C 
ENDBRANCH  31  32
ENDBRANCH  30  31
ENDBRANCH  28  30
ENDBRANCH  23  26
ENDBRANCH   3  20
TORSDOF 7
ENDMDL
