MODEL 1
REMARK VINA RESULT:      -7.5      0.000      0.000
REMARK  Name = 
REMARK  4 active torsions:
REMARK  status: ('A' for Active; 'I' for Inactive)
REMARK    1  A    between atoms: C_1  and  N_2
REMARK    2  A    between atoms: C_5  and  N_6
REMARK    3  A    between atoms: C_8  and  S_9
REMARK    4  A    between atoms: S_9  and  C_12
REMARK                            x       y       z     vdW  Elec       q    Type
REMARK                         _______ _______ _______ _____ _____    ______ ____
ROOT
ATOM      1  N   UNL     1       5.653   4.623  15.773  0.00  0.00    +0.000 N 
ATOM      2  C   UNL     1       4.841   3.682  16.365  0.00  0.00    +0.000 A 
ATOM      3  C   UNL     1       5.054   3.733  17.733  0.00  0.00    +0.000 A 
ATOM      4  C   UNL     1       6.017   4.744  17.986  0.00  0.00    +0.000 A 
ATOM      5  C   UNL     1       6.646   5.287  19.122  0.00  0.00    +0.000 A 
ATOM      6  C   UNL     1       7.558   6.323  18.937  0.00  0.00    +0.000 A 
ATOM      7  C   UNL     1       7.806   6.771  17.650  0.00  0.00    +0.000 A 
ATOM      8  N   UNL     1       7.239   6.287  16.525  0.00  0.00    +0.000 NA
ATOM      9  C   UNL     1       6.361   5.287  16.748  0.00  0.00    +0.000 A 
ENDROOT
BRANCH   1  14
ATOM     10  C   UNL     1       5.450   2.465  11.546  0.00  0.00    +0.000 C 
ATOM     11  N   UNL     1       5.769   3.687  12.274  0.00  0.00    +0.000 NA
ATOM     12  C   UNL     1       7.159   3.693  12.746  0.00  0.00    +0.000 C 
ATOM     13  C   UNL     1       7.172   4.822  13.767  0.00  0.00    +0.000 C 
ATOM     14  C   UNL     1       5.747   4.844  14.339  0.00  0.00    +0.000 C 
ATOM     15  C   UNL     1       4.968   3.821  13.499  0.00  0.00    +0.000 C 
ENDBRANCH   1  14
BRANCH   3  16
ATOM     16  S   UNL     1       4.273   2.746  18.916  0.00  0.00    +0.000 S 
ATOM     17  O   UNL     1       3.701   1.634  18.181  0.00  0.00    +0.000 OA
ATOM     18  O   UNL     1       5.262   2.549  19.956  0.00  0.00    +0.000 OA
BRANCH  16  19
ATOM     19  C   UNL     1       2.951   3.727  19.574  0.00  0.00    +0.000 A 
ATOM     20  C   UNL     1       1.766   3.099  19.978  0.00  0.00    +0.000 A 
ATOM     21  C   UNL     1       0.703   3.869  20.450  0.00  0.00    +0.000 A 
ATOM     22  C   UNL     1       0.817   5.259  20.498  0.00  0.00    +0.000 A 
ATOM     23  C   UNL     1       1.990   5.878  20.065  0.00  0.00    +0.000 A 
ATOM     24 CL   UNL     1       2.106   7.595  20.092  0.00  0.00    +0.000 Cl
ATOM     25  C   UNL     1       3.062   5.120  19.598  0.00  0.00    +0.000 A 
ENDBRANCH  16  19
ENDBRANCH   3  16
TORSDOF 3
ENDMDL
MODEL 2
REMARK VINA RESULT:      -7.4      3.433      6.779
REMARK  Name = 
REMARK  4 active torsions:
REMARK  status: ('A' for Active; 'I' for Inactive)
REMARK    1  A    between atoms: C_1  and  N_2
REMARK    2  A    between atoms: C_5  and  N_6
REMARK    3  A    between atoms: C_8  and  S_9
REMARK    4  A    between atoms: S_9  and  C_12
REMARK                            x       y       z     vdW  Elec       q    Type
REMARK                         _______ _______ _______ _____ _____    ______ ____
ROOT
ATOM      1  N   UNL     1       3.655   4.232  17.731  0.00  0.00    +0.000 N 
ATOM      2  C   UNL     1       4.924   3.919  17.299  0.00  0.00    +0.000 A 
ATOM      3  C   UNL     1       5.557   5.097  16.938  0.00  0.00    +0.000 A 
ATOM      4  C   UNL     1       4.650   6.165  17.167  0.00  0.00    +0.000 A 
ATOM      5  C   UNL     1       4.670   7.565  17.020  0.00  0.00    +0.000 A 
ATOM      6  C   UNL     1       3.535   8.281  17.388  0.00  0.00    +0.000 A 
ATOM      7  C   UNL     1       2.440   7.590  17.879  0.00  0.00    +0.000 A 
ATOM      8  N   UNL     1       2.360   6.252  18.037  0.00  0.00    +0.000 NA
ATOM      9  C   UNL     1       3.480   5.596  17.671  0.00  0.00    +0.000 A 
ENDROOT
BRANCH   1  14
ATOM     10  C   UNL     1       1.350   2.511  21.511  0.00  0.00    +0.000 C 
ATOM     11  N   UNL     1       1.652   2.352  20.094  0.00  0.00    +0.000 NA
ATOM     12  C   UNL     1       2.876   1.573  19.881  0.00  0.00    +0.000 C 
ATOM     13  C   UNL     1       3.208   1.845  18.420  0.00  0.00    +0.000 C 
ATOM     14  C   UNL     1       2.665   3.256  18.154  0.00  0.00    +0.000 C 
ATOM     15  C   UNL     1       1.921   3.642  19.442  0.00  0.00    +0.000 C 
ENDBRANCH   1  14
BRANCH   3  16
ATOM     16  S   UNL     1       7.167   5.236  16.329  0.00  0.00    +0.000 S 
ATOM     17  O   UNL     1       7.522   6.634  16.481  0.00  0.00    +0.000 OA
ATOM     18  O   UNL     1       7.911   4.181  16.983  0.00  0.00    +0.000 OA
BRANCH  16  19
ATOM     19  C   UNL     1       7.066   4.866  14.598  0.00  0.00    +0.000 A 
ATOM     20  C   UNL     1       7.982   5.452  13.717  0.00  0.00    +0.000 A 
ATOM     21  C   UNL     1       7.879   5.205  12.347  0.00  0.00    +0.000 A 
ATOM     22  C   UNL     1       6.854   4.392  11.862  0.00  0.00    +0.000 A 
ATOM     23  C   UNL     1       5.928   3.836  12.745  0.00  0.00    +0.000 A 
ATOM     24 CL   UNL     1       4.645   2.866  12.132  0.00  0.00    +0.000 Cl
ATOM     25  C   UNL     1       6.024   4.070  14.116  0.00  0.00    +0.000 A 
ENDBRANCH  16  19
ENDBRANCH   3  16
TORSDOF 3
ENDMDL
MODEL 3
REMARK VINA RESULT:      -7.3      3.637      6.896
REMARK  Name = 
REMARK  4 active torsions:
REMARK  status: ('A' for Active; 'I' for Inactive)
REMARK    1  A    between atoms: C_1  and  N_2
REMARK    2  A    between atoms: C_5  and  N_6
REMARK    3  A    between atoms: C_8  and  S_9
REMARK    4  A    between atoms: S_9  and  C_12
REMARK                            x       y       z     vdW  Elec       q    Type
REMARK                         _______ _______ _______ _____ _____    ______ ____
ROOT
ATOM      1  N   UNL     1       2.972   6.339  18.899  0.00  0.00    +0.000 N 
ATOM      2  C   UNL     1       4.155   6.668  18.278  0.00  0.00    +0.000 A 
ATOM      3  C   UNL     1       5.016   5.589  18.396  0.00  0.00    +0.000 A 
ATOM      4  C   UNL     1       4.333   4.564  19.102  0.00  0.00    +0.000 A 
ATOM      5  C   UNL     1       4.628   3.257  19.533  0.00  0.00    +0.000 A 
ATOM      6  C   UNL     1       3.638   2.549  20.209  0.00  0.00    +0.000 A 
ATOM      7  C   UNL     1       2.413   3.157  20.428  0.00  0.00    +0.000 A 
ATOM      8  N   UNL     1       2.075   4.406  20.044  0.00  0.00    +0.000 NA
ATOM      9  C   UNL     1       3.060   5.057  19.391  0.00  0.00    +0.000 A 
ENDROOT
BRANCH   1  14
ATOM     10  C   UNL     1       1.601  10.872  18.526  0.00  0.00    +0.000 C 
ATOM     11  N   UNL     1       1.246   9.525  18.954  0.00  0.00    +0.000 NA
ATOM     12  C   UNL     1       1.669   9.262  20.334  0.00  0.00    +0.000 C 
ATOM     13  C   UNL     1       1.559   7.748  20.446  0.00  0.00    +0.000 C 
ATOM     14  C   UNL     1       1.832   7.233  19.026  0.00  0.00    +0.000 C 
ATOM     15  C   UNL     1       1.933   8.497  18.159  0.00  0.00    +0.000 C 
ENDBRANCH   1  14
BRANCH   3  16
ATOM     16  S   UNL     1       6.627   5.507  17.781  0.00  0.00    +0.000 S 
ATOM     17  O   UNL     1       7.112   6.874  17.772  0.00  0.00    +0.000 OA
ATOM     18  O   UNL     1       7.275   4.470  18.555  0.00  0.00    +0.000 OA
BRANCH  16  19
ATOM     19  C   UNL     1       6.481   4.950  16.103  0.00  0.00    +0.000 A 
ATOM     20  C   UNL     1       5.586   3.918  15.799  0.00  0.00    +0.000 A 
ATOM     21  C   UNL     1       5.501   3.441  14.491  0.00  0.00    +0.000 A 
ATOM     22  C   UNL     1       6.321   3.979  13.499  0.00  0.00    +0.000 A 
ATOM     23  C   UNL     1       7.232   4.986  13.817  0.00  0.00    +0.000 A 
ATOM     24 CL   UNL     1       8.266   5.617  12.594  0.00  0.00    +0.000 Cl
ATOM     25  C   UNL     1       7.321   5.477  15.119  0.00  0.00    +0.000 A 
ENDBRANCH  16  19
ENDBRANCH   3  16
TORSDOF 3
ENDMDL
MODEL 4
REMARK VINA RESULT:      -7.2      6.789      9.323
REMARK  Name = 
REMARK  4 active torsions:
REMARK  status: ('A' for Active; 'I' for Inactive)
REMARK    1  A    between atoms: C_1  and  N_2
REMARK    2  A    between atoms: C_5  and  N_6
REMARK    3  A    between atoms: C_8  and  S_9
REMARK    4  A    between atoms: S_9  and  C_12
REMARK                            x       y       z     vdW  Elec       q    Type
REMARK                         _______ _______ _______ _____ _____    ______ ____
ROOT
ATOM      1  N   UNL     1       0.801  12.509  19.548  0.00  0.00    +0.000 N 
ATOM      2  C   UNL     1       1.330  11.613  20.449  0.00  0.00    +0.000 A 
ATOM      3  C   UNL     1       0.561  10.462  20.411  0.00  0.00    +0.000 A 
ATOM      4  C   UNL     1      -0.464  10.656  19.449  0.00  0.00    +0.000 A 
ATOM      5  C   UNL     1      -1.536   9.899  18.939  0.00  0.00    +0.000 A 
ATOM      6  C   UNL     1      -2.331  10.469  17.949  0.00  0.00    +0.000 A 
ATOM      7  C   UNL     1      -2.037  11.750  17.511  0.00  0.00    +0.000 A 
ATOM      8  N   UNL     1      -1.028  12.524  17.965  0.00  0.00    +0.000 NA
ATOM      9  C   UNL     1      -0.281  11.934  18.921  0.00  0.00    +0.000 A 
ENDROOT
BRANCH   1  14
ATOM     10  C   UNL     1       4.565  14.983  18.043  0.00  0.00    +0.000 C 
ATOM     11  N   UNL     1       3.263  15.027  18.696  0.00  0.00    +0.000 NA
ATOM     12  C   UNL     1       3.372  14.818  20.144  0.00  0.00    +0.000 C 
ATOM     13  C   UNL     1       1.937  14.524  20.559  0.00  0.00    +0.000 C 
ATOM     14  C   UNL     1       1.307  13.854  19.330  0.00  0.00    +0.000 C 
ATOM     15  C   UNL     1       2.382  13.944  18.236  0.00  0.00    +0.000 C 
ENDBRANCH   1  14
BRANCH   3  16
ATOM     16  S   UNL     1       0.816   9.042  21.361  0.00  0.00    +0.000 S 
ATOM     17  O   UNL     1       1.752   9.429  22.399  0.00  0.00    +0.000 OA
ATOM     18  O   UNL     1      -0.511   8.551  21.670  0.00  0.00    +0.000 OA
BRANCH  16  19
ATOM     19  C   UNL     1       1.614   7.876  20.289  0.00  0.00    +0.000 A 
ATOM     20  C   UNL     1       2.044   8.291  19.024  0.00  0.00    +0.000 A 
ATOM     21  C   UNL     1       2.628   7.367  18.156  0.00  0.00    +0.000 A 
ATOM     22  C   UNL     1       2.762   6.034  18.545  0.00  0.00    +0.000 A 
ATOM     23  C   UNL     1       2.303   5.624  19.797  0.00  0.00    +0.000 A 
ATOM     24 CL   UNL     1       2.438   3.969  20.251  0.00  0.00    +0.000 Cl
ATOM     25  C   UNL     1       1.724   6.538  20.676  0.00  0.00    +0.000 A 
ENDBRANCH  16  19
ENDBRANCH   3  16
TORSDOF 3
ENDMDL
MODEL 5
REMARK VINA RESULT:      -7.1      7.124      9.447
REMARK  Name = 
REMARK  4 active torsions:
REMARK  status: ('A' for Active; 'I' for Inactive)
REMARK    1  A    between atoms: C_1  and  N_2
REMARK    2  A    between atoms: C_5  and  N_6
REMARK    3  A    between atoms: C_8  and  S_9
REMARK    4  A    between atoms: S_9  and  C_12
REMARK                            x       y       z     vdW  Elec       q    Type
REMARK                         _______ _______ _______ _____ _____    ______ ____
ROOT
ATOM      1  N   UNL     1      -1.365  11.576  18.790  0.00  0.00    +0.000 N 
ATOM      2  C   UNL     1      -1.211  10.379  19.452  0.00  0.00    +0.000 A 
ATOM      3  C   UNL     1      -0.017  10.426  20.151  0.00  0.00    +0.000 A 
ATOM      4  C   UNL     1       0.573  11.696  19.919  0.00  0.00    +0.000 A 
ATOM      5  C   UNL     1       1.745  12.363  20.325  0.00  0.00    +0.000 A 
ATOM      6  C   UNL     1       1.954  13.661  19.869  0.00  0.00    +0.000 A 
ATOM      7  C   UNL     1       1.008  14.238  19.038  0.00  0.00    +0.000 A 
ATOM      8  N   UNL     1      -0.129  13.647  18.611  0.00  0.00    +0.000 NA
ATOM      9  C   UNL     1      -0.295  12.392  19.077  0.00  0.00    +0.000 A 
ENDROOT
BRANCH   1  14
ATOM     10  C   UNL     1      -6.018  10.906  18.111  0.00  0.00    +0.000 C 
ATOM     11  N   UNL     1      -4.768  11.410  17.557  0.00  0.00    +0.000 NA
ATOM     12  C   UNL     1      -4.023  10.362  16.850  0.00  0.00    +0.000 C 
ATOM     13  C   UNL     1      -2.636  10.971  16.694  0.00  0.00    +0.000 C 
ATOM     14  C   UNL     1      -2.478  11.894  17.911  0.00  0.00    +0.000 C 
ATOM     15  C   UNL     1      -3.847  11.869  18.607  0.00  0.00    +0.000 C 
ENDBRANCH   1  14
BRANCH   3  16
ATOM     16  S   UNL     1       0.629   9.165  21.138  0.00  0.00    +0.000 S 
ATOM     17  O   UNL     1       1.508   9.822  22.087  0.00  0.00    +0.000 OA
ATOM     18  O   UNL     1      -0.519   8.393  21.565  0.00  0.00    +0.000 OA
BRANCH  16  19
ATOM     19  C   UNL     1       1.616   8.159  20.061  0.00  0.00    +0.000 A 
ATOM     20  C   UNL     1       1.960   8.645  18.794  0.00  0.00    +0.000 A 
ATOM     21  C   UNL     1       2.693   7.841  17.921  0.00  0.00    +0.000 A 
ATOM     22  C   UNL     1       3.062   6.552  18.307  0.00  0.00    +0.000 A 
ATOM     23  C   UNL     1       2.689   6.065  19.559  0.00  0.00    +0.000 A 
ATOM     24 CL   UNL     1       3.116   4.460  20.010  0.00  0.00    +0.000 Cl
ATOM     25  C   UNL     1       1.962   6.861  20.443  0.00  0.00    +0.000 A 
ENDBRANCH  16  19
ENDBRANCH   3  16
TORSDOF 3
ENDMDL
MODEL 6
REMARK VINA RESULT:      -7.1      9.526     12.703
REMARK  Name = 
REMARK  4 active torsions:
REMARK  status: ('A' for Active; 'I' for Inactive)
REMARK    1  A    between atoms: C_1  and  N_2
REMARK    2  A    between atoms: C_5  and  N_6
REMARK    3  A    between atoms: C_8  and  S_9
REMARK    4  A    between atoms: S_9  and  C_12
REMARK                            x       y       z     vdW  Elec       q    Type
REMARK                         _______ _______ _______ _____ _____    ______ ____
ROOT
ATOM      1  N   UNL     1      -4.781  12.531  19.813  0.00  0.00    +0.000 N 
ATOM      2  C   UNL     1      -3.762  12.860  20.677  0.00  0.00    +0.000 A 
ATOM      3  C   UNL     1      -2.563  12.506  20.079  0.00  0.00    +0.000 A 
ATOM      4  C   UNL     1      -2.858  11.954  18.806  0.00  0.00    +0.000 A 
ATOM      5  C   UNL     1      -2.119  11.424  17.731  0.00  0.00    +0.000 A 
ATOM      6  C   UNL     1      -2.815  10.985  16.608  0.00  0.00    +0.000 A 
ATOM      7  C   UNL     1      -4.196  11.085  16.597  0.00  0.00    +0.000 A 
ATOM      8  N   UNL     1      -4.958  11.576  17.597  0.00  0.00    +0.000 NA
ATOM      9  C   UNL     1      -4.246  11.993  18.665  0.00  0.00    +0.000 A 
ENDROOT
BRANCH   1  14
ATOM     10  C   UNL     1      -7.916  13.211  23.316  0.00  0.00    +0.000 C 
ATOM     11  N   UNL     1      -7.716  12.911  21.904  0.00  0.00    +0.000 NA
ATOM     12  C   UNL     1      -7.562  11.471  21.669  0.00  0.00    +0.000 C 
ATOM     13  C   UNL     1      -7.000  11.411  20.255  0.00  0.00    +0.000 C 
ATOM     14  C   UNL     1      -6.195  12.709  20.101  0.00  0.00    +0.000 C 
ATOM     15  C   UNL     1      -6.473  13.500  21.388  0.00  0.00    +0.000 C 
ENDBRANCH   1  14
BRANCH   3  16
ATOM     16  S   UNL     1      -0.991  12.714  20.764  0.00  0.00    +0.000 S 
ATOM     17  O   UNL     1      -0.150  13.179  19.677  0.00  0.00    +0.000 OA
ATOM     18  O   UNL     1      -1.200  13.500  21.961  0.00  0.00    +0.000 OA
BRANCH  16  19
ATOM     19  C   UNL     1      -0.449  11.093  21.240  0.00  0.00    +0.000 A 
ATOM     20  C   UNL     1      -0.759  10.615  22.519  0.00  0.00    +0.000 A 
ATOM     21  C   UNL     1      -0.294   9.362  22.919  0.00  0.00    +0.000 A 
ATOM     22  C   UNL     1       0.492   8.602  22.052  0.00  0.00    +0.000 A 
ATOM     23  C   UNL     1       0.820   9.099  20.791  0.00  0.00    +0.000 A 
ATOM     24 CL   UNL     1       1.822   8.169  19.745  0.00  0.00    +0.000 Cl
ATOM     25  C   UNL     1       0.356  10.347  20.376  0.00  0.00    +0.000 A 
ENDBRANCH  16  19
ENDBRANCH   3  16
TORSDOF 3
ENDMDL
MODEL 7
REMARK VINA RESULT:      -7.0      1.689      2.242
REMARK  Name = 
REMARK  4 active torsions:
REMARK  status: ('A' for Active; 'I' for Inactive)
REMARK    1  A    between atoms: C_1  and  N_2
REMARK    2  A    between atoms: C_5  and  N_6
REMARK    3  A    between atoms: C_8  and  S_9
REMARK    4  A    between atoms: S_9  and  C_12
REMARK                            x       y       z     vdW  Elec       q    Type
REMARK                         _______ _______ _______ _____ _____    ______ ____
ROOT
ATOM      1  N   UNL     1       5.776   4.001  16.030  0.00  0.00    +0.000 N 
ATOM      2  C   UNL     1       4.432   3.787  16.237  0.00  0.00    +0.000 A 
ATOM      3  C   UNL     1       4.128   4.189  17.527  0.00  0.00    +0.000 A 
ATOM      4  C   UNL     1       5.320   4.673  18.124  0.00  0.00    +0.000 A 
ATOM      5  C   UNL     1       5.685   5.215  19.371  0.00  0.00    +0.000 A 
ATOM      6  C   UNL     1       7.011   5.597  19.559  0.00  0.00    +0.000 A 
ATOM      7  C   UNL     1       7.909   5.427  18.519  0.00  0.00    +0.000 A 
ATOM      8  N   UNL     1       7.619   4.908  17.307  0.00  0.00    +0.000 NA
ATOM      9  C   UNL     1       6.326   4.553  17.164  0.00  0.00    +0.000 A 
ENDROOT
BRANCH   1  14
ATOM     10  C   UNL     1       7.745   5.837  12.117  0.00  0.00    +0.000 C 
ATOM     11  N   UNL     1       7.328   4.628  12.816  0.00  0.00    +0.000 NA
ATOM     12  C   UNL     1       5.926   4.294  12.539  0.00  0.00    +0.000 C 
ATOM     13  C   UNL     1       5.594   3.274  13.620  0.00  0.00    +0.000 C 
ATOM     14  C   UNL     1       6.486   3.663  14.807  0.00  0.00    +0.000 C 
ATOM     15  C   UNL     1       7.382   4.792  14.276  0.00  0.00    +0.000 C 
ENDBRANCH   1  14
BRANCH   3  16
ATOM     16  S   UNL     1       2.569   4.120  18.267  0.00  0.00    +0.000 S 
ATOM     17  O   UNL     1       1.628   3.926  17.180  0.00  0.00    +0.000 OA
ATOM     18  O   UNL     1       2.704   3.161  19.344  0.00  0.00    +0.000 OA
BRANCH  16  19
ATOM     19  C   UNL     1       2.293   5.724  18.971  0.00  0.00    +0.000 A 
ATOM     20  C   UNL     1       1.925   5.828  20.318  0.00  0.00    +0.000 A 
ATOM     21  C   UNL     1       1.657   7.083  20.866  0.00  0.00    +0.000 A 
ATOM     22  C   UNL     1       1.738   8.223  20.067  0.00  0.00    +0.000 A 
ATOM     23  C   UNL     1       2.076   8.107  18.718  0.00  0.00    +0.000 A 
ATOM     24 CL   UNL     1       2.136   9.516  17.732  0.00  0.00    +0.000 Cl
ATOM     25  C   UNL     1       2.353   6.860  18.160  0.00  0.00    +0.000 A 
ENDBRANCH  16  19
ENDBRANCH   3  16
TORSDOF 3
ENDMDL
MODEL 8
REMARK VINA RESULT:      -7.0      8.452     11.643
REMARK  Name = 
REMARK  4 active torsions:
REMARK  status: ('A' for Active; 'I' for Inactive)
REMARK    1  A    between atoms: C_1  and  N_2
REMARK    2  A    between atoms: C_5  and  N_6
REMARK    3  A    between atoms: C_8  and  S_9
REMARK    4  A    between atoms: S_9  and  C_12
REMARK                            x       y       z     vdW  Elec       q    Type
REMARK                         _______ _______ _______ _____ _____    ______ ____
ROOT
ATOM      1  N   UNL     1      -2.849  12.652  19.944  0.00  0.00    +0.000 N 
ATOM      2  C   UNL     1      -1.549  12.760  20.382  0.00  0.00    +0.000 A 
ATOM      3  C   UNL     1      -0.772  11.888  19.638  0.00  0.00    +0.000 A 
ATOM      4  C   UNL     1      -1.621  11.234  18.708  0.00  0.00    +0.000 A 
ATOM      5  C   UNL     1      -1.468  10.270  17.694  0.00  0.00    +0.000 A 
ATOM      6  C   UNL     1      -2.595   9.892  16.970  0.00  0.00    +0.000 A 
ATOM      7  C   UNL     1      -3.812  10.476  17.277  0.00  0.00    +0.000 A 
ATOM      8  N   UNL     1      -4.022  11.399  18.240  0.00  0.00    +0.000 NA
ATOM      9  C   UNL     1      -2.906  11.739  18.916  0.00  0.00    +0.000 A 
ENDROOT
BRANCH   1  14
ATOM     10  C   UNL     1      -4.168  15.460  23.541  0.00  0.00    +0.000 C 
ATOM     11  N   UNL     1      -4.598  14.662  22.399  0.00  0.00    +0.000 NA
ATOM     12  C   UNL     1      -4.834  13.262  22.770  0.00  0.00    +0.000 C 
ATOM     13  C   UNL     1      -4.892  12.554  21.423  0.00  0.00    +0.000 C 
ATOM     14  C   UNL     1      -3.973  13.379  20.511  0.00  0.00    +0.000 C 
ATOM     15  C   UNL     1      -3.565  14.595  21.356  0.00  0.00    +0.000 C 
ENDBRANCH   1  14
BRANCH   3  16
ATOM     16  S   UNL     1       0.931  11.652  19.808  0.00  0.00    +0.000 S 
ATOM     17  O   UNL     1       1.510  12.055  18.541  0.00  0.00    +0.000 OA
ATOM     18  O   UNL     1       1.280  12.304  21.052  0.00  0.00    +0.000 OA
BRANCH  16  19
ATOM     19  C   UNL     1       1.163   9.904  20.003  0.00  0.00    +0.000 A 
ATOM     20  C   UNL     1       0.778   9.291  21.201  0.00  0.00    +0.000 A 
ATOM     21  C   UNL     1       1.003   7.926  21.381  0.00  0.00    +0.000 A 
ATOM     22  C   UNL     1       1.626   7.185  20.377  0.00  0.00    +0.000 A 
ATOM     23  C   UNL     1       2.033   7.810  19.199  0.00  0.00    +0.000 A 
ATOM     24 CL   UNL     1       2.835   6.894  17.982  0.00  0.00    +0.000 Cl
ATOM     25  C   UNL     1       1.808   9.172  19.003  0.00  0.00    +0.000 A 
ENDBRANCH  16  19
ENDBRANCH   3  16
TORSDOF 3
ENDMDL
MODEL 9
REMARK VINA RESULT:      -6.9      3.509      7.006
REMARK  Name = 
REMARK  4 active torsions:
REMARK  status: ('A' for Active; 'I' for Inactive)
REMARK    1  A    between atoms: C_1  and  N_2
REMARK    2  A    between atoms: C_5  and  N_6
REMARK    3  A    between atoms: C_8  and  S_9
REMARK    4  A    between atoms: S_9  and  C_12
REMARK                            x       y       z     vdW  Elec       q    Type
REMARK                         _______ _______ _______ _____ _____    ______ ____
ROOT
ATOM      1  N   UNL     1       3.132   6.092  17.766  0.00  0.00    +0.000 N 
ATOM      2  C   UNL     1       4.376   6.534  17.376  0.00  0.00    +0.000 A 
ATOM      3  C   UNL     1       5.176   5.424  17.160  0.00  0.00    +0.000 A 
ATOM      4  C   UNL     1       4.394   4.268  17.414  0.00  0.00    +0.000 A 
ATOM      5  C   UNL     1       4.595   2.875  17.374  0.00  0.00    +0.000 A 
ATOM      6  C   UNL     1       3.523   2.047  17.693  0.00  0.00    +0.000 A 
ATOM      7  C   UNL     1       2.311   2.624  18.035  0.00  0.00    +0.000 A 
ATOM      8  N   UNL     1       2.061   3.949  18.096  0.00  0.00    +0.000 NA
ATOM      9  C   UNL     1       3.123   4.717  17.778  0.00  0.00    +0.000 A 
ENDROOT
BRANCH   1  14
ATOM     10  C   UNL     1       1.885  10.629  18.418  0.00  0.00    +0.000 C 
ATOM     11  N   UNL     1       1.506   9.230  18.567  0.00  0.00    +0.000 NA
ATOM     12  C   UNL     1       1.973   8.671  19.841  0.00  0.00    +0.000 C 
ATOM     13  C   UNL     1       1.821   7.170  19.635  0.00  0.00    +0.000 C 
ATOM     14  C   UNL     1       2.025   6.963  18.128  0.00  0.00    +0.000 C 
ATOM     15  C   UNL     1       2.131   8.380  17.544  0.00  0.00    +0.000 C 
ENDBRANCH   1  14
BRANCH   3  16
ATOM     16  S   UNL     1       6.829   5.450  16.658  0.00  0.00    +0.000 S 
ATOM     17  O   UNL     1       7.243   6.837  16.751  0.00  0.00    +0.000 OA
ATOM     18  O   UNL     1       7.473   4.404  17.425  0.00  0.00    +0.000 OA
BRANCH  16  19
ATOM     19  C   UNL     1       6.826   4.976  14.949  0.00  0.00    +0.000 A 
ATOM     20  C   UNL     1       7.894   5.359  14.129  0.00  0.00    +0.000 A 
ATOM     21  C   UNL     1       7.876   5.033  12.773  0.00  0.00    +0.000 A 
ATOM     22  C   UNL     1       6.787   4.345  12.237  0.00  0.00    +0.000 A 
ATOM     23  C   UNL     1       5.713   3.993  13.055  0.00  0.00    +0.000 A 
ATOM     24 CL   UNL     1       4.358   3.178  12.377  0.00  0.00    +0.000 Cl
ATOM     25  C   UNL     1       5.722   4.307  14.414  0.00  0.00    +0.000 A 
ENDBRANCH  16  19
ENDBRANCH   3  16
TORSDOF 3
ENDMDL
