MODEL 1
REMARK VINA RESULT:      -7.4      0.000      0.000
REMARK  Name = 
REMARK  6 active torsions:
REMARK  status: ('A' for Active; 'I' for Inactive)
REMARK    1  A    between atoms: C_2  and  C_3
REMARK    2  A    between atoms: C_3  and  C_4
REMARK    3  A    between atoms: C_4  and  C_5
REMARK    4  A    between atoms: C_5  and  C_6
REMARK    5  A    between atoms: N_12  and  C_13
REMARK    6  A    between atoms: C_18  and  N_19
REMARK                            x       y       z     vdW  Elec       q    Type
REMARK                         _______ _______ _______ _____ _____    ______ ____
ROOT
ATOM      1  O   UNL     1       5.305   5.536  19.317  0.00  0.00    +0.000 OA
ATOM      2  C   UNL     1       5.553   4.469  18.766  0.00  0.00    +0.000 C 
ATOM      3  N   UNL     1       4.825   3.301  18.933  0.00  0.00    +0.000 N 
ATOM      4  H   UNL     1       5.284   2.428  18.668  0.00  0.00    +0.000 HD
ENDROOT
BRANCH   3   5
ATOM      5  C   UNL     1       3.585   3.176  19.630  0.00  0.00    +0.000 A 
ATOM      6  C   UNL     1       3.554   2.635  20.927  0.00  0.00    +0.000 A 
ATOM      7  C   UNL     1       2.369   2.549  21.663  0.00  0.00    +0.000 A 
ATOM      8  C   UNL     1       1.178   3.020  21.131  0.00  0.00    +0.000 A 
ATOM      9  C   UNL     1       1.168   3.560  19.846  0.00  0.00    +0.000 A 
ATOM     10  C   UNL     1       2.360   3.634  19.094  0.00  0.00    +0.000 A 
BRANCH  10  11
ATOM     11  N   UNL     1       2.258   4.166  17.726  0.00  0.00    +0.000 N 
ATOM     12  O   UNL     1       2.365   3.373  16.779  0.00  0.00    +0.000 OA
ATOM     13  O   UNL     1       2.073   5.386  17.587  0.00  0.00    +0.000 OA
ENDBRANCH  10  11
ENDBRANCH   3   5
BRANCH   2  14
ATOM     14  C   UNL     1       6.702   4.346  17.775  0.00  0.00    +0.000 C 
BRANCH  14  15
ATOM     15  C   UNL     1       6.596   5.438  16.706  0.00  0.00    +0.000 C 
BRANCH  15  16
ATOM     16  C   UNL     1       5.458   5.198  15.714  0.00  0.00    +0.000 C 
BRANCH  16  17
ATOM     17  C   UNL     1       5.994   4.748  14.374  0.00  0.00    +0.000 A 
ATOM     18  C   UNL     1       5.309   3.787  13.620  0.00  0.00    +0.000 A 
ATOM     19  C   UNL     1       5.826   3.341  12.400  0.00  0.00    +0.000 A 
ATOM     20  C   UNL     1       7.033   3.850  11.925  0.00  0.00    +0.000 A 
ATOM     21  C   UNL     1       7.724   4.805  12.667  0.00  0.00    +0.000 A 
ATOM     22  C   UNL     1       7.209   5.251  13.887  0.00  0.00    +0.000 A 
ENDBRANCH  16  17
ENDBRANCH  15  16
ENDBRANCH  14  15
ENDBRANCH   2  14
TORSDOF 6
ENDMDL
MODEL 2
REMARK VINA RESULT:      -7.3      1.568      2.269
REMARK  Name = 
REMARK  6 active torsions:
REMARK  status: ('A' for Active; 'I' for Inactive)
REMARK    1  A    between atoms: C_2  and  C_3
REMARK    2  A    between atoms: C_3  and  C_4
REMARK    3  A    between atoms: C_4  and  C_5
REMARK    4  A    between atoms: C_5  and  C_6
REMARK    5  A    between atoms: N_12  and  C_13
REMARK    6  A    between atoms: C_18  and  N_19
REMARK                            x       y       z     vdW  Elec       q    Type
REMARK                         _______ _______ _______ _____ _____    ______ ____
ROOT
ATOM      1  O   UNL     1       4.411   5.565  17.374  0.00  0.00    +0.000 OA
ATOM      2  C   UNL     1       5.177   5.261  18.283  0.00  0.00    +0.000 C 
ATOM      3  N   UNL     1       4.789   4.734  19.505  0.00  0.00    +0.000 N 
ATOM      4  H   UNL     1       5.462   4.796  20.270  0.00  0.00    +0.000 HD
ENDROOT
BRANCH   3   5
ATOM      5  C   UNL     1       3.474   4.302  19.854  0.00  0.00    +0.000 A 
ATOM      6  C   UNL     1       2.500   5.240  20.236  0.00  0.00    +0.000 A 
ATOM      7  C   UNL     1       1.186   4.865  20.530  0.00  0.00    +0.000 A 
ATOM      8  C   UNL     1       0.800   3.536  20.434  0.00  0.00    +0.000 A 
ATOM      9  C   UNL     1       1.738   2.575  20.061  0.00  0.00    +0.000 A 
ATOM     10  C   UNL     1       3.070   2.949  19.779  0.00  0.00    +0.000 A 
BRANCH  10  11
ATOM     11  N   UNL     1       4.013   1.871  19.446  0.00  0.00    +0.000 N 
ATOM     12  O   UNL     1       3.770   1.162  18.458  0.00  0.00    +0.000 OA
ATOM     13  O   UNL     1       5.007   1.719  20.175  0.00  0.00    +0.000 OA
ENDBRANCH  10  11
ENDBRANCH   3   5
BRANCH   2  14
ATOM     14  C   UNL     1       6.684   5.401  18.118  0.00  0.00    +0.000 C 
BRANCH  14  15
ATOM     15  C   UNL     1       7.145   4.685  16.845  0.00  0.00    +0.000 C 
BRANCH  15  16
ATOM     16  C   UNL     1       7.202   5.606  15.626  0.00  0.00    +0.000 C 
BRANCH  16  17
ATOM     17  C   UNL     1       6.857   4.853  14.362  0.00  0.00    +0.000 A 
ATOM     18  C   UNL     1       7.674   4.953  13.228  0.00  0.00    +0.000 A 
ATOM     19  C   UNL     1       7.334   4.289  12.047  0.00  0.00    +0.000 A 
ATOM     20  C   UNL     1       6.172   3.522  11.986  0.00  0.00    +0.000 A 
ATOM     21  C   UNL     1       5.350   3.418  13.106  0.00  0.00    +0.000 A 
ATOM     22  C   UNL     1       5.689   4.081  14.287  0.00  0.00    +0.000 A 
ENDBRANCH  16  17
ENDBRANCH  15  16
ENDBRANCH  14  15
ENDBRANCH   2  14
TORSDOF 6
ENDMDL
MODEL 3
REMARK VINA RESULT:      -7.3      5.727      7.734
REMARK  Name = 
REMARK  6 active torsions:
REMARK  status: ('A' for Active; 'I' for Inactive)
REMARK    1  A    between atoms: C_2  and  C_3
REMARK    2  A    between atoms: C_3  and  C_4
REMARK    3  A    between atoms: C_4  and  C_5
REMARK    4  A    between atoms: C_5  and  C_6
REMARK    5  A    between atoms: N_12  and  C_13
REMARK    6  A    between atoms: C_18  and  N_19
REMARK                            x       y       z     vdW  Elec       q    Type
REMARK                         _______ _______ _______ _____ _____    ______ ____
ROOT
ATOM      1  O   UNL     1       8.064   6.999  18.595  0.00  0.00    +0.000 OA
ATOM      2  C   UNL     1       7.587   7.773  17.772  0.00  0.00    +0.000 C 
ATOM      3  N   UNL     1       6.474   7.512  16.987  0.00  0.00    +0.000 N 
ATOM      4  H   UNL     1       6.351   8.089  16.154  0.00  0.00    +0.000 HD
ENDROOT
BRANCH   3   5
ATOM      5  C   UNL     1       5.604   6.388  17.112  0.00  0.00    +0.000 A 
ATOM      6  C   UNL     1       4.320   6.546  17.662  0.00  0.00    +0.000 A 
ATOM      7  C   UNL     1       3.417   5.482  17.749  0.00  0.00    +0.000 A 
ATOM      8  C   UNL     1       3.766   4.228  17.271  0.00  0.00    +0.000 A 
ATOM      9  C   UNL     1       5.031   4.031  16.721  0.00  0.00    +0.000 A 
ATOM     10  C   UNL     1       5.951   5.099  16.646  0.00  0.00    +0.000 A 
BRANCH  10  11
ATOM     11  N   UNL     1       7.285   4.798  16.105  0.00  0.00    +0.000 N 
ATOM     12  O   UNL     1       7.554   5.190  14.959  0.00  0.00    +0.000 OA
ATOM     13  O   UNL     1       8.076   4.163  16.820  0.00  0.00    +0.000 OA
ENDBRANCH  10  11
ENDBRANCH   3   5
BRANCH   2  14
ATOM     14  C   UNL     1       8.176   9.163  17.569  0.00  0.00    +0.000 C 
BRANCH  14  15
ATOM     15  C   UNL     1       8.897   9.621  18.841  0.00  0.00    +0.000 C 
BRANCH  15  16
ATOM     16  C   UNL     1       9.846  10.795  18.603  0.00  0.00    +0.000 C 
BRANCH  16  17
ATOM     17  C   UNL     1       9.570  11.919  19.575  0.00  0.00    +0.000 A 
ATOM     18  C   UNL     1       9.855  11.768  20.939  0.00  0.00    +0.000 A 
ATOM     19  C   UNL     1       9.561  12.792  21.843  0.00  0.00    +0.000 A 
ATOM     20  C   UNL     1       8.979  13.975  21.394  0.00  0.00    +0.000 A 
ATOM     21  C   UNL     1       8.688  14.136  20.041  0.00  0.00    +0.000 A 
ATOM     22  C   UNL     1       8.980  13.113  19.136  0.00  0.00    +0.000 A 
ENDBRANCH  16  17
ENDBRANCH  15  16
ENDBRANCH  14  15
ENDBRANCH   2  14
TORSDOF 6
ENDMDL
MODEL 4
REMARK VINA RESULT:      -7.3      5.371      6.972
REMARK  Name = 
REMARK  6 active torsions:
REMARK  status: ('A' for Active; 'I' for Inactive)
REMARK    1  A    between atoms: C_2  and  C_3
REMARK    2  A    between atoms: C_3  and  C_4
REMARK    3  A    between atoms: C_4  and  C_5
REMARK    4  A    between atoms: C_5  and  C_6
REMARK    5  A    between atoms: N_12  and  C_13
REMARK    6  A    between atoms: C_18  and  N_19
REMARK                            x       y       z     vdW  Elec       q    Type
REMARK                         _______ _______ _______ _____ _____    ______ ____
ROOT
ATOM      1  O   UNL     1       6.829   7.814  16.720  0.00  0.00    +0.000 OA
ATOM      2  C   UNL     1       7.226   7.422  17.813  0.00  0.00    +0.000 C 
ATOM      3  N   UNL     1       6.675   6.368  18.526  0.00  0.00    +0.000 N 
ATOM      4  H   UNL     1       6.888   6.324  19.524  0.00  0.00    +0.000 HD
ENDROOT
BRANCH   3   5
ATOM      5  C   UNL     1       5.678   5.463  18.052  0.00  0.00    +0.000 A 
ATOM      6  C   UNL     1       4.384   5.486  18.600  0.00  0.00    +0.000 A 
ATOM      7  C   UNL     1       3.365   4.656  18.124  0.00  0.00    +0.000 A 
ATOM      8  C   UNL     1       3.605   3.787  17.070  0.00  0.00    +0.000 A 
ATOM      9  C   UNL     1       4.877   3.733  16.502  0.00  0.00    +0.000 A 
ATOM     10  C   UNL     1       5.912   4.558  16.991  0.00  0.00    +0.000 A 
BRANCH  10  11
ATOM     11  N   UNL     1       7.240   4.404  16.377  0.00  0.00    +0.000 N 
ATOM     12  O   UNL     1       8.196   4.111  17.111  0.00  0.00    +0.000 OA
ATOM     13  O   UNL     1       7.340   4.578  15.152  0.00  0.00    +0.000 OA
ENDBRANCH  10  11
ENDBRANCH   3   5
BRANCH   2  14
ATOM     14  C   UNL     1       8.436   8.058  18.483  0.00  0.00    +0.000 C 
BRANCH  14  15
ATOM     15  C   UNL     1       8.485   9.557  18.169  0.00  0.00    +0.000 C 
BRANCH  15  16
ATOM     16  C   UNL     1       9.287  10.359  19.194  0.00  0.00    +0.000 C 
BRANCH  16  17
ATOM     17  C   UNL     1       9.789  11.653  18.596  0.00  0.00    +0.000 A 
ATOM     18  C   UNL     1       9.127  12.860  18.855  0.00  0.00    +0.000 A 
ATOM     19  C   UNL     1       9.567  14.050  18.269  0.00  0.00    +0.000 A 
ATOM     20  C   UNL     1      10.670  14.044  17.418  0.00  0.00    +0.000 A 
ATOM     21  C   UNL     1      11.334  12.849  17.151  0.00  0.00    +0.000 A 
ATOM     22  C   UNL     1      10.895  11.659  17.735  0.00  0.00    +0.000 A 
ENDBRANCH  16  17
ENDBRANCH  15  16
ENDBRANCH  14  15
ENDBRANCH   2  14
TORSDOF 6
ENDMDL
MODEL 5
REMARK VINA RESULT:      -7.2      2.945      5.922
REMARK  Name = 
REMARK  6 active torsions:
REMARK  status: ('A' for Active; 'I' for Inactive)
REMARK    1  A    between atoms: C_2  and  C_3
REMARK    2  A    between atoms: C_3  and  C_4
REMARK    3  A    between atoms: C_4  and  C_5
REMARK    4  A    between atoms: C_5  and  C_6
REMARK    5  A    between atoms: N_12  and  C_13
REMARK    6  A    between atoms: C_18  and  N_19
REMARK                            x       y       z     vdW  Elec       q    Type
REMARK                         _______ _______ _______ _____ _____    ______ ____
ROOT
ATOM      1  O   UNL     1       4.685   3.034  20.112  0.00  0.00    +0.000 OA
ATOM      2  C   UNL     1       4.453   2.887  18.916  0.00  0.00    +0.000 C 
ATOM      3  N   UNL     1       4.935   3.707  17.907  0.00  0.00    +0.000 N 
ATOM      4  H   UNL     1       4.451   3.669  17.009  0.00  0.00    +0.000 HD
ENDROOT
BRANCH   3   5
ATOM      5  C   UNL     1       5.902   4.746  18.059  0.00  0.00    +0.000 A 
ATOM      6  C   UNL     1       6.636   4.860  19.252  0.00  0.00    +0.000 A 
ATOM      7  C   UNL     1       7.631   5.827  19.418  0.00  0.00    +0.000 A 
ATOM      8  C   UNL     1       7.938   6.701  18.385  0.00  0.00    +0.000 A 
ATOM      9  C   UNL     1       7.230   6.621  17.187  0.00  0.00    +0.000 A 
ATOM     10  C   UNL     1       6.214   5.656  17.022  0.00  0.00    +0.000 A 
BRANCH  10  11
ATOM     11  N   UNL     1       5.475   5.671  15.750  0.00  0.00    +0.000 N 
ATOM     12  O   UNL     1       5.251   4.587  15.189  0.00  0.00    +0.000 OA
ATOM     13  O   UNL     1       5.115   6.769  15.297  0.00  0.00    +0.000 OA
ENDBRANCH  10  11
ENDBRANCH   3   5
BRANCH   2  14
ATOM     14  C   UNL     1       3.618   1.716  18.417  0.00  0.00    +0.000 C 
BRANCH  14  15
ATOM     15  C   UNL     1       2.414   2.227  17.620  0.00  0.00    +0.000 C 
BRANCH  15  16
ATOM     16  C   UNL     1       1.311   2.806  18.506  0.00  0.00    +0.000 C 
BRANCH  16  17
ATOM     17  C   UNL     1       1.614   4.239  18.881  0.00  0.00    +0.000 A 
ATOM     18  C   UNL     1       2.027   5.158  17.907  0.00  0.00    +0.000 A 
ATOM     19  C   UNL     1       2.346   6.471  18.260  0.00  0.00    +0.000 A 
ATOM     20  C   UNL     1       2.260   6.878  19.591  0.00  0.00    +0.000 A 
ATOM     21  C   UNL     1       1.854   5.972  20.568  0.00  0.00    +0.000 A 
ATOM     22  C   UNL     1       1.535   4.659  20.216  0.00  0.00    +0.000 A 
ENDBRANCH  16  17
ENDBRANCH  15  16
ENDBRANCH  14  15
ENDBRANCH   2  14
TORSDOF 6
ENDMDL
MODEL 6
REMARK VINA RESULT:      -7.2      1.827      3.919
REMARK  Name = 
REMARK  6 active torsions:
REMARK  status: ('A' for Active; 'I' for Inactive)
REMARK    1  A    between atoms: C_2  and  C_3
REMARK    2  A    between atoms: C_3  and  C_4
REMARK    3  A    between atoms: C_4  and  C_5
REMARK    4  A    between atoms: C_5  and  C_6
REMARK    5  A    between atoms: N_12  and  C_13
REMARK    6  A    between atoms: C_18  and  N_19
REMARK                            x       y       z     vdW  Elec       q    Type
REMARK                         _______ _______ _______ _____ _____    ______ ____
ROOT
ATOM      1  O   UNL     1       3.751   5.389  17.330  0.00  0.00    +0.000 OA
ATOM      2  C   UNL     1       3.857   4.245  16.899  0.00  0.00    +0.000 C 
ATOM      3  N   UNL     1       3.446   3.102  17.568  0.00  0.00    +0.000 N 
ATOM      4  H   UNL     1       3.842   2.215  17.255  0.00  0.00    +0.000 HD
ENDROOT
BRANCH   3   5
ATOM      5  C   UNL     1       2.690   3.064  18.779  0.00  0.00    +0.000 A 
ATOM      6  C   UNL     1       1.301   3.276  18.752  0.00  0.00    +0.000 A 
ATOM      7  C   UNL     1       0.518   3.190  19.907  0.00  0.00    +0.000 A 
ATOM      8  C   UNL     1       1.100   2.871  21.125  0.00  0.00    +0.000 A 
ATOM      9  C   UNL     1       2.475   2.656  21.192  0.00  0.00    +0.000 A 
ATOM     10  C   UNL     1       3.271   2.758  20.031  0.00  0.00    +0.000 A 
BRANCH  10  11
ATOM     11  N   UNL     1       4.721   2.572  20.193  0.00  0.00    +0.000 N 
ATOM     12  O   UNL     1       5.118   1.597  20.849  0.00  0.00    +0.000 OA
ATOM     13  O   UNL     1       5.478   3.405  19.669  0.00  0.00    +0.000 OA
ENDBRANCH  10  11
ENDBRANCH   3   5
BRANCH   2  14
ATOM     14  C   UNL     1       4.430   3.980  15.514  0.00  0.00    +0.000 C 
BRANCH  14  15
ATOM     15  C   UNL     1       5.416   5.088  15.130  0.00  0.00    +0.000 C 
BRANCH  15  16
ATOM     16  C   UNL     1       6.861   4.763  15.507  0.00  0.00    +0.000 C 
BRANCH  16  17
ATOM     17  C   UNL     1       7.285   5.534  16.737  0.00  0.00    +0.000 A 
ATOM     18  C   UNL     1       7.341   6.933  16.716  0.00  0.00    +0.000 A 
ATOM     19  C   UNL     1       7.771   7.643  17.840  0.00  0.00    +0.000 A 
ATOM     20  C   UNL     1       8.153   6.961  18.994  0.00  0.00    +0.000 A 
ATOM     21  C   UNL     1       8.104   5.569  19.026  0.00  0.00    +0.000 A 
ATOM     22  C   UNL     1       7.674   4.858  17.903  0.00  0.00    +0.000 A 
ENDBRANCH  16  17
ENDBRANCH  15  16
ENDBRANCH  14  15
ENDBRANCH   2  14
TORSDOF 6
ENDMDL
MODEL 7
REMARK VINA RESULT:      -7.2      1.176      1.751
REMARK  Name = 
REMARK  6 active torsions:
REMARK  status: ('A' for Active; 'I' for Inactive)
REMARK    1  A    between atoms: C_2  and  C_3
REMARK    2  A    between atoms: C_3  and  C_4
REMARK    3  A    between atoms: C_4  and  C_5
REMARK    4  A    between atoms: C_5  and  C_6
REMARK    5  A    between atoms: N_12  and  C_13
REMARK    6  A    between atoms: C_18  and  N_19
REMARK                            x       y       z     vdW  Elec       q    Type
REMARK                         _______ _______ _______ _____ _____    ______ ____
ROOT
ATOM      1  O   UNL     1       5.977   3.819  19.069  0.00  0.00    +0.000 OA
ATOM      2  C   UNL     1       5.365   4.811  18.686  0.00  0.00    +0.000 C 
ATOM      3  N   UNL     1       4.001   5.011  18.838  0.00  0.00    +0.000 N 
ATOM      4  H   UNL     1       3.567   5.711  18.237  0.00  0.00    +0.000 HD
ENDROOT
BRANCH   3   5
ATOM      5  C   UNL     1       3.113   4.193  19.600  0.00  0.00    +0.000 A 
ATOM      6  C   UNL     1       2.743   4.572  20.902  0.00  0.00    +0.000 A 
ATOM      7  C   UNL     1       1.832   3.829  21.658  0.00  0.00    +0.000 A 
ATOM      8  C   UNL     1       1.246   2.690  21.126  0.00  0.00    +0.000 A 
ATOM      9  C   UNL     1       1.589   2.280  19.839  0.00  0.00    +0.000 A 
ATOM     10  C   UNL     1       2.521   3.019  19.079  0.00  0.00    +0.000 A 
BRANCH  10  11
ATOM     11  N   UNL     1       2.873   2.492  17.751  0.00  0.00    +0.000 N 
ATOM     12  O   UNL     1       2.419   3.069  16.752  0.00  0.00    +0.000 OA
ATOM     13  O   UNL     1       3.604   1.490  17.696  0.00  0.00    +0.000 OA
ENDBRANCH  10  11
ENDBRANCH   3   5
BRANCH   2  14
ATOM     14  C   UNL     1       6.092   5.974  18.025  0.00  0.00    +0.000 C 
BRANCH  14  15
ATOM     15  C   UNL     1       6.616   5.555  16.648  0.00  0.00    +0.000 C 
BRANCH  15  16
ATOM     16  C   UNL     1       5.501   5.228  15.655  0.00  0.00    +0.000 C 
BRANCH  16  17
ATOM     17  C   UNL     1       6.070   4.737  14.344  0.00  0.00    +0.000 A 
ATOM     18  C   UNL     1       7.260   5.276  13.838  0.00  0.00    +0.000 A 
ATOM     19  C   UNL     1       7.765   4.851  12.606  0.00  0.00    +0.000 A 
ATOM     20  C   UNL     1       7.084   3.885  11.868  0.00  0.00    +0.000 A 
ATOM     21  C   UNL     1       5.898   3.343  12.360  0.00  0.00    +0.000 A 
ATOM     22  C   UNL     1       5.392   3.768  13.591  0.00  0.00    +0.000 A 
ENDBRANCH  16  17
ENDBRANCH  15  16
ENDBRANCH  14  15
ENDBRANCH   2  14
TORSDOF 6
ENDMDL
MODEL 8
REMARK VINA RESULT:      -7.1      2.961      6.004
REMARK  Name = 
REMARK  6 active torsions:
REMARK  status: ('A' for Active; 'I' for Inactive)
REMARK    1  A    between atoms: C_2  and  C_3
REMARK    2  A    between atoms: C_3  and  C_4
REMARK    3  A    between atoms: C_4  and  C_5
REMARK    4  A    between atoms: C_5  and  C_6
REMARK    5  A    between atoms: N_12  and  C_13
REMARK    6  A    between atoms: C_18  and  N_19
REMARK                            x       y       z     vdW  Elec       q    Type
REMARK                         _______ _______ _______ _____ _____    ______ ____
ROOT
ATOM      1  O   UNL     1       4.854   2.897  19.948  0.00  0.00    +0.000 OA
ATOM      2  C   UNL     1       4.486   2.906  18.778  0.00  0.00    +0.000 C 
ATOM      3  N   UNL     1       4.871   3.843  17.831  0.00  0.00    +0.000 N 
ATOM      4  H   UNL     1       4.289   3.924  16.997  0.00  0.00    +0.000 HD
ENDROOT
BRANCH   3   5
ATOM      5  C   UNL     1       5.873   4.846  18.001  0.00  0.00    +0.000 A 
ATOM      6  C   UNL     1       6.582   4.939  19.210  0.00  0.00    +0.000 A 
ATOM      7  C   UNL     1       7.609   5.869  19.396  0.00  0.00    +0.000 A 
ATOM      8  C   UNL     1       7.972   6.725  18.367  0.00  0.00    +0.000 A 
ATOM      9  C   UNL     1       7.291   6.665  17.153  0.00  0.00    +0.000 A 
ATOM     10  C   UNL     1       6.243   5.738  16.968  0.00  0.00    +0.000 A 
BRANCH  10  11
ATOM     11  N   UNL     1       5.535   5.773  15.678  0.00  0.00    +0.000 N 
ATOM     12  O   UNL     1       5.108   6.865  15.274  0.00  0.00    +0.000 OA
ATOM     13  O   UNL     1       5.396   4.706  15.059  0.00  0.00    +0.000 OA
ENDBRANCH  10  11
ENDBRANCH   3   5
BRANCH   2  14
ATOM     14  C   UNL     1       3.574   1.814  18.234  0.00  0.00    +0.000 C 
BRANCH  14  15
ATOM     15  C   UNL     1       2.208   1.877  18.923  0.00  0.00    +0.000 C 
BRANCH  15  16
ATOM     16  C   UNL     1       1.283   2.939  18.328  0.00  0.00    +0.000 C 
BRANCH  16  17
ATOM     17  C   UNL     1       1.657   4.318  18.821  0.00  0.00    +0.000 A 
ATOM     18  C   UNL     1       1.563   4.638  20.181  0.00  0.00    +0.000 A 
ATOM     19  C   UNL     1       1.869   5.926  20.631  0.00  0.00    +0.000 A 
ATOM     20  C   UNL     1       2.269   6.906  19.724  0.00  0.00    +0.000 A 
ATOM     21  C   UNL     1       2.363   6.600  18.368  0.00  0.00    +0.000 A 
ATOM     22  C   UNL     1       2.057   5.314  17.918  0.00  0.00    +0.000 A 
ENDBRANCH  16  17
ENDBRANCH  15  16
ENDBRANCH  14  15
ENDBRANCH   2  14
TORSDOF 6
ENDMDL
MODEL 9
REMARK VINA RESULT:      -7.1      1.711      2.247
REMARK  Name = 
REMARK  6 active torsions:
REMARK  status: ('A' for Active; 'I' for Inactive)
REMARK    1  A    between atoms: C_2  and  C_3
REMARK    2  A    between atoms: C_3  and  C_4
REMARK    3  A    between atoms: C_4  and  C_5
REMARK    4  A    between atoms: C_5  and  C_6
REMARK    5  A    between atoms: N_12  and  C_13
REMARK    6  A    between atoms: C_18  and  N_19
REMARK                            x       y       z     vdW  Elec       q    Type
REMARK                         _______ _______ _______ _____ _____    ______ ____
ROOT
ATOM      1  O   UNL     1       6.730   5.312  19.862  0.00  0.00    +0.000 OA
ATOM      2  C   UNL     1       6.361   4.851  18.787  0.00  0.00    +0.000 C 
ATOM      3  N   UNL     1       5.061   4.470  18.490  0.00  0.00    +0.000 N 
ATOM      4  H   UNL     1       4.933   3.843  17.695  0.00  0.00    +0.000 HD
ENDROOT
BRANCH   3   5
ATOM      5  C   UNL     1       3.912   4.698  19.306  0.00  0.00    +0.000 A 
ATOM      6  C   UNL     1       3.283   5.954  19.307  0.00  0.00    +0.000 A 
ATOM      7  C   UNL     1       2.124   6.201  20.048  0.00  0.00    +0.000 A 
ATOM      8  C   UNL     1       1.545   5.188  20.800  0.00  0.00    +0.000 A 
ATOM      9  C   UNL     1       2.141   3.929  20.826  0.00  0.00    +0.000 A 
ATOM     10  C   UNL     1       3.321   3.681  20.092  0.00  0.00    +0.000 A 
BRANCH  10  11
ATOM     11  N   UNL     1       3.920   2.343  20.216  0.00  0.00    +0.000 N 
ATOM     12  O   UNL     1       4.228   1.941  21.348  0.00  0.00    +0.000 OA
ATOM     13  O   UNL     1       4.092   1.683  19.179  0.00  0.00    +0.000 OA
ENDBRANCH  10  11
ENDBRANCH   3   5
BRANCH   2  14
ATOM     14  C   UNL     1       7.333   4.694  17.625  0.00  0.00    +0.000 C 
BRANCH  14  15
ATOM     15  C   UNL     1       6.957   5.652  16.491  0.00  0.00    +0.000 C 
BRANCH  15  16
ATOM     16  C   UNL     1       5.755   5.175  15.676  0.00  0.00    +0.000 C 
BRANCH  16  17
ATOM     17  C   UNL     1       6.182   4.711  14.302  0.00  0.00    +0.000 A 
ATOM     18  C   UNL     1       5.400   3.797  13.584  0.00  0.00    +0.000 A 
ATOM     19  C   UNL     1       5.816   3.337  12.332  0.00  0.00    +0.000 A 
ATOM     20  C   UNL     1       7.018   3.784  11.787  0.00  0.00    +0.000 A 
ATOM     21  C   UNL     1       7.806   4.690  12.493  0.00  0.00    +0.000 A 
ATOM     22  C   UNL     1       7.392   5.150  13.745  0.00  0.00    +0.000 A 
ENDBRANCH  16  17
ENDBRANCH  15  16
ENDBRANCH  14  15
ENDBRANCH   2  14
TORSDOF 6
ENDMDL
