MODEL 1
REMARK VINA RESULT:      -4.3      0.000      0.000
REMARK  Name = 
REMARK  5 active torsions:
REMARK  status: ('A' for Active; 'I' for Inactive)
REMARK    1  A    between atoms: C_1  and  O_2
REMARK    2  A    between atoms: O_2  and  C_3
REMARK    3  A    between atoms: C_3  and  C_5
REMARK    4  A    between atoms: C_6  and  C_7
REMARK    5  A    between atoms: C_6  and  N_8
REMARK                            x       y       z     vdW  Elec       q    Type
REMARK                         _______ _______ _______ _____ _____    ______ ____
ROOT
ATOM      1  C   UNL     1       7.467   4.652  17.615  0.00  0.00    +0.000 C 
ATOM      2  C   UNL     1       7.711   5.713  18.409  0.00  0.00    +0.000 C 
ATOM      3  C   UNL     1       7.627   7.158  17.975  0.00  0.00    +0.000 C 
ENDROOT
BRANCH   2   4
ATOM      4  N   UNL     1       8.068   5.544  19.726  0.00  0.00    +0.000 N 
ATOM      5  H   UNL     1       7.697   4.778  20.278  0.00  0.00    +0.000 HD
ATOM      6  H   UNL     1       8.726   6.186  20.157  0.00  0.00    +0.000 HD
ENDBRANCH   2   4
BRANCH   1   7
ATOM      7  C   UNL     1       7.073   4.675  16.187  0.00  0.00    +0.000 C 
ATOM      8  O   UNL     1       7.593   5.328  15.299  0.00  0.00    +0.000 OA
BRANCH   7  10
ATOM      9  C   UNL     1       4.787   4.386  16.498  0.00  0.00    +0.000 C 
ATOM     10  O   UNL     1       6.017   3.834  16.023  0.00  0.00    +0.000 OA
ENDBRANCH   7  10
ENDBRANCH   1   7
TORSDOF 3
ENDMDL
MODEL 2
REMARK VINA RESULT:      -4.2      1.078      1.155
REMARK  Name = 
REMARK  5 active torsions:
REMARK  status: ('A' for Active; 'I' for Inactive)
REMARK    1  A    between atoms: C_1  and  O_2
REMARK    2  A    between atoms: O_2  and  C_3
REMARK    3  A    between atoms: C_3  and  C_5
REMARK    4  A    between atoms: C_6  and  C_7
REMARK    5  A    between atoms: C_6  and  N_8
REMARK                            x       y       z     vdW  Elec       q    Type
REMARK                         _______ _______ _______ _____ _____    ______ ____
ROOT
ATOM      1  C   UNL     1       7.349   4.607  17.116  0.00  0.00    +0.000 C 
ATOM      2  C   UNL     1       7.489   5.591  18.026  0.00  0.00    +0.000 C 
ATOM      3  C   UNL     1       7.470   7.070  17.714  0.00  0.00    +0.000 C 
ENDROOT
BRANCH   2   4
ATOM      4  N   UNL     1       7.665   5.301  19.359  0.00  0.00    +0.000 N 
ATOM      5  H   UNL     1       7.967   6.011  20.016  0.00  0.00    +0.000 HD
ATOM      6  H   UNL     1       7.477   4.364  19.700  0.00  0.00    +0.000 HD
ENDBRANCH   2   4
BRANCH   1   7
ATOM      7  C   UNL     1       7.150   4.761  15.655  0.00  0.00    +0.000 C 
ATOM      8  O   UNL     1       7.784   5.485  14.907  0.00  0.00    +0.000 OA
BRANCH   7  10
ATOM      9  C   UNL     1       5.977   3.868  13.858  0.00  0.00    +0.000 C 
ATOM     10  O   UNL     1       6.127   3.949  15.277  0.00  0.00    +0.000 OA
ENDBRANCH   7  10
ENDBRANCH   1   7
TORSDOF 3
ENDMDL
MODEL 3
REMARK VINA RESULT:      -4.2      3.693      4.674
REMARK  Name = 
REMARK  5 active torsions:
REMARK  status: ('A' for Active; 'I' for Inactive)
REMARK    1  A    between atoms: C_1  and  O_2
REMARK    2  A    between atoms: O_2  and  C_3
REMARK    3  A    between atoms: C_3  and  C_5
REMARK    4  A    between atoms: C_6  and  C_7
REMARK    5  A    between atoms: C_6  and  N_8
REMARK                            x       y       z     vdW  Elec       q    Type
REMARK                         _______ _______ _______ _____ _____    ______ ____
ROOT
ATOM      1  C   UNL     1       6.157   3.916  14.193  0.00  0.00    +0.000 C 
ATOM      2  C   UNL     1       6.505   3.749  12.901  0.00  0.00    +0.000 C 
ATOM      3  C   UNL     1       7.327   4.724  12.091  0.00  0.00    +0.000 C 
ENDROOT
BRANCH   2   4
ATOM      4  N   UNL     1       6.118   2.627  12.205  0.00  0.00    +0.000 N 
ATOM      5  H   UNL     1       5.447   2.683  11.447  0.00  0.00    +0.000 HD
ATOM      6  H   UNL     1       6.520   1.725  12.440  0.00  0.00    +0.000 HD
ENDBRANCH   2   4
BRANCH   1   7
ATOM      7  C   UNL     1       6.498   5.062  15.069  0.00  0.00    +0.000 C 
ATOM      8  O   UNL     1       5.901   6.121  15.148  0.00  0.00    +0.000 OA
BRANCH   7  10
ATOM      9  C   UNL     1       7.341   4.585  17.182  0.00  0.00    +0.000 C 
ATOM     10  O   UNL     1       7.606   4.733  15.786  0.00  0.00    +0.000 OA
ENDBRANCH   7  10
ENDBRANCH   1   7
TORSDOF 3
ENDMDL
MODEL 4
REMARK VINA RESULT:      -4.1      1.477      2.097
REMARK  Name = 
REMARK  5 active torsions:
REMARK  status: ('A' for Active; 'I' for Inactive)
REMARK    1  A    between atoms: C_1  and  O_2
REMARK    2  A    between atoms: O_2  and  C_3
REMARK    3  A    between atoms: C_3  and  C_5
REMARK    4  A    between atoms: C_6  and  C_7
REMARK    5  A    between atoms: C_6  and  N_8
REMARK                            x       y       z     vdW  Elec       q    Type
REMARK                         _______ _______ _______ _____ _____    ______ ____
ROOT
ATOM      1  C   UNL     1       7.660   6.228  17.953  0.00  0.00    +0.000 C 
ATOM      2  C   UNL     1       7.225   5.623  19.076  0.00  0.00    +0.000 C 
ATOM      3  C   UNL     1       5.857   5.003  19.252  0.00  0.00    +0.000 C 
ENDROOT
BRANCH   2   4
ATOM      4  N   UNL     1       8.033   5.523  20.184  0.00  0.00    +0.000 N 
ATOM      5  H   UNL     1       7.674   5.179  21.068  0.00  0.00    +0.000 HD
ATOM      6  H   UNL     1       9.011   5.783  20.120  0.00  0.00    +0.000 HD
ENDBRANCH   2   4
BRANCH   1   7
ATOM      7  C   UNL     1       6.912   6.409  16.687  0.00  0.00    +0.000 C 
ATOM      8  O   UNL     1       5.901   7.070  16.527  0.00  0.00    +0.000 OA
BRANCH   7  10
ATOM      9  C   UNL     1       6.790   4.585  15.252  0.00  0.00    +0.000 C 
ATOM     10  O   UNL     1       7.548   5.705  15.713  0.00  0.00    +0.000 OA
ENDBRANCH   7  10
ENDBRANCH   1   7
TORSDOF 3
ENDMDL
MODEL 5
REMARK VINA RESULT:      -4.0      1.589      2.905
REMARK  Name = 
REMARK  5 active torsions:
REMARK  status: ('A' for Active; 'I' for Inactive)
REMARK    1  A    between atoms: C_1  and  O_2
REMARK    2  A    between atoms: O_2  and  C_3
REMARK    3  A    between atoms: C_3  and  C_5
REMARK    4  A    between atoms: C_6  and  C_7
REMARK    5  A    between atoms: C_6  and  N_8
REMARK                            x       y       z     vdW  Elec       q    Type
REMARK                         _______ _______ _______ _____ _____    ______ ____
ROOT
ATOM      1  C   UNL     1       6.753   4.760  17.576  0.00  0.00    +0.000 C 
ATOM      2  C   UNL     1       5.579   4.188  17.910  0.00  0.00    +0.000 C 
ATOM      3  C   UNL     1       4.346   4.163  17.036  0.00  0.00    +0.000 C 
ENDROOT
BRANCH   2   4
ATOM      4  N   UNL     1       5.420   3.559  19.123  0.00  0.00    +0.000 N 
ATOM      5  H   UNL     1       5.349   2.550  19.187  0.00  0.00    +0.000 HD
ATOM      6  H   UNL     1       5.387   4.109  19.975  0.00  0.00    +0.000 HD
ENDBRANCH   2   4
BRANCH   1   7
ATOM      7  C   UNL     1       7.075   5.467  16.313  0.00  0.00    +0.000 C 
ATOM      8  O   UNL     1       7.512   4.969  15.291  0.00  0.00    +0.000 OA
BRANCH   7  10
ATOM      9  C   UNL     1       7.533   7.374  17.560  0.00  0.00    +0.000 C 
ATOM     10  O   UNL     1       6.799   6.788  16.484  0.00  0.00    +0.000 OA
ENDBRANCH   7  10
ENDBRANCH   1   7
TORSDOF 3
ENDMDL
MODEL 6
REMARK VINA RESULT:      -4.0      4.979      6.124
REMARK  Name = 
REMARK  5 active torsions:
REMARK  status: ('A' for Active; 'I' for Inactive)
REMARK    1  A    between atoms: C_1  and  O_2
REMARK    2  A    between atoms: O_2  and  C_3
REMARK    3  A    between atoms: C_3  and  C_5
REMARK    4  A    between atoms: C_6  and  C_7
REMARK    5  A    between atoms: C_6  and  N_8
REMARK                            x       y       z     vdW  Elec       q    Type
REMARK                         _______ _______ _______ _____ _____    ______ ____
ROOT
ATOM      1  C   UNL     1       1.568   2.392  19.715  0.00  0.00    +0.000 C 
ATOM      2  C   UNL     1       1.758   3.102  20.844  0.00  0.00    +0.000 C 
ATOM      3  C   UNL     1       2.234   4.536  20.897  0.00  0.00    +0.000 C 
ENDROOT
BRANCH   2   4
ATOM      4  N   UNL     1       1.519   2.545  22.079  0.00  0.00    +0.000 N 
ATOM      5  H   UNL     1       1.254   3.118  22.872  0.00  0.00    +0.000 HD
ATOM      6  H   UNL     1       1.595   1.541  22.202  0.00  0.00    +0.000 HD
ENDBRANCH   2   4
BRANCH   1   7
ATOM      7  C   UNL     1       1.779   2.852  18.322  0.00  0.00    +0.000 C 
ATOM      8  O   UNL     1       1.068   3.616  17.693  0.00  0.00    +0.000 OA
BRANCH   7  10
ATOM      9  C   UNL     1       3.930   3.226  17.526  0.00  0.00    +0.000 C 
ATOM     10  O   UNL     1       2.916   2.274  17.851  0.00  0.00    +0.000 OA
ENDBRANCH   7  10
ENDBRANCH   1   7
TORSDOF 3
ENDMDL
MODEL 7
REMARK VINA RESULT:      -4.0      3.823      4.699
REMARK  Name = 
REMARK  5 active torsions:
REMARK  status: ('A' for Active; 'I' for Inactive)
REMARK    1  A    between atoms: C_1  and  O_2
REMARK    2  A    between atoms: O_2  and  C_3
REMARK    3  A    between atoms: C_3  and  C_5
REMARK    4  A    between atoms: C_6  and  C_7
REMARK    5  A    between atoms: C_6  and  N_8
REMARK                            x       y       z     vdW  Elec       q    Type
REMARK                         _______ _______ _______ _____ _____    ______ ____
ROOT
ATOM      1  C   UNL     1       6.135   3.859  14.126  0.00  0.00    +0.000 C 
ATOM      2  C   UNL     1       6.426   3.693  12.821  0.00  0.00    +0.000 C 
ATOM      3  C   UNL     1       7.350   4.581  12.018  0.00  0.00    +0.000 C 
ENDROOT
BRANCH   2   4
ATOM      4  N   UNL     1       5.880   2.656  12.101  0.00  0.00    +0.000 N 
ATOM      5  H   UNL     1       6.233   1.711  12.189  0.00  0.00    +0.000 HD
ATOM      6  H   UNL     1       5.099   2.833  11.478  0.00  0.00    +0.000 HD
ENDBRANCH   2   4
BRANCH   1   7
ATOM      7  C   UNL     1       6.644   4.920  15.028  0.00  0.00    +0.000 C 
ATOM      8  O   UNL     1       7.649   4.870  15.714  0.00  0.00    +0.000 OA
BRANCH   7  10
ATOM      9  C   UNL     1       5.217   6.304  16.232  0.00  0.00    +0.000 C 
ATOM     10  O   UNL     1       5.791   5.977  14.965  0.00  0.00    +0.000 OA
ENDBRANCH   7  10
ENDBRANCH   1   7
TORSDOF 3
ENDMDL
MODEL 8
REMARK VINA RESULT:      -4.0      1.291      1.742
REMARK  Name = 
REMARK  5 active torsions:
REMARK  status: ('A' for Active; 'I' for Inactive)
REMARK    1  A    between atoms: C_1  and  O_2
REMARK    2  A    between atoms: O_2  and  C_3
REMARK    3  A    between atoms: C_3  and  C_5
REMARK    4  A    between atoms: C_6  and  C_7
REMARK    5  A    between atoms: C_6  and  N_8
REMARK                            x       y       z     vdW  Elec       q    Type
REMARK                         _______ _______ _______ _____ _____    ______ ____
ROOT
ATOM      1  C   UNL     1       6.967   5.368  17.775  0.00  0.00    +0.000 C 
ATOM      2  C   UNL     1       7.711   6.097  18.631  0.00  0.00    +0.000 C 
ATOM      3  C   UNL     1       8.155   7.523  18.396  0.00  0.00    +0.000 C 
ENDROOT
BRANCH   2   4
ATOM      4  N   UNL     1       8.133   5.568  19.828  0.00  0.00    +0.000 N 
ATOM      5  H   UNL     1       8.017   4.584  20.039  0.00  0.00    +0.000 HD
ATOM      6  H   UNL     1       8.583   6.167  20.513  0.00  0.00    +0.000 HD
ENDBRANCH   2   4
BRANCH   1   7
ATOM      7  C   UNL     1       6.439   5.798  16.459  0.00  0.00    +0.000 C 
ATOM      8  O   UNL     1       5.343   6.281  16.236  0.00  0.00    +0.000 OA
BRANCH   7  10
ATOM      9  C   UNL     1       6.920   4.768  14.431  0.00  0.00    +0.000 C 
ATOM     10  O   UNL     1       7.395   5.562  15.521  0.00  0.00    +0.000 OA
ENDBRANCH   7  10
ENDBRANCH   1   7
TORSDOF 3
ENDMDL
MODEL 9
REMARK VINA RESULT:      -4.0      1.966      2.518
REMARK  Name = 
REMARK  5 active torsions:
REMARK  status: ('A' for Active; 'I' for Inactive)
REMARK    1  A    between atoms: C_1  and  O_2
REMARK    2  A    between atoms: O_2  and  C_3
REMARK    3  A    between atoms: C_3  and  C_5
REMARK    4  A    between atoms: C_6  and  C_7
REMARK    5  A    between atoms: C_6  and  N_8
REMARK                            x       y       z     vdW  Elec       q    Type
REMARK                         _______ _______ _______ _____ _____    ______ ____
ROOT
ATOM      1  C   UNL     1       7.001   4.253  16.154  0.00  0.00    +0.000 C 
ATOM      2  C   UNL     1       6.115   4.584  17.114  0.00  0.00    +0.000 C 
ATOM      3  C   UNL     1       4.903   5.464  16.910  0.00  0.00    +0.000 C 
ENDROOT
BRANCH   2   4
ATOM      4  N   UNL     1       6.261   4.120  18.401  0.00  0.00    +0.000 N 
ATOM      5  H   UNL     1       5.594   3.473  18.806  0.00  0.00    +0.000 HD
ATOM      6  H   UNL     1       7.057   4.416  18.956  0.00  0.00    +0.000 HD
ENDBRANCH   2   4
BRANCH   1   7
ATOM      7  C   UNL     1       6.975   4.671  14.732  0.00  0.00    +0.000 C 
ATOM      8  O   UNL     1       7.683   5.512  14.207  0.00  0.00    +0.000 OA
BRANCH   7  10
ATOM      9  C   UNL     1       6.354   3.649  12.738  0.00  0.00    +0.000 C 
ATOM     10  O   UNL     1       6.016   3.948  14.094  0.00  0.00    +0.000 OA
ENDBRANCH   7  10
ENDBRANCH   1   7
TORSDOF 3
ENDMDL
