MODEL 1
REMARK VINA RESULT:      -5.6      0.000      0.000
REMARK  Name = 
REMARK  20 active torsions:
REMARK  status: ('A' for Active; 'I' for Inactive)
REMARK    1  A    between atoms: C_1  and  C_2
REMARK    2  A    between atoms: C_2  and  O_3
REMARK    3  A    between atoms: C_2  and  C_4
REMARK    4  A    between atoms: C_4  and  C_5
REMARK    5  A    between atoms: C_5  and  C_6
REMARK    6  A    between atoms: C_6  and  C_7
REMARK    7  A    between atoms: C_8  and  C_9
REMARK    8  A    between atoms: C_9  and  C_10
REMARK    9  A    between atoms: C_10  and  C_11
REMARK   10  A    between atoms: C_11  and  C_12
REMARK   11  A    between atoms: C_12  and  C_13
REMARK   12  A    between atoms: C_13  and  C_14
REMARK   13  A    between atoms: C_14  and  C_15
REMARK   14  A    between atoms: C_15  and  C_16
REMARK   15  A    between atoms: C_16  and  C_17
REMARK   16  A    between atoms: C_17  and  C_18
REMARK   17  A    between atoms: C_18  and  C_19
REMARK   18  A    between atoms: C_19  and  C_20
REMARK   19  A    between atoms: C_20  and  C_21
REMARK   20  A    between atoms: C_21  and  O_23
REMARK                            x       y       z     vdW  Elec       q    Type
REMARK                         _______ _______ _______ _____ _____    ______ ____
ROOT
ATOM      1  C   UNL     1       1.224   4.548  20.444  0.00  0.00    +0.000 C 
ENDROOT
BRANCH   1   2
ATOM      2  C   UNL     1       2.515   5.347  20.556  0.00  0.00    +0.000 C 
BRANCH   2   3
ATOM      3  C   UNL     1       2.620   6.384  19.440  0.00  0.00    +0.000 C 
BRANCH   3   4
ATOM      4  C   UNL     1       1.901   7.697  19.749  0.00  0.00    +0.000 C 
BRANCH   4   6
ATOM      5  C   UNL     1       0.909   9.600  18.440  0.00  0.00    +0.000 C 
ATOM      6  C   UNL     1       1.747   8.559  18.523  0.00  0.00    +0.000 C 
BRANCH   5   7
ATOM      7  C   UNL     1       0.069  10.031  19.598  0.00  0.00    +0.000 C 
BRANCH   7   8
ATOM      8  C   UNL     1      -1.141  10.840  19.171  0.00  0.00    +0.000 C 
BRANCH   8   9
ATOM      9  C   UNL     1      -1.008  12.259  19.716  0.00  0.00    +0.000 C 
BRANCH   9  11
ATOM     10  C   UNL     1       0.929  13.379  18.588  0.00  0.00    +0.000 C 
ATOM     11  C   UNL     1      -0.583  13.235  18.625  0.00  0.00    +0.000 C 
BRANCH  11  12
ATOM     12  O   UNL     1      -1.033  12.775  17.355  0.00  0.00    +0.000 OA
ATOM     13  H   UNL     1      -0.360  12.171  16.999  0.00  0.00    +0.000 HD
ENDBRANCH  11  12
ENDBRANCH   9  11
ENDBRANCH   8   9
ENDBRANCH   7   8
ENDBRANCH   5   7
ENDBRANCH   4   6
ENDBRANCH   3   4
ENDBRANCH   2   3
ENDBRANCH   1   2
BRANCH   1  14
ATOM     14  C   UNL     1       1.405   3.133  20.952  0.00  0.00    +0.000 C 
BRANCH  14  15
ATOM     15  C   UNL     1       1.825   2.239  19.796  0.00  0.00    +0.000 C 
BRANCH  15  16
ATOM     16  C   UNL     1       1.373   2.844  18.481  0.00  0.00    +0.000 C 
BRANCH  16  17
ATOM     17  C   UNL     1       2.452   2.668  17.424  0.00  0.00    +0.000 C 
BRANCH  17  18
ATOM     18  C   UNL     1       3.824   2.889  18.040  0.00  0.00    +0.000 C 
BRANCH  18  19
ATOM     19  C   UNL     1       4.548   4.042  17.354  0.00  0.00    +0.000 C 
BRANCH  19  20
ATOM     20  C   UNL     1       5.597   4.625  18.290  0.00  0.00    +0.000 C 
BRANCH  20  21
ATOM     21  C   UNL     1       6.967   4.709  17.626  0.00  0.00    +0.000 C 
BRANCH  21  22
ATOM     22  C   UNL     1       7.011   5.835  16.628  0.00  0.00    +0.000 C 
ATOM     23  O   UNL     1       6.671   6.989  16.840  0.00  0.00    +0.000 OA
BRANCH  22  24
ATOM     24  O   UNL     1       7.485   5.435  15.420  0.00  0.00    +0.000 OA
ATOM     25  H   UNL     1       7.579   6.176  14.793  0.00  0.00    +0.000 HD
ENDBRANCH  22  24
ENDBRANCH  21  22
ENDBRANCH  20  21
ENDBRANCH  19  20
ENDBRANCH  18  19
ENDBRANCH  17  18
ENDBRANCH  16  17
ENDBRANCH  15  16
ENDBRANCH  14  15
ENDBRANCH   1  14
TORSDOF 19
ENDMDL
MODEL 2
REMARK VINA RESULT:      -5.6      1.517      7.762
REMARK  Name = 
REMARK  20 active torsions:
REMARK  status: ('A' for Active; 'I' for Inactive)
REMARK    1  A    between atoms: C_1  and  C_2
REMARK    2  A    between atoms: C_2  and  O_3
REMARK    3  A    between atoms: C_2  and  C_4
REMARK    4  A    between atoms: C_4  and  C_5
REMARK    5  A    between atoms: C_5  and  C_6
REMARK    6  A    between atoms: C_6  and  C_7
REMARK    7  A    between atoms: C_8  and  C_9
REMARK    8  A    between atoms: C_9  and  C_10
REMARK    9  A    between atoms: C_10  and  C_11
REMARK   10  A    between atoms: C_11  and  C_12
REMARK   11  A    between atoms: C_12  and  C_13
REMARK   12  A    between atoms: C_13  and  C_14
REMARK   13  A    between atoms: C_14  and  C_15
REMARK   14  A    between atoms: C_15  and  C_16
REMARK   15  A    between atoms: C_16  and  C_17
REMARK   16  A    between atoms: C_17  and  C_18
REMARK   17  A    between atoms: C_18  and  C_19
REMARK   18  A    between atoms: C_19  and  C_20
REMARK   19  A    between atoms: C_20  and  C_21
REMARK   20  A    between atoms: C_21  and  O_23
REMARK                            x       y       z     vdW  Elec       q    Type
REMARK                         _______ _______ _______ _____ _____    ______ ____
ROOT
ATOM      1  C   UNL     1       1.154   4.154  19.858  0.00  0.00    +0.000 C 
ENDROOT
BRANCH   1   2
ATOM      2  C   UNL     1       1.524   2.806  20.465  0.00  0.00    +0.000 C 
BRANCH   2   3
ATOM      3  C   UNL     1       2.907   2.854  21.109  0.00  0.00    +0.000 C 
BRANCH   3   4
ATOM      4  C   UNL     1       4.033   2.389  20.184  0.00  0.00    +0.000 C 
BRANCH   4   6
ATOM      5  C   UNL     1       3.691   2.562  17.700  0.00  0.00    +0.000 C 
ATOM      6  C   UNL     1       3.512   1.909  18.856  0.00  0.00    +0.000 C 
BRANCH   5   7
ATOM      7  C   UNL     1       4.481   3.827  17.624  0.00  0.00    +0.000 C 
BRANCH   7   8
ATOM      8  C   UNL     1       5.266   3.948  16.331  0.00  0.00    +0.000 C 
BRANCH   8   9
ATOM      9  C   UNL     1       5.648   5.410  16.116  0.00  0.00    +0.000 C 
BRANCH   9  11
ATOM     10  C   UNL     1       7.201   6.435  17.793  0.00  0.00    +0.000 C 
ATOM     11  C   UNL     1       7.104   5.664  16.488  0.00  0.00    +0.000 C 
BRANCH  11  12
ATOM     12  O   UNL     1       7.795   4.427  16.631  0.00  0.00    +0.000 OA
ATOM     13  H   UNL     1       7.168   3.772  16.982  0.00  0.00    +0.000 HD
ENDBRANCH  11  12
ENDBRANCH   9  11
ENDBRANCH   8   9
ENDBRANCH   7   8
ENDBRANCH   5   7
ENDBRANCH   4   6
ENDBRANCH   3   4
ENDBRANCH   2   3
ENDBRANCH   1   2
BRANCH   1  14
ATOM     14  C   UNL     1       1.669   5.299  20.704  0.00  0.00    +0.000 C 
BRANCH  14  15
ATOM     15  C   UNL     1       2.707   6.077  19.911  0.00  0.00    +0.000 C 
BRANCH  15  16
ATOM     16  C   UNL     1       2.207   6.321  18.501  0.00  0.00    +0.000 C 
BRANCH  16  17
ATOM     17  C   UNL     1       2.876   7.554  17.912  0.00  0.00    +0.000 C 
BRANCH  17  18
ATOM     18  C   UNL     1       1.853   8.663  17.731  0.00  0.00    +0.000 C 
BRANCH  18  19
ATOM     19  C   UNL     1       1.504   9.302  19.071  0.00  0.00    +0.000 C 
BRANCH  19  20
ATOM     20  C   UNL     1       0.602  10.508  18.850  0.00  0.00    +0.000 C 
BRANCH  20  21
ATOM     21  C   UNL     1      -0.874  10.126  18.870  0.00  0.00    +0.000 C 
BRANCH  21  22
ATOM     22  C   UNL     1      -1.649  10.927  17.858  0.00  0.00    +0.000 C 
ATOM     23  O   UNL     1      -2.144  12.028  18.048  0.00  0.00    +0.000 OA
BRANCH  22  24
ATOM     24  O   UNL     1      -1.750  10.290  16.664  0.00  0.00    +0.000 OA
ATOM     25  H   UNL     1      -1.013   9.671  16.507  0.00  0.00    +0.000 HD
ENDBRANCH  22  24
ENDBRANCH  21  22
ENDBRANCH  20  21
ENDBRANCH  19  20
ENDBRANCH  18  19
ENDBRANCH  17  18
ENDBRANCH  16  17
ENDBRANCH  15  16
ENDBRANCH  14  15
ENDBRANCH   1  14
TORSDOF 19
ENDMDL
MODEL 3
REMARK VINA RESULT:      -5.6      1.191      1.722
REMARK  Name = 
REMARK  20 active torsions:
REMARK  status: ('A' for Active; 'I' for Inactive)
REMARK    1  A    between atoms: C_1  and  C_2
REMARK    2  A    between atoms: C_2  and  O_3
REMARK    3  A    between atoms: C_2  and  C_4
REMARK    4  A    between atoms: C_4  and  C_5
REMARK    5  A    between atoms: C_5  and  C_6
REMARK    6  A    between atoms: C_6  and  C_7
REMARK    7  A    between atoms: C_8  and  C_9
REMARK    8  A    between atoms: C_9  and  C_10
REMARK    9  A    between atoms: C_10  and  C_11
REMARK   10  A    between atoms: C_11  and  C_12
REMARK   11  A    between atoms: C_12  and  C_13
REMARK   12  A    between atoms: C_13  and  C_14
REMARK   13  A    between atoms: C_14  and  C_15
REMARK   14  A    between atoms: C_15  and  C_16
REMARK   15  A    between atoms: C_16  and  C_17
REMARK   16  A    between atoms: C_17  and  C_18
REMARK   17  A    between atoms: C_18  and  C_19
REMARK   18  A    between atoms: C_19  and  C_20
REMARK   19  A    between atoms: C_20  and  C_21
REMARK   20  A    between atoms: C_21  and  O_23
REMARK                            x       y       z     vdW  Elec       q    Type
REMARK                         _______ _______ _______ _____ _____    ______ ____
ROOT
ATOM      1  C   UNL     1       1.052   3.751  20.709  0.00  0.00    +0.000 C 
ENDROOT
BRANCH   1   2
ATOM      2  C   UNL     1       1.856   4.992  21.077  0.00  0.00    +0.000 C 
BRANCH   2   3
ATOM      3  C   UNL     1       1.608   6.123  20.081  0.00  0.00    +0.000 C 
BRANCH   3   4
ATOM      4  C   UNL     1       2.880   6.645  19.413  0.00  0.00    +0.000 C 
BRANCH   4   6
ATOM      5  C   UNL     1       1.915   8.485  17.998  0.00  0.00    +0.000 C 
ATOM      6  C   UNL     1       2.590   7.333  18.105  0.00  0.00    +0.000 C 
BRANCH   5   7
ATOM      7  C   UNL     1       1.422   9.224  19.199  0.00  0.00    +0.000 C 
BRANCH   7   8
ATOM      8  C   UNL     1       0.716  10.517  18.839  0.00  0.00    +0.000 C 
BRANCH   8   9
ATOM      9  C   UNL     1      -0.543  10.191  18.040  0.00  0.00    +0.000 C 
BRANCH   9  11
ATOM     10  C   UNL     1      -1.294  12.145  19.417  0.00  0.00    +0.000 C 
ATOM     11  C   UNL     1      -1.608  11.266  18.218  0.00  0.00    +0.000 C 
BRANCH  11  12
ATOM     12  O   UNL     1      -1.678  12.083  17.054  0.00  0.00    +0.000 OA
ATOM     13  H   UNL     1      -2.485  11.845  16.568  0.00  0.00    +0.000 HD
ENDBRANCH  11  12
ENDBRANCH   9  11
ENDBRANCH   8   9
ENDBRANCH   7   8
ENDBRANCH   5   7
ENDBRANCH   4   6
ENDBRANCH   3   4
ENDBRANCH   2   3
ENDBRANCH   1   2
BRANCH   1  14
ATOM     14  C   UNL     1       1.916   2.508  20.732  0.00  0.00    +0.000 C 
BRANCH  14  15
ATOM     15  C   UNL     1       2.016   1.945  19.323  0.00  0.00    +0.000 C 
BRANCH  15  16
ATOM     16  C   UNL     1       1.382   2.904  18.335  0.00  0.00    +0.000 C 
BRANCH  16  17
ATOM     17  C   UNL     1       2.416   3.378  17.325  0.00  0.00    +0.000 C 
BRANCH  17  18
ATOM     18  C   UNL     1       3.816   3.155  17.872  0.00  0.00    +0.000 C 
BRANCH  18  19
ATOM     19  C   UNL     1       4.768   4.242  17.386  0.00  0.00    +0.000 C 
BRANCH  19  20
ATOM     20  C   UNL     1       5.417   3.816  16.076  0.00  0.00    +0.000 C 
BRANCH  20  21
ATOM     21  C   UNL     1       5.578   4.988  15.114  0.00  0.00    +0.000 C 
BRANCH  21  22
ATOM     22  C   UNL     1       7.021   5.401  15.009  0.00  0.00    +0.000 C 
ATOM     23  O   UNL     1       7.721   5.299  14.012  0.00  0.00    +0.000 OA
BRANCH  22  24
ATOM     24  O   UNL     1       7.495   5.920  16.170  0.00  0.00    +0.000 OA
ATOM     25  H   UNL     1       8.180   6.598  16.023  0.00  0.00    +0.000 HD
ENDBRANCH  22  24
ENDBRANCH  21  22
ENDBRANCH  20  21
ENDBRANCH  19  20
ENDBRANCH  18  19
ENDBRANCH  17  18
ENDBRANCH  16  17
ENDBRANCH  15  16
ENDBRANCH  14  15
ENDBRANCH   1  14
TORSDOF 19
ENDMDL
MODEL 4
REMARK VINA RESULT:      -5.6      0.986      1.273
REMARK  Name = 
REMARK  20 active torsions:
REMARK  status: ('A' for Active; 'I' for Inactive)
REMARK    1  A    between atoms: C_1  and  C_2
REMARK    2  A    between atoms: C_2  and  O_3
REMARK    3  A    between atoms: C_2  and  C_4
REMARK    4  A    between atoms: C_4  and  C_5
REMARK    5  A    between atoms: C_5  and  C_6
REMARK    6  A    between atoms: C_6  and  C_7
REMARK    7  A    between atoms: C_8  and  C_9
REMARK    8  A    between atoms: C_9  and  C_10
REMARK    9  A    between atoms: C_10  and  C_11
REMARK   10  A    between atoms: C_11  and  C_12
REMARK   11  A    between atoms: C_12  and  C_13
REMARK   12  A    between atoms: C_13  and  C_14
REMARK   13  A    between atoms: C_14  and  C_15
REMARK   14  A    between atoms: C_15  and  C_16
REMARK   15  A    between atoms: C_16  and  C_17
REMARK   16  A    between atoms: C_17  and  C_18
REMARK   17  A    between atoms: C_18  and  C_19
REMARK   18  A    between atoms: C_19  and  C_20
REMARK   19  A    between atoms: C_20  and  C_21
REMARK   20  A    between atoms: C_21  and  O_23
REMARK                            x       y       z     vdW  Elec       q    Type
REMARK                         _______ _______ _______ _____ _____    ______ ____
ROOT
ATOM      1  C   UNL     1       2.226   4.287  21.043  0.00  0.00    +0.000 C 
ENDROOT
BRANCH   1   2
ATOM      2  C   UNL     1       1.481   5.520  20.547  0.00  0.00    +0.000 C 
BRANCH   2   3
ATOM      3  C   UNL     1       2.397   6.422  19.723  0.00  0.00    +0.000 C 
BRANCH   3   4
ATOM      4  C   UNL     1       2.043   7.907  19.814  0.00  0.00    +0.000 C 
BRANCH   4   6
ATOM      5  C   UNL     1       0.997   9.489  18.164  0.00  0.00    +0.000 C 
ATOM      6  C   UNL     1       1.891   8.535  18.454  0.00  0.00    +0.000 C 
BRANCH   5   7
ATOM      7  C   UNL     1       0.085  10.055  19.203  0.00  0.00    +0.000 C 
BRANCH   7   8
ATOM      8  C   UNL     1      -1.311  10.319  18.671  0.00  0.00    +0.000 C 
BRANCH   8   9
ATOM      9  C   UNL     1      -1.366  11.732  18.097  0.00  0.00    +0.000 C 
BRANCH   9  11
ATOM     10  C   UNL     1      -0.302  13.936  18.631  0.00  0.00    +0.000 C 
ATOM     11  C   UNL     1      -1.122  12.780  19.176  0.00  0.00    +0.000 C 
BRANCH  11  12
ATOM     12  O   UNL     1      -2.364  13.282  19.659  0.00  0.00    +0.000 OA
ATOM     13  H   UNL     1      -3.016  13.209  18.941  0.00  0.00    +0.000 HD
ENDBRANCH  11  12
ENDBRANCH   9  11
ENDBRANCH   8   9
ENDBRANCH   7   8
ENDBRANCH   5   7
ENDBRANCH   4   6
ENDBRANCH   3   4
ENDBRANCH   2   3
ENDBRANCH   1   2
BRANCH   1  14
ATOM     14  C   UNL     1       1.346   3.056  20.999  0.00  0.00    +0.000 C 
BRANCH  14  15
ATOM     15  C   UNL     1       1.122   2.656  19.550  0.00  0.00    +0.000 C 
BRANCH  15  16
ATOM     16  C   UNL     1       2.442   2.281  18.905  0.00  0.00    +0.000 C 
BRANCH  16  17
ATOM     17  C   UNL     1       2.497   2.804  17.477  0.00  0.00    +0.000 C 
BRANCH  17  18
ATOM     18  C   UNL     1       3.545   3.900  17.366  0.00  0.00    +0.000 C 
BRANCH  18  19
ATOM     19  C   UNL     1       4.649   3.701  18.398  0.00  0.00    +0.000 C 
BRANCH  19  20
ATOM     20  C   UNL     1       5.507   4.956  18.487  0.00  0.00    +0.000 C 
BRANCH  20  21
ATOM     21  C   UNL     1       5.313   5.864  17.278  0.00  0.00    +0.000 C 
BRANCH  21  22
ATOM     22  C   UNL     1       6.639   6.327  16.737  0.00  0.00    +0.000 C 
ATOM     23  O   UNL     1       7.324   5.727  15.922  0.00  0.00    +0.000 OA
BRANCH  22  24
ATOM     24  O   UNL     1       7.021   7.521  17.256  0.00  0.00    +0.000 OA
ATOM     25  H   UNL     1       6.679   8.277  16.744  0.00  0.00    +0.000 HD
ENDBRANCH  22  24
ENDBRANCH  21  22
ENDBRANCH  20  21
ENDBRANCH  19  20
ENDBRANCH  18  19
ENDBRANCH  17  18
ENDBRANCH  16  17
ENDBRANCH  15  16
ENDBRANCH  14  15
ENDBRANCH   1  14
TORSDOF 19
ENDMDL
MODEL 5
REMARK VINA RESULT:      -5.5      1.862      2.507
REMARK  Name = 
REMARK  20 active torsions:
REMARK  status: ('A' for Active; 'I' for Inactive)
REMARK    1  A    between atoms: C_1  and  C_2
REMARK    2  A    between atoms: C_2  and  O_3
REMARK    3  A    between atoms: C_2  and  C_4
REMARK    4  A    between atoms: C_4  and  C_5
REMARK    5  A    between atoms: C_5  and  C_6
REMARK    6  A    between atoms: C_6  and  C_7
REMARK    7  A    between atoms: C_8  and  C_9
REMARK    8  A    between atoms: C_9  and  C_10
REMARK    9  A    between atoms: C_10  and  C_11
REMARK   10  A    between atoms: C_11  and  C_12
REMARK   11  A    between atoms: C_12  and  C_13
REMARK   12  A    between atoms: C_13  and  C_14
REMARK   13  A    between atoms: C_14  and  C_15
REMARK   14  A    between atoms: C_15  and  C_16
REMARK   15  A    between atoms: C_16  and  C_17
REMARK   16  A    between atoms: C_17  and  C_18
REMARK   17  A    between atoms: C_18  and  C_19
REMARK   18  A    between atoms: C_19  and  C_20
REMARK   19  A    between atoms: C_20  and  C_21
REMARK   20  A    between atoms: C_21  and  O_23
REMARK                            x       y       z     vdW  Elec       q    Type
REMARK                         _______ _______ _______ _____ _____    ______ ____
ROOT
ATOM      1  C   UNL     1       2.224   6.182  20.007  0.00  0.00    +0.000 C 
ENDROOT
BRANCH   1   2
ATOM      2  C   UNL     1       2.395   6.328  18.500  0.00  0.00    +0.000 C 
BRANCH   2   3
ATOM      3  C   UNL     1       2.924   7.713  18.138  0.00  0.00    +0.000 C 
BRANCH   3   4
ATOM      4  C   UNL     1       1.825   8.748  17.894  0.00  0.00    +0.000 C 
BRANCH   4   6
ATOM      5  C   UNL     1       0.178  10.080  19.248  0.00  0.00    +0.000 C 
ATOM      6  C   UNL     1       1.233   9.257  19.182  0.00  0.00    +0.000 C 
BRANCH   5   7
ATOM      7  C   UNL     1      -0.544  10.536  18.023  0.00  0.00    +0.000 C 
BRANCH   7   8
ATOM      8  C   UNL     1      -1.769   9.694  17.721  0.00  0.00    +0.000 C 
BRANCH   8   9
ATOM      9  C   UNL     1      -3.007  10.587  17.756  0.00  0.00    +0.000 C 
BRANCH   9  11
ATOM     10  C   UNL     1      -3.020   9.927  15.339  0.00  0.00    +0.000 C 
ATOM     11  C   UNL     1      -3.450  10.975  16.350  0.00  0.00    +0.000 C 
BRANCH  11  12
ATOM     12  O   UNL     1      -4.867  11.107  16.304  0.00  0.00    +0.000 OA
ATOM     13  H   UNL     1      -5.086  11.752  15.610  0.00  0.00    +0.000 HD
ENDBRANCH  11  12
ENDBRANCH   9  11
ENDBRANCH   8   9
ENDBRANCH   7   8
ENDBRANCH   5   7
ENDBRANCH   4   6
ENDBRANCH   3   4
ENDBRANCH   2   3
ENDBRANCH   1   2
BRANCH   1  14
ATOM     14  C   UNL     1       1.597   4.851  20.364  0.00  0.00    +0.000 C 
BRANCH  14  15
ATOM     15  C   UNL     1       2.688   3.797  20.461  0.00  0.00    +0.000 C 
BRANCH  15  16
ATOM     16  C   UNL     1       2.238   2.520  19.777  0.00  0.00    +0.000 C 
BRANCH  16  17
ATOM     17  C   UNL     1       3.340   1.995  18.869  0.00  0.00    +0.000 C 
BRANCH  17  18
ATOM     18  C   UNL     1       3.406   2.826  17.598  0.00  0.00    +0.000 C 
BRANCH  18  19
ATOM     19  C   UNL     1       4.646   3.712  17.594  0.00  0.00    +0.000 C 
BRANCH  19  20
ATOM     20  C   UNL     1       4.778   4.412  16.248  0.00  0.00    +0.000 C 
BRANCH  20  21
ATOM     21  C   UNL     1       5.796   5.546  16.294  0.00  0.00    +0.000 C 
BRANCH  21  22
ATOM     22  C   UNL     1       7.170   5.048  15.934  0.00  0.00    +0.000 C 
ATOM     23  O   UNL     1       7.897   4.382  16.655  0.00  0.00    +0.000 OA
BRANCH  22  24
ATOM     24  O   UNL     1       7.542   5.420  14.683  0.00  0.00    +0.000 OA
ATOM     25  H   UNL     1       8.222   6.120  14.689  0.00  0.00    +0.000 HD
ENDBRANCH  22  24
ENDBRANCH  21  22
ENDBRANCH  20  21
ENDBRANCH  19  20
ENDBRANCH  18  19
ENDBRANCH  17  18
ENDBRANCH  16  17
ENDBRANCH  15  16
ENDBRANCH  14  15
ENDBRANCH   1  14
TORSDOF 19
ENDMDL
MODEL 6
REMARK VINA RESULT:      -5.5      2.687      7.842
REMARK  Name = 
REMARK  20 active torsions:
REMARK  status: ('A' for Active; 'I' for Inactive)
REMARK    1  A    between atoms: C_1  and  C_2
REMARK    2  A    between atoms: C_2  and  O_3
REMARK    3  A    between atoms: C_2  and  C_4
REMARK    4  A    between atoms: C_4  and  C_5
REMARK    5  A    between atoms: C_5  and  C_6
REMARK    6  A    between atoms: C_6  and  C_7
REMARK    7  A    between atoms: C_8  and  C_9
REMARK    8  A    between atoms: C_9  and  C_10
REMARK    9  A    between atoms: C_10  and  C_11
REMARK   10  A    between atoms: C_11  and  C_12
REMARK   11  A    between atoms: C_12  and  C_13
REMARK   12  A    between atoms: C_13  and  C_14
REMARK   13  A    between atoms: C_14  and  C_15
REMARK   14  A    between atoms: C_15  and  C_16
REMARK   15  A    between atoms: C_16  and  C_17
REMARK   16  A    between atoms: C_17  and  C_18
REMARK   17  A    between atoms: C_18  and  C_19
REMARK   18  A    between atoms: C_19  and  C_20
REMARK   19  A    between atoms: C_20  and  C_21
REMARK   20  A    between atoms: C_21  and  O_23
REMARK                            x       y       z     vdW  Elec       q    Type
REMARK                         _______ _______ _______ _____ _____    ______ ____
ROOT
ATOM      1  C   UNL     1       3.706   2.921  18.252  0.00  0.00    +0.000 C 
ENDROOT
BRANCH   1   2
ATOM      2  C   UNL     1       4.166   4.290  17.767  0.00  0.00    +0.000 C 
BRANCH   2   3
ATOM      3  C   UNL     1       5.308   4.823  18.628  0.00  0.00    +0.000 C 
BRANCH   3   4
ATOM      4  C   UNL     1       6.326   5.660  17.851  0.00  0.00    +0.000 C 
BRANCH   4   6
ATOM      5  C   UNL     1       7.243   4.606  15.762  0.00  0.00    +0.000 C 
ATOM      6  C   UNL     1       7.297   4.801  17.086  0.00  0.00    +0.000 C 
BRANCH   5   7
ATOM      7  C   UNL     1       6.217   5.275  14.908  0.00  0.00    +0.000 C 
BRANCH   7   8
ATOM      8  C   UNL     1       5.362   4.286  14.140  0.00  0.00    +0.000 C 
BRANCH   8   9
ATOM      9  C   UNL     1       6.217   3.614  13.069  0.00  0.00    +0.000 C 
BRANCH   9  11
ATOM     10  C   UNL     1       4.394   3.326  11.375  0.00  0.00    +0.000 C 
ATOM     11  C   UNL     1       5.404   2.613  12.256  0.00  0.00    +0.000 C 
BRANCH  11  12
ATOM     12  O   UNL     1       6.268   1.836  11.433  0.00  0.00    +0.000 OA
ATOM     13  H   UNL     1       5.759   1.082  11.092  0.00  0.00    +0.000 HD
ENDBRANCH  11  12
ENDBRANCH   9  11
ENDBRANCH   8   9
ENDBRANCH   7   8
ENDBRANCH   5   7
ENDBRANCH   4   6
ENDBRANCH   3   4
ENDBRANCH   2   3
ENDBRANCH   1   2
BRANCH   1  14
ATOM     14  C   UNL     1       2.249   2.679  17.918  0.00  0.00    +0.000 C 
BRANCH  14  15
ATOM     15  C   UNL     1       1.379   3.422  18.918  0.00  0.00    +0.000 C 
BRANCH  15  16
ATOM     16  C   UNL     1       1.929   3.242  20.320  0.00  0.00    +0.000 C 
BRANCH  16  17
ATOM     17  C   UNL     1       1.836   4.549  21.093  0.00  0.00    +0.000 C 
BRANCH  17  18
ATOM     18  C   UNL     1       2.003   5.726  20.146  0.00  0.00    +0.000 C 
BRANCH  18  19
ATOM     19  C   UNL     1       1.279   6.957  20.677  0.00  0.00    +0.000 C 
BRANCH  19  20
ATOM     20  C   UNL     1       1.918   8.218  20.111  0.00  0.00    +0.000 C 
BRANCH  20  21
ATOM     21  C   UNL     1       1.909   8.225  18.587  0.00  0.00    +0.000 C 
BRANCH  21  22
ATOM     22  C   UNL     1       1.259   9.476  18.060  0.00  0.00    +0.000 C 
ATOM     23  O   UNL     1       0.071   9.750  18.139  0.00  0.00    +0.000 OA
BRANCH  22  24
ATOM     24  O   UNL     1       2.151  10.310  17.466  0.00  0.00    +0.000 OA
ATOM     25  H   UNL     1       2.382  10.027  16.562  0.00  0.00    +0.000 HD
ENDBRANCH  22  24
ENDBRANCH  21  22
ENDBRANCH  20  21
ENDBRANCH  19  20
ENDBRANCH  18  19
ENDBRANCH  17  18
ENDBRANCH  16  17
ENDBRANCH  15  16
ENDBRANCH  14  15
ENDBRANCH   1  14
TORSDOF 19
ENDMDL
MODEL 7
REMARK VINA RESULT:      -5.5      1.508      7.654
REMARK  Name = 
REMARK  20 active torsions:
REMARK  status: ('A' for Active; 'I' for Inactive)
REMARK    1  A    between atoms: C_1  and  C_2
REMARK    2  A    between atoms: C_2  and  O_3
REMARK    3  A    between atoms: C_2  and  C_4
REMARK    4  A    between atoms: C_4  and  C_5
REMARK    5  A    between atoms: C_5  and  C_6
REMARK    6  A    between atoms: C_6  and  C_7
REMARK    7  A    between atoms: C_8  and  C_9
REMARK    8  A    between atoms: C_9  and  C_10
REMARK    9  A    between atoms: C_10  and  C_11
REMARK   10  A    between atoms: C_11  and  C_12
REMARK   11  A    between atoms: C_12  and  C_13
REMARK   12  A    between atoms: C_13  and  C_14
REMARK   13  A    between atoms: C_14  and  C_15
REMARK   14  A    between atoms: C_15  and  C_16
REMARK   15  A    between atoms: C_16  and  C_17
REMARK   16  A    between atoms: C_17  and  C_18
REMARK   17  A    between atoms: C_18  and  C_19
REMARK   18  A    between atoms: C_19  and  C_20
REMARK   19  A    between atoms: C_20  and  C_21
REMARK   20  A    between atoms: C_21  and  O_23
REMARK                            x       y       z     vdW  Elec       q    Type
REMARK                         _______ _______ _______ _____ _____    ______ ____
ROOT
ATOM      1  C   UNL     1       1.623   3.851  21.155  0.00  0.00    +0.000 C 
ENDROOT
BRANCH   1   2
ATOM      2  C   UNL     1       2.252   2.768  20.288  0.00  0.00    +0.000 C 
BRANCH   2   3
ATOM      3  C   UNL     1       1.435   2.535  19.020  0.00  0.00    +0.000 C 
BRANCH   3   4
ATOM      4  C   UNL     1       2.270   2.549  17.738  0.00  0.00    +0.000 C 
BRANCH   4   6
ATOM      5  C   UNL     1       4.528   3.649  17.623  0.00  0.00    +0.000 C 
ATOM      6  C   UNL     1       3.745   2.639  18.026  0.00  0.00    +0.000 C 
BRANCH   5   7
ATOM      7  C   UNL     1       3.980   4.820  16.875  0.00  0.00    +0.000 C 
BRANCH   7   8
ATOM      8  C   UNL     1       5.065   5.648  16.213  0.00  0.00    +0.000 C 
BRANCH   8   9
ATOM      9  C   UNL     1       6.411   5.298  16.841  0.00  0.00    +0.000 C 
BRANCH   9  11
ATOM     10  C   UNL     1       7.749   6.035  18.827  0.00  0.00    +0.000 C 
ATOM     11  C   UNL     1       7.004   6.490  17.584  0.00  0.00    +0.000 C 
BRANCH  11  12
ATOM     12  O   UNL     1       7.906   7.194  16.737  0.00  0.00    +0.000 OA
ATOM     13  H   UNL     1       8.565   6.560  16.407  0.00  0.00    +0.000 HD
ENDBRANCH  11  12
ENDBRANCH   9  11
ENDBRANCH   8   9
ENDBRANCH   7   8
ENDBRANCH   5   7
ENDBRANCH   4   6
ENDBRANCH   3   4
ENDBRANCH   2   3
ENDBRANCH   1   2
BRANCH   1  14
ATOM     14  C   UNL     1       1.261   5.071  20.336  0.00  0.00    +0.000 C 
BRANCH  14  15
ATOM     15  C   UNL     1       2.536   5.775  19.901  0.00  0.00    +0.000 C 
BRANCH  15  16
ATOM     16  C   UNL     1       2.261   7.247  19.662  0.00  0.00    +0.000 C 
BRANCH  16  17
ATOM     17  C   UNL     1       2.049   7.509  18.178  0.00  0.00    +0.000 C 
BRANCH  17  18
ATOM     18  C   UNL     1       2.130   9.000  17.897  0.00  0.00    +0.000 C 
BRANCH  18  19
ATOM     19  C   UNL     1       1.149   9.771  18.773  0.00  0.00    +0.000 C 
BRANCH  19  20
ATOM     20  C   UNL     1       0.008  10.311  17.922  0.00  0.00    +0.000 C 
BRANCH  20  21
ATOM     21  C   UNL     1      -1.352  10.040  18.555  0.00  0.00    +0.000 C 
BRANCH  21  22
ATOM     22  C   UNL     1      -2.448  10.115  17.526  0.00  0.00    +0.000 C 
ATOM     23  O   UNL     1      -3.618   9.814  17.707  0.00  0.00    +0.000 OA
BRANCH  22  24
ATOM     24  O   UNL     1      -2.000  10.570  16.328  0.00  0.00    +0.000 OA
ATOM     25  H   UNL     1      -1.345   9.972  15.922  0.00  0.00    +0.000 HD
ENDBRANCH  22  24
ENDBRANCH  21  22
ENDBRANCH  20  21
ENDBRANCH  19  20
ENDBRANCH  18  19
ENDBRANCH  17  18
ENDBRANCH  16  17
ENDBRANCH  15  16
ENDBRANCH  14  15
ENDBRANCH   1  14
TORSDOF 19
ENDMDL
MODEL 8
REMARK VINA RESULT:      -5.5      5.225      7.543
REMARK  Name = 
REMARK  20 active torsions:
REMARK  status: ('A' for Active; 'I' for Inactive)
REMARK    1  A    between atoms: C_1  and  C_2
REMARK    2  A    between atoms: C_2  and  O_3
REMARK    3  A    between atoms: C_2  and  C_4
REMARK    4  A    between atoms: C_4  and  C_5
REMARK    5  A    between atoms: C_5  and  C_6
REMARK    6  A    between atoms: C_6  and  C_7
REMARK    7  A    between atoms: C_8  and  C_9
REMARK    8  A    between atoms: C_9  and  C_10
REMARK    9  A    between atoms: C_10  and  C_11
REMARK   10  A    between atoms: C_11  and  C_12
REMARK   11  A    between atoms: C_12  and  C_13
REMARK   12  A    between atoms: C_13  and  C_14
REMARK   13  A    between atoms: C_14  and  C_15
REMARK   14  A    between atoms: C_15  and  C_16
REMARK   15  A    between atoms: C_16  and  C_17
REMARK   16  A    between atoms: C_17  and  C_18
REMARK   17  A    between atoms: C_18  and  C_19
REMARK   18  A    between atoms: C_19  and  C_20
REMARK   19  A    between atoms: C_20  and  C_21
REMARK   20  A    between atoms: C_21  and  O_23
REMARK                            x       y       z     vdW  Elec       q    Type
REMARK                         _______ _______ _______ _____ _____    ______ ____
ROOT
ATOM      1  C   UNL     1       6.574   5.785  18.652  0.00  0.00    +0.000 C 
ENDROOT
BRANCH   1   2
ATOM      2  C   UNL     1       7.832   6.640  18.561  0.00  0.00    +0.000 C 
BRANCH   2   3
ATOM      3  C   UNL     1       7.776   7.573  17.354  0.00  0.00    +0.000 C 
BRANCH   3   4
ATOM      4  C   UNL     1       7.879   9.055  17.716  0.00  0.00    +0.000 C 
BRANCH   4   6
ATOM      5  C   UNL     1       9.487  10.405  19.100  0.00  0.00    +0.000 C 
ATOM      6  C   UNL     1       8.777   9.286  18.903  0.00  0.00    +0.000 C 
BRANCH   5   7
ATOM      7  C   UNL     1       9.409  11.563  18.159  0.00  0.00    +0.000 C 
BRANCH   7   8
ATOM      8  C   UNL     1      10.766  11.956  17.607  0.00  0.00    +0.000 C 
BRANCH   8   9
ATOM      9  C   UNL     1      10.775  13.457  17.331  0.00  0.00    +0.000 C 
BRANCH   9  11
ATOM     10  C   UNL     1      10.426  14.883  19.362  0.00  0.00    +0.000 C 
ATOM     11  C   UNL     1       9.750  14.186  18.193  0.00  0.00    +0.000 C 
BRANCH  11  12
ATOM     12  O   UNL     1       9.058  15.156  17.415  0.00  0.00    +0.000 OA
ATOM     13  H   UNL     1       8.516  15.694  18.017  0.00  0.00    +0.000 HD
ENDBRANCH  11  12
ENDBRANCH   9  11
ENDBRANCH   8   9
ENDBRANCH   7   8
ENDBRANCH   5   7
ENDBRANCH   4   6
ENDBRANCH   3   4
ENDBRANCH   2   3
ENDBRANCH   1   2
BRANCH   1  14
ATOM     14  C   UNL     1       5.635   6.062  17.497  0.00  0.00    +0.000 C 
BRANCH  14  15
ATOM     15  C   UNL     1       4.292   6.518  18.046  0.00  0.00    +0.000 C 
BRANCH  15  16
ATOM     16  C   UNL     1       3.495   5.321  18.528  0.00  0.00    +0.000 C 
BRANCH  16  17
ATOM     17  C   UNL     1       3.125   4.429  17.353  0.00  0.00    +0.000 C 
BRANCH  17  18
ATOM     18  C   UNL     1       3.815   3.082  17.486  0.00  0.00    +0.000 C 
BRANCH  18  19
ATOM     19  C   UNL     1       2.803   1.981  17.784  0.00  0.00    +0.000 C 
BRANCH  19  20
ATOM     20  C   UNL     1       2.606   1.852  19.289  0.00  0.00    +0.000 C 
BRANCH  20  21
ATOM     21  C   UNL     1       1.196   2.245  19.714  0.00  0.00    +0.000 C 
BRANCH  21  22
ATOM     22  C   UNL     1       1.232   3.163  20.906  0.00  0.00    +0.000 C 
ATOM     23  O   UNL     1       1.682   2.883  22.007  0.00  0.00    +0.000 OA
BRANCH  22  24
ATOM     24  O   UNL     1       0.699   4.382  20.635  0.00  0.00    +0.000 OA
ATOM     25  H   UNL     1       0.144   4.717  21.364  0.00  0.00    +0.000 HD
ENDBRANCH  22  24
ENDBRANCH  21  22
ENDBRANCH  20  21
ENDBRANCH  19  20
ENDBRANCH  18  19
ENDBRANCH  17  18
ENDBRANCH  16  17
ENDBRANCH  15  16
ENDBRANCH  14  15
ENDBRANCH   1  14
TORSDOF 19
ENDMDL
MODEL 9
REMARK VINA RESULT:      -5.5      1.862      2.354
REMARK  Name = 
REMARK  20 active torsions:
REMARK  status: ('A' for Active; 'I' for Inactive)
REMARK    1  A    between atoms: C_1  and  C_2
REMARK    2  A    between atoms: C_2  and  O_3
REMARK    3  A    between atoms: C_2  and  C_4
REMARK    4  A    between atoms: C_4  and  C_5
REMARK    5  A    between atoms: C_5  and  C_6
REMARK    6  A    between atoms: C_6  and  C_7
REMARK    7  A    between atoms: C_8  and  C_9
REMARK    8  A    between atoms: C_9  and  C_10
REMARK    9  A    between atoms: C_10  and  C_11
REMARK   10  A    between atoms: C_11  and  C_12
REMARK   11  A    between atoms: C_12  and  C_13
REMARK   12  A    between atoms: C_13  and  C_14
REMARK   13  A    between atoms: C_14  and  C_15
REMARK   14  A    between atoms: C_15  and  C_16
REMARK   15  A    between atoms: C_16  and  C_17
REMARK   16  A    between atoms: C_17  and  C_18
REMARK   17  A    between atoms: C_18  and  C_19
REMARK   18  A    between atoms: C_19  and  C_20
REMARK   19  A    between atoms: C_20  and  C_21
REMARK   20  A    between atoms: C_21  and  O_23
REMARK                            x       y       z     vdW  Elec       q    Type
REMARK                         _______ _______ _______ _____ _____    ______ ____
ROOT
ATOM      1  C   UNL     1       2.002   5.225  20.882  0.00  0.00    +0.000 C 
ENDROOT
BRANCH   1   2
ATOM      2  C   UNL     1       1.397   6.605  20.662  0.00  0.00    +0.000 C 
BRANCH   2   3
ATOM      3  C   UNL     1       2.262   7.441  19.722  0.00  0.00    +0.000 C 
BRANCH   3   4
ATOM      4  C   UNL     1       1.575   8.712  19.220  0.00  0.00    +0.000 C 
BRANCH   4   6
ATOM      5  C   UNL     1      -0.419  10.098  19.869  0.00  0.00    +0.000 C 
ATOM      6  C   UNL     1       0.533   9.210  20.186  0.00  0.00    +0.000 C 
BRANCH   5   7
ATOM      7  C   UNL     1      -0.557  10.646  18.486  0.00  0.00    +0.000 C 
BRANCH   7   8
ATOM      8  C   UNL     1      -1.814  10.161  17.790  0.00  0.00    +0.000 C 
BRANCH   8   9
ATOM      9  C   UNL     1      -2.643  11.368  17.361  0.00  0.00    +0.000 C 
BRANCH   9  11
ATOM     10  C   UNL     1      -2.964   9.770  15.458  0.00  0.00    +0.000 C 
ATOM     11  C   UNL     1      -3.405  11.089  16.071  0.00  0.00    +0.000 C 
BRANCH  11  12
ATOM     12  O   UNL     1      -4.804  11.032  16.332  0.00  0.00    +0.000 OA
ATOM     13  H   UNL     1      -4.999  11.649  17.057  0.00  0.00    +0.000 HD
ENDBRANCH  11  12
ENDBRANCH   9  11
ENDBRANCH   8   9
ENDBRANCH   7   8
ENDBRANCH   5   7
ENDBRANCH   4   6
ENDBRANCH   3   4
ENDBRANCH   2   3
ENDBRANCH   1   2
BRANCH   1  14
ATOM     14  C   UNL     1       1.013   4.129  20.546  0.00  0.00    +0.000 C 
BRANCH  14  15
ATOM     15  C   UNL     1       1.748   2.990  19.856  0.00  0.00    +0.000 C 
BRANCH  15  16
ATOM     16  C   UNL     1       1.275   2.861  18.422  0.00  0.00    +0.000 C 
BRANCH  16  17
ATOM     17  C   UNL     1       2.467   2.789  17.479  0.00  0.00    +0.000 C 
BRANCH  17  18
ATOM     18  C   UNL     1       3.761   2.829  18.276  0.00  0.00    +0.000 C 
BRANCH  18  19
ATOM     19  C   UNL     1       4.718   3.869  17.704  0.00  0.00    +0.000 C 
BRANCH  19  20
ATOM     20  C   UNL     1       3.961   5.152  17.388  0.00  0.00    +0.000 C 
BRANCH  20  21
ATOM     21  C   UNL     1       4.826   6.389  17.599  0.00  0.00    +0.000 C 
BRANCH  21  22
ATOM     22  C   UNL     1       5.809   6.555  16.472  0.00  0.00    +0.000 C 
ATOM     23  O   UNL     1       7.026   6.535  16.580  0.00  0.00    +0.000 OA
BRANCH  22  24
ATOM     24  O   UNL     1       5.196   6.733  15.274  0.00  0.00    +0.000 OA
ATOM     25  H   UNL     1       4.365   6.229  15.202  0.00  0.00    +0.000 HD
ENDBRANCH  22  24
ENDBRANCH  21  22
ENDBRANCH  20  21
ENDBRANCH  19  20
ENDBRANCH  18  19
ENDBRANCH  17  18
ENDBRANCH  16  17
ENDBRANCH  15  16
ENDBRANCH  14  15
ENDBRANCH   1  14
TORSDOF 19
ENDMDL
