MODEL 1
REMARK VINA RESULT:      -8.4      0.000      0.000
REMARK  Name = 
REMARK  7 active torsions:
REMARK  status: ('A' for Active; 'I' for Inactive)
REMARK    1  A    between atoms: C_1  and  C_2
REMARK    2  A    between atoms: C_9  and  N_10
REMARK    3  A    between atoms: C_11  and  C_13
REMARK    4  A    between atoms: C_17  and  S_18
REMARK    5  A    between atoms: S_18  and  N_21
REMARK    6  A    between atoms: N_21  and  C_22
REMARK    7  A    between atoms: N_21  and  C_23
REMARK                            x       y       z     vdW  Elec       q    Type
REMARK                         _______ _______ _______ _____ _____    ______ ____
ROOT
ATOM      1  N   UNL     1       2.156   7.902  19.688  0.00  0.00    +0.000 N 
ATOM      2  C   UNL     1       2.592   7.809  18.374  0.00  0.00    +0.000 C 
ATOM      3  O   UNL     1       2.388   8.628  17.484  0.00  0.00    +0.000 OA
ATOM      4  H   UNL     1       2.407   7.163  20.331  0.00  0.00    +0.000 HD
ENDROOT
BRANCH   1  13
ATOM      5  C   UNL     1      -2.125  11.649  23.148  0.00  0.00    +0.000 C 
ATOM      6  C   UNL     1      -1.379  11.853  21.865  0.00  0.00    +0.000 A 
ATOM      7  C   UNL     1      -1.511  12.987  21.159  0.00  0.00    +0.000 A 
ATOM      8  C   UNL     1      -0.811  13.245  19.893  0.00  0.00    +0.000 A 
ATOM      9  O   UNL     1      -0.972  14.301  19.291  0.00  0.00    +0.000 OA
ATOM     10  O   UNL     1       0.020  12.246  19.428  0.00  0.00    +0.000 OA
ATOM     11  C   UNL     1       0.190  11.048  20.150  0.00  0.00    +0.000 A 
ATOM     12  C   UNL     1       1.068  10.121  19.583  0.00  0.00    +0.000 A 
ATOM     13  C   UNL     1       1.302   8.901  20.213  0.00  0.00    +0.000 A 
ATOM     14  C   UNL     1       0.634   8.638  21.416  0.00  0.00    +0.000 A 
ATOM     15  C   UNL     1      -0.245   9.584  21.981  0.00  0.00    +0.000 A 
ATOM     16  C   UNL     1      -0.480  10.810  21.348  0.00  0.00    +0.000 A 
ENDBRANCH   1  13
BRANCH   2  17
ATOM     17  C   UNL     1       3.351   6.581  17.996  0.00  0.00    +0.000 A 
ATOM     18  C   UNL     1       4.216   6.672  16.893  0.00  0.00    +0.000 A 
ATOM     19  C   UNL     1       4.918   5.555  16.437  0.00  0.00    +0.000 A 
ATOM     20  C   UNL     1       4.760   4.330  17.080  0.00  0.00    +0.000 A 
ATOM     21  C   UNL     1       3.931   4.244  18.202  0.00  0.00    +0.000 A 
ATOM     22  C   UNL     1       3.228   5.364  18.672  0.00  0.00    +0.000 A 
BRANCH  21  23
ATOM     23  S   UNL     1       3.646   2.656  18.966  0.00  0.00    +0.000 S 
ATOM     24  O   UNL     1       3.425   1.715  17.887  0.00  0.00    +0.000 OA
ATOM     25  O   UNL     1       4.701   2.450  19.934  0.00  0.00    +0.000 OA
BRANCH  23  26
ATOM     26  N   UNL     1       2.178   2.871  19.791  0.00  0.00    +0.000 NA
ATOM     27  C   UNL     1       0.952   2.421  19.113  0.00  0.00    +0.000 C 
ATOM     28  C   UNL     1       2.181   2.606  21.239  0.00  0.00    +0.000 C 
ENDBRANCH  23  26
ENDBRANCH  21  23
ENDBRANCH   2  17
TORSDOF 4
ENDMDL
MODEL 2
REMARK VINA RESULT:      -8.4      2.584      3.435
REMARK  Name = 
REMARK  7 active torsions:
REMARK  status: ('A' for Active; 'I' for Inactive)
REMARK    1  A    between atoms: C_1  and  C_2
REMARK    2  A    between atoms: C_9  and  N_10
REMARK    3  A    between atoms: C_11  and  C_13
REMARK    4  A    between atoms: C_17  and  S_18
REMARK    5  A    between atoms: S_18  and  N_21
REMARK    6  A    between atoms: N_21  and  C_22
REMARK    7  A    between atoms: N_21  and  C_23
REMARK                            x       y       z     vdW  Elec       q    Type
REMARK                         _______ _______ _______ _____ _____    ______ ____
ROOT
ATOM      1  N   UNL     1       2.271   7.585  18.703  0.00  0.00    +0.000 N 
ATOM      2  C   UNL     1       2.422   6.246  19.034  0.00  0.00    +0.000 C 
ATOM      3  O   UNL     1       1.875   5.664  19.966  0.00  0.00    +0.000 OA
ATOM      4  H   UNL     1       2.767   7.939  17.897  0.00  0.00    +0.000 HD
ENDROOT
BRANCH   1  13
ATOM      5  C   UNL     1      -1.175  11.120  23.172  0.00  0.00    +0.000 C 
ATOM      6  C   UNL     1      -0.724  11.390  21.768  0.00  0.00    +0.000 A 
ATOM      7  C   UNL     1      -1.009  12.552  21.161  0.00  0.00    +0.000 A 
ATOM      8  C   UNL     1      -0.601  12.875  19.787  0.00  0.00    +0.000 A 
ATOM      9  O   UNL     1      -0.891  13.954  19.283  0.00  0.00    +0.000 OA
ATOM     10  O   UNL     1       0.114  11.907  19.109  0.00  0.00    +0.000 OA
ATOM     11  C   UNL     1       0.441  10.681  19.721  0.00  0.00    +0.000 A 
ATOM     12  C   UNL     1       1.178   9.792  18.936  0.00  0.00    +0.000 A 
ATOM     13  C   UNL     1       1.548   8.549  19.445  0.00  0.00    +0.000 A 
ATOM     14  C   UNL     1       1.155   8.225  20.750  0.00  0.00    +0.000 A 
ATOM     15  C   UNL     1       0.417   9.133  21.534  0.00  0.00    +0.000 A 
ATOM     16  C   UNL     1       0.046  10.383  21.023  0.00  0.00    +0.000 A 
ENDBRANCH   1  13
BRANCH   2  17
ATOM     17  C   UNL     1       3.366   5.444  18.202  0.00  0.00    +0.000 A 
ATOM     18  C   UNL     1       2.890   4.232  17.673  0.00  0.00    +0.000 A 
ATOM     19  C   UNL     1       3.725   3.394  16.933  0.00  0.00    +0.000 A 
ATOM     20  C   UNL     1       5.051   3.758  16.715  0.00  0.00    +0.000 A 
ATOM     21  C   UNL     1       5.518   4.981  17.205  0.00  0.00    +0.000 A 
ATOM     22  C   UNL     1       4.683   5.834  17.943  0.00  0.00    +0.000 A 
BRANCH  21  23
ATOM     23  S   UNL     1       7.242   5.403  17.017  0.00  0.00    +0.000 S 
ATOM     24  O   UNL     1       7.991   4.185  17.248  0.00  0.00    +0.000 OA
ATOM     25  O   UNL     1       7.371   6.136  15.776  0.00  0.00    +0.000 OA
BRANCH  23  26
ATOM     26  N   UNL     1       7.535   6.461  18.311  0.00  0.00    +0.000 NA
ATOM     27  C   UNL     1       8.126   5.887  19.530  0.00  0.00    +0.000 C 
ATOM     28  C   UNL     1       8.056   7.797  17.977  0.00  0.00    +0.000 C 
ENDBRANCH  23  26
ENDBRANCH  21  23
ENDBRANCH   2  17
TORSDOF 4
ENDMDL
MODEL 3
REMARK VINA RESULT:      -8.4      2.494      3.496
REMARK  Name = 
REMARK  7 active torsions:
REMARK  status: ('A' for Active; 'I' for Inactive)
REMARK    1  A    between atoms: C_1  and  C_2
REMARK    2  A    between atoms: C_9  and  N_10
REMARK    3  A    between atoms: C_11  and  C_13
REMARK    4  A    between atoms: C_17  and  S_18
REMARK    5  A    between atoms: S_18  and  N_21
REMARK    6  A    between atoms: N_21  and  C_22
REMARK    7  A    between atoms: N_21  and  C_23
REMARK                            x       y       z     vdW  Elec       q    Type
REMARK                         _______ _______ _______ _____ _____    ______ ____
ROOT
ATOM      1  N   UNL     1       2.276   7.643  19.450  0.00  0.00    +0.000 N 
ATOM      2  C   UNL     1       2.725   7.634  18.136  0.00  0.00    +0.000 C 
ATOM      3  O   UNL     1       2.560   8.524  17.308  0.00  0.00    +0.000 OA
ATOM      4  H   UNL     1       2.494   6.850  20.037  0.00  0.00    +0.000 HD
ENDROOT
BRANCH   1  13
ATOM      5  C   UNL     1      -1.768  11.334  23.240  0.00  0.00    +0.000 C 
ATOM      6  C   UNL     1      -1.129  11.547  21.901  0.00  0.00    +0.000 A 
ATOM      7  C   UNL     1      -1.333  12.678  21.209  0.00  0.00    +0.000 A 
ATOM      8  C   UNL     1      -0.740  12.945  19.890  0.00  0.00    +0.000 A 
ATOM      9  O   UNL     1      -0.962  13.998  19.304  0.00  0.00    +0.000 OA
ATOM     10  O   UNL     1       0.066  11.957  19.361  0.00  0.00    +0.000 OA
ATOM     11  C   UNL     1       0.310  10.762  20.067  0.00  0.00    +0.000 A 
ATOM     12  C   UNL     1       1.153   9.847  19.431  0.00  0.00    +0.000 A 
ATOM     13  C   UNL     1       1.453   8.631  20.041  0.00  0.00    +0.000 A 
ATOM     14  C   UNL     1       0.886   8.360  21.293  0.00  0.00    +0.000 A 
ATOM     15  C   UNL     1       0.043   9.294  21.926  0.00  0.00    +0.000 A 
ATOM     16  C   UNL     1      -0.259  10.516  21.314  0.00  0.00    +0.000 A 
ENDBRANCH   1  13
BRANCH   2  17
ATOM     17  C   UNL     1       3.443   6.410  17.673  0.00  0.00    +0.000 A 
ATOM     18  C   UNL     1       2.824   5.171  17.911  0.00  0.00    +0.000 A 
ATOM     19  C   UNL     1       3.454   3.975  17.564  0.00  0.00    +0.000 A 
ATOM     20  C   UNL     1       4.715   4.005  16.975  0.00  0.00    +0.000 A 
ATOM     21  C   UNL     1       5.317   5.236  16.700  0.00  0.00    +0.000 A 
ATOM     22  C   UNL     1       4.687   6.444  17.039  0.00  0.00    +0.000 A 
BRANCH  21  23
ATOM     23  S   UNL     1       6.975   5.277  16.040  0.00  0.00    +0.000 S 
ATOM     24  O   UNL     1       7.483   6.611  16.286  0.00  0.00    +0.000 OA
ATOM     25  O   UNL     1       7.665   4.109  16.544  0.00  0.00    +0.000 OA
BRANCH  23  26
ATOM     26  N   UNL     1       6.741   5.097  14.369  0.00  0.00    +0.000 NA
ATOM     27  C   UNL     1       7.887   5.391  13.492  0.00  0.00    +0.000 C 
ATOM     28  C   UNL     1       5.944   3.942  13.926  0.00  0.00    +0.000 C 
ENDBRANCH  23  26
ENDBRANCH  21  23
ENDBRANCH   2  17
TORSDOF 4
ENDMDL
MODEL 4
REMARK VINA RESULT:      -8.3      2.251      3.224
REMARK  Name = 
REMARK  7 active torsions:
REMARK  status: ('A' for Active; 'I' for Inactive)
REMARK    1  A    between atoms: C_1  and  C_2
REMARK    2  A    between atoms: C_9  and  N_10
REMARK    3  A    between atoms: C_11  and  C_13
REMARK    4  A    between atoms: C_17  and  S_18
REMARK    5  A    between atoms: S_18  and  N_21
REMARK    6  A    between atoms: N_21  and  C_22
REMARK    7  A    between atoms: N_21  and  C_23
REMARK                            x       y       z     vdW  Elec       q    Type
REMARK                         _______ _______ _______ _____ _____    ______ ____
ROOT
ATOM      1  N   UNL     1       1.849   8.117  19.705  0.00  0.00    +0.000 N 
ATOM      2  C   UNL     1       2.166   7.992  18.359  0.00  0.00    +0.000 C 
ATOM      3  O   UNL     1       1.874   8.786  17.471  0.00  0.00    +0.000 OA
ATOM      4  H   UNL     1       2.164   7.397  20.341  0.00  0.00    +0.000 HD
ENDROOT
BRANCH   1  13
ATOM      5  C   UNL     1      -2.305  11.856  23.324  0.00  0.00    +0.000 C 
ATOM      6  C   UNL     1      -1.518  12.104  22.073  0.00  0.00    +0.000 A 
ATOM      7  C   UNL     1      -1.571  13.288  21.445  0.00  0.00    +0.000 A 
ATOM      8  C   UNL     1      -0.829  13.591  20.213  0.00  0.00    +0.000 A 
ATOM      9  O   UNL     1      -0.917  14.692  19.682  0.00  0.00    +0.000 OA
ATOM     10  O   UNL     1      -0.041  12.580  19.699  0.00  0.00    +0.000 OA
ATOM     11  C   UNL     1       0.046  11.329  20.340  0.00  0.00    +0.000 A 
ATOM     12  C   UNL     1       0.886  10.395  19.729  0.00  0.00    +0.000 A 
ATOM     13  C   UNL     1       1.039   9.125  20.280  0.00  0.00    +0.000 A 
ATOM     14  C   UNL     1       0.328   8.819  21.447  0.00  0.00    +0.000 A 
ATOM     15  C   UNL     1      -0.511   9.772  22.057  0.00  0.00    +0.000 A 
ATOM     16  C   UNL     1      -0.665  11.050  21.505  0.00  0.00    +0.000 A 
ENDBRANCH   1  13
BRANCH   2  17
ATOM     17  C   UNL     1       2.897   6.759  17.946  0.00  0.00    +0.000 A 
ATOM     18  C   UNL     1       2.187   5.546  17.982  0.00  0.00    +0.000 A 
ATOM     19  C   UNL     1       2.813   4.338  17.668  0.00  0.00    +0.000 A 
ATOM     20  C   UNL     1       4.160   4.330  17.317  0.00  0.00    +0.000 A 
ATOM     21  C   UNL     1       4.859   5.537  17.241  0.00  0.00    +0.000 A 
ATOM     22  C   UNL     1       4.236   6.757  17.547  0.00  0.00    +0.000 A 
BRANCH  21  23
ATOM     23  S   UNL     1       6.609   5.520  16.891  0.00  0.00    +0.000 S 
ATOM     24  O   UNL     1       7.074   4.180  17.185  0.00  0.00    +0.000 OA
ATOM     25  O   UNL     1       6.790   6.102  15.579  0.00  0.00    +0.000 OA
BRANCH  23  26
ATOM     26  N   UNL     1       7.257   6.574  18.053  0.00  0.00    +0.000 NA
ATOM     27  C   UNL     1       8.023   5.972  19.156  0.00  0.00    +0.000 C 
ATOM     28  C   UNL     1       7.826   7.840  17.563  0.00  0.00    +0.000 C 
ENDBRANCH  23  26
ENDBRANCH  21  23
ENDBRANCH   2  17
TORSDOF 4
ENDMDL
MODEL 5
REMARK VINA RESULT:      -8.3      2.692      3.791
REMARK  Name = 
REMARK  7 active torsions:
REMARK  status: ('A' for Active; 'I' for Inactive)
REMARK    1  A    between atoms: C_1  and  C_2
REMARK    2  A    between atoms: C_9  and  N_10
REMARK    3  A    between atoms: C_11  and  C_13
REMARK    4  A    between atoms: C_17  and  S_18
REMARK    5  A    between atoms: S_18  and  N_21
REMARK    6  A    between atoms: N_21  and  C_22
REMARK    7  A    between atoms: N_21  and  C_23
REMARK                            x       y       z     vdW  Elec       q    Type
REMARK                         _______ _______ _______ _____ _____    ______ ____
ROOT
ATOM      1  N   UNL     1       1.855   8.585  17.894  0.00  0.00    +0.000 N 
ATOM      2  C   UNL     1       2.235   7.584  18.777  0.00  0.00    +0.000 C 
ATOM      3  O   UNL     1       2.135   7.622  19.999  0.00  0.00    +0.000 OA
ATOM      4  H   UNL     1       1.976   8.422  16.904  0.00  0.00    +0.000 HD
ENDROOT
BRANCH   1  13
ATOM      5  C   UNL     1       0.958  15.046  19.231  0.00  0.00    +0.000 C 
ATOM      6  C   UNL     1       0.086  13.835  19.360  0.00  0.00    +0.000 A 
ATOM      7  C   UNL     1      -1.166  13.931  19.834  0.00  0.00    +0.000 A 
ATOM      8  C   UNL     1      -2.069  12.781  19.989  0.00  0.00    +0.000 A 
ATOM      9  O   UNL     1      -3.204  12.930  20.428  0.00  0.00    +0.000 OA
ATOM     10  O   UNL     1      -1.572  11.547  19.619  0.00  0.00    +0.000 OA
ATOM     11  C   UNL     1      -0.266  11.414  19.107  0.00  0.00    +0.000 A 
ATOM     12  C   UNL     1       0.114  10.116  18.756  0.00  0.00    +0.000 A 
ATOM     13  C   UNL     1       1.388   9.873  18.246  0.00  0.00    +0.000 A 
ATOM     14  C   UNL     1       2.262  10.959  18.103  0.00  0.00    +0.000 A 
ATOM     15  C   UNL     1       1.864  12.263  18.455  0.00  0.00    +0.000 A 
ATOM     16  C   UNL     1       0.584  12.508  18.967  0.00  0.00    +0.000 A 
ENDBRANCH   1  13
BRANCH   2  17
ATOM     17  C   UNL     1       2.857   6.362  18.190  0.00  0.00    +0.000 A 
ATOM     18  C   UNL     1       2.246   5.128  18.473  0.00  0.00    +0.000 A 
ATOM     19  C   UNL     1       2.797   3.931  18.013  0.00  0.00    +0.000 A 
ATOM     20  C   UNL     1       3.971   3.955  17.264  0.00  0.00    +0.000 A 
ATOM     21  C   UNL     1       4.560   5.182  16.946  0.00  0.00    +0.000 A 
ATOM     22  C   UNL     1       4.008   6.390  17.398  0.00  0.00    +0.000 A 
BRANCH  21  23
ATOM     23  S   UNL     1       6.117   5.210  16.075  0.00  0.00    +0.000 S 
ATOM     24  O   UNL     1       6.444   3.832  15.771  0.00  0.00    +0.000 OA
ATOM     25  O   UNL     1       6.004   6.200  15.027  0.00  0.00    +0.000 OA
BRANCH  23  26
ATOM     26  N   UNL     1       7.215   5.771  17.243  0.00  0.00    +0.000 NA
ATOM     27  C   UNL     1       7.416   7.226  17.334  0.00  0.00    +0.000 C 
ATOM     28  C   UNL     1       7.202   5.095  18.550  0.00  0.00    +0.000 C 
ENDBRANCH  23  26
ENDBRANCH  21  23
ENDBRANCH   2  17
TORSDOF 4
ENDMDL
MODEL 6
REMARK VINA RESULT:      -8.3      1.229      1.263
REMARK  Name = 
REMARK  7 active torsions:
REMARK  status: ('A' for Active; 'I' for Inactive)
REMARK    1  A    between atoms: C_1  and  C_2
REMARK    2  A    between atoms: C_9  and  N_10
REMARK    3  A    between atoms: C_11  and  C_13
REMARK    4  A    between atoms: C_17  and  S_18
REMARK    5  A    between atoms: S_18  and  N_21
REMARK    6  A    between atoms: N_21  and  C_22
REMARK    7  A    between atoms: N_21  and  C_23
REMARK                            x       y       z     vdW  Elec       q    Type
REMARK                         _______ _______ _______ _____ _____    ______ ____
ROOT
ATOM      1  N   UNL     1       2.067   7.955  19.334  0.00  0.00    +0.000 N 
ATOM      2  C   UNL     1       2.707   7.845  18.107  0.00  0.00    +0.000 C 
ATOM      3  O   UNL     1       2.647   8.653  17.185  0.00  0.00    +0.000 OA
ATOM      4  H   UNL     1       2.213   7.225  20.018  0.00  0.00    +0.000 HD
ENDROOT
BRANCH   1  13
ATOM      5  C   UNL     1      -1.605  12.653  22.297  0.00  0.00    +0.000 C 
ATOM      6  C   UNL     1      -1.670  11.985  20.957  0.00  0.00    +0.000 A 
ATOM      7  C   UNL     1      -2.622  12.307  20.069  0.00  0.00    +0.000 A 
ATOM      8  C   UNL     1      -2.742  11.686  18.742  0.00  0.00    +0.000 A 
ATOM      9  O   UNL     1      -3.634  12.020  17.971  0.00  0.00    +0.000 OA
ATOM     10  O   UNL     1      -1.809  10.720  18.423  0.00  0.00    +0.000 OA
ATOM     11  C   UNL     1      -0.789  10.366  19.328  0.00  0.00    +0.000 A 
ATOM     12  C   UNL     1       0.101   9.386  18.883  0.00  0.00    +0.000 A 
ATOM     13  C   UNL     1       1.142   8.960  19.704  0.00  0.00    +0.000 A 
ATOM     14  C   UNL     1       1.262   9.537  20.975  0.00  0.00    +0.000 A 
ATOM     15  C   UNL     1       0.361  10.529  21.410  0.00  0.00    +0.000 A 
ATOM     16  C   UNL     1      -0.685  10.958  20.585  0.00  0.00    +0.000 A 
ENDBRANCH   1  13
BRANCH   2  17
ATOM     17  C   UNL     1       3.514   6.613  17.871  0.00  0.00    +0.000 A 
ATOM     18  C   UNL     1       4.494   6.667  16.864  0.00  0.00    +0.000 A 
ATOM     19  C   UNL     1       5.252   5.541  16.539  0.00  0.00    +0.000 A 
ATOM     20  C   UNL     1       5.037   4.344  17.217  0.00  0.00    +0.000 A 
ATOM     21  C   UNL     1       4.092   4.297  18.246  0.00  0.00    +0.000 A 
ATOM     22  C   UNL     1       3.331   5.426  18.585  0.00  0.00    +0.000 A 
BRANCH  21  23
ATOM     23  S   UNL     1       3.742   2.741  19.047  0.00  0.00    +0.000 S 
ATOM     24  O   UNL     1       3.438   1.795  17.992  0.00  0.00    +0.000 OA
ATOM     25  O   UNL     1       4.811   2.492  19.988  0.00  0.00    +0.000 OA
BRANCH  23  26
ATOM     26  N   UNL     1       2.313   3.051  19.909  0.00  0.00    +0.000 NA
ATOM     27  C   UNL     1       1.050   2.592  19.309  0.00  0.00    +0.000 C 
ATOM     28  C   UNL     1       2.365   2.883  21.370  0.00  0.00    +0.000 C 
ENDBRANCH  23  26
ENDBRANCH  21  23
ENDBRANCH   2  17
TORSDOF 4
ENDMDL
MODEL 7
REMARK VINA RESULT:      -8.2      1.326      1.714
REMARK  Name = 
REMARK  7 active torsions:
REMARK  status: ('A' for Active; 'I' for Inactive)
REMARK    1  A    between atoms: C_1  and  C_2
REMARK    2  A    between atoms: C_9  and  N_10
REMARK    3  A    between atoms: C_11  and  C_13
REMARK    4  A    between atoms: C_17  and  S_18
REMARK    5  A    between atoms: S_18  and  N_21
REMARK    6  A    between atoms: N_21  and  C_22
REMARK    7  A    between atoms: N_21  and  C_23
REMARK                            x       y       z     vdW  Elec       q    Type
REMARK                         _______ _______ _______ _____ _____    ______ ____
ROOT
ATOM      1  N   UNL     1       1.920   8.145  19.263  0.00  0.00    +0.000 N 
ATOM      2  C   UNL     1       2.648   8.047  18.085  0.00  0.00    +0.000 C 
ATOM      3  O   UNL     1       2.651   8.860  17.167  0.00  0.00    +0.000 OA
ATOM      4  H   UNL     1       2.019   7.411  19.951  0.00  0.00    +0.000 HD
ENDROOT
BRANCH   1  13
ATOM      5  C   UNL     1      -3.086  12.532  19.446  0.00  0.00    +0.000 C 
ATOM      6  C   UNL     1      -1.958  12.215  20.379  0.00  0.00    +0.000 A 
ATOM      7  C   UNL     1      -1.805  12.883  21.533  0.00  0.00    +0.000 A 
ATOM      8  C   UNL     1      -0.717  12.623  22.486  0.00  0.00    +0.000 A 
ATOM      9  O   UNL     1      -0.627  13.267  23.526  0.00  0.00    +0.000 OA
ATOM     10  O   UNL     1       0.181  11.631  22.148  0.00  0.00    +0.000 OA
ATOM     11  C   UNL     1       0.043  10.902  20.950  0.00  0.00    +0.000 A 
ATOM     12  C   UNL     1       1.007   9.917  20.729  0.00  0.00    +0.000 A 
ATOM     13  C   UNL     1       0.965   9.143  19.571  0.00  0.00    +0.000 A 
ATOM     14  C   UNL     1      -0.060   9.388  18.648  0.00  0.00    +0.000 A 
ATOM     15  C   UNL     1      -1.031  10.381  18.886  0.00  0.00    +0.000 A 
ATOM     16  C   UNL     1      -0.989  11.158  20.050  0.00  0.00    +0.000 A 
ENDBRANCH   1  13
BRANCH   2  17
ATOM     17  C   UNL     1       3.477   6.820  17.901  0.00  0.00    +0.000 A 
ATOM     18  C   UNL     1       4.532   6.889  16.975  0.00  0.00    +0.000 A 
ATOM     19  C   UNL     1       5.319   5.770  16.699  0.00  0.00    +0.000 A 
ATOM     20  C   UNL     1       5.057   4.565  17.345  0.00  0.00    +0.000 A 
ATOM     21  C   UNL     1       4.035   4.503  18.297  0.00  0.00    +0.000 A 
ATOM     22  C   UNL     1       3.244   5.626  18.586  0.00  0.00    +0.000 A 
BRANCH  21  23
ATOM     23  S   UNL     1       3.630   2.937  19.052  0.00  0.00    +0.000 S 
ATOM     24  O   UNL     1       3.224   2.055  17.977  0.00  0.00    +0.000 OA
ATOM     25  O   UNL     1       4.725   2.589  19.931  0.00  0.00    +0.000 OA
BRANCH  23  26
ATOM     26  N   UNL     1       2.262   3.292  19.992  0.00  0.00    +0.000 NA
ATOM     27  C   UNL     1       0.955   2.860  19.471  0.00  0.00    +0.000 C 
ATOM     28  C   UNL     1       2.395   3.135  21.450  0.00  0.00    +0.000 C 
ENDBRANCH  23  26
ENDBRANCH  21  23
ENDBRANCH   2  17
TORSDOF 4
ENDMDL
MODEL 8
REMARK VINA RESULT:      -8.2      1.625      1.843
REMARK  Name = 
REMARK  7 active torsions:
REMARK  status: ('A' for Active; 'I' for Inactive)
REMARK    1  A    between atoms: C_1  and  C_2
REMARK    2  A    between atoms: C_9  and  N_10
REMARK    3  A    between atoms: C_11  and  C_13
REMARK    4  A    between atoms: C_17  and  S_18
REMARK    5  A    between atoms: S_18  and  N_21
REMARK    6  A    between atoms: N_21  and  C_22
REMARK    7  A    between atoms: N_21  and  C_23
REMARK                            x       y       z     vdW  Elec       q    Type
REMARK                         _______ _______ _______ _____ _____    ______ ____
ROOT
ATOM      1  N   UNL     1       1.486   8.631  19.424  0.00  0.00    +0.000 N 
ATOM      2  C   UNL     1       2.152   8.549  18.209  0.00  0.00    +0.000 C 
ATOM      3  O   UNL     1       2.158   9.403  17.328  0.00  0.00    +0.000 OA
ATOM      4  H   UNL     1       1.576   7.862  20.073  0.00  0.00    +0.000 HD
ENDROOT
BRANCH   1  13
ATOM      5  C   UNL     1      -1.769  13.642  22.362  0.00  0.00    +0.000 C 
ATOM      6  C   UNL     1      -2.052  12.791  21.162  0.00  0.00    +0.000 A 
ATOM      7  C   UNL     1      -3.166  12.969  20.434  0.00  0.00    +0.000 A 
ATOM      8  C   UNL     1      -3.503  12.164  19.251  0.00  0.00    +0.000 A 
ATOM      9  O   UNL     1      -4.536  12.372  18.625  0.00  0.00    +0.000 OA
ATOM     10  O   UNL     1      -2.605  11.178  18.895  0.00  0.00    +0.000 OA
ATOM     11  C   UNL     1      -1.421  10.972  19.631  0.00  0.00    +0.000 A 
ATOM     12  C   UNL     1      -0.588   9.953  19.162  0.00  0.00    +0.000 A 
ATOM     13  C   UNL     1       0.604   9.664  19.822  0.00  0.00    +0.000 A 
ATOM     14  C   UNL     1       0.932  10.416  20.957  0.00  0.00    +0.000 A 
ATOM     15  C   UNL     1       0.087  11.446  21.416  0.00  0.00    +0.000 A 
ATOM     16  C   UNL     1      -1.112  11.737  20.753  0.00  0.00    +0.000 A 
ENDBRANCH   1  13
BRANCH   2  17
ATOM     17  C   UNL     1       2.901   7.290  17.930  0.00  0.00    +0.000 A 
ATOM     18  C   UNL     1       4.131   7.406  17.259  0.00  0.00    +0.000 A 
ATOM     19  C   UNL     1       4.867   6.274  16.907  0.00  0.00    +0.000 A 
ATOM     20  C   UNL     1       4.379   5.008  17.221  0.00  0.00    +0.000 A 
ATOM     21  C   UNL     1       3.177   4.889  17.924  0.00  0.00    +0.000 A 
ATOM     22  C   UNL     1       2.434   6.023  18.288  0.00  0.00    +0.000 A 
BRANCH  21  23
ATOM     23  S   UNL     1       2.498   3.268  18.237  0.00  0.00    +0.000 S 
ATOM     24  O   UNL     1       1.087   3.345  17.919  0.00  0.00    +0.000 OA
ATOM     25  O   UNL     1       3.361   2.308  17.584  0.00  0.00    +0.000 OA
BRANCH  23  26
ATOM     26  N   UNL     1       2.654   3.091  19.918  0.00  0.00    +0.000 NA
ATOM     27  C   UNL     1       1.438   2.751  20.676  0.00  0.00    +0.000 C 
ATOM     28  C   UNL     1       3.863   2.410  20.409  0.00  0.00    +0.000 C 
ENDBRANCH  23  26
ENDBRANCH  21  23
ENDBRANCH   2  17
TORSDOF 4
ENDMDL
MODEL 9
REMARK VINA RESULT:      -8.2      2.847      3.799
REMARK  Name = 
REMARK  7 active torsions:
REMARK  status: ('A' for Active; 'I' for Inactive)
REMARK    1  A    between atoms: C_1  and  C_2
REMARK    2  A    between atoms: C_9  and  N_10
REMARK    3  A    between atoms: C_11  and  C_13
REMARK    4  A    between atoms: C_17  and  S_18
REMARK    5  A    between atoms: S_18  and  N_21
REMARK    6  A    between atoms: N_21  and  C_22
REMARK    7  A    between atoms: N_21  and  C_23
REMARK                            x       y       z     vdW  Elec       q    Type
REMARK                         _______ _______ _______ _____ _____    ______ ____
ROOT
ATOM      1  N   UNL     1       1.911   8.681  17.895  0.00  0.00    +0.000 N 
ATOM      2  C   UNL     1       2.258   7.650  18.757  0.00  0.00    +0.000 C 
ATOM      3  O   UNL     1       2.163   7.666  19.980  0.00  0.00    +0.000 OA
ATOM      4  H   UNL     1       2.024   8.534  16.901  0.00  0.00    +0.000 HD
ENDROOT
BRANCH   1  13
ATOM      5  C   UNL     1      -1.274  14.134  20.007  0.00  0.00    +0.000 C 
ATOM      6  C   UNL     1       0.076  13.896  19.402  0.00  0.00    +0.000 A 
ATOM      7  C   UNL     1       0.925  14.913  19.184  0.00  0.00    +0.000 A 
ATOM      8  C   UNL     1       2.259  14.747  18.591  0.00  0.00    +0.000 A 
ATOM      9  O   UNL     1       2.992  15.713  18.414  0.00  0.00    +0.000 OA
ATOM     10  O   UNL     1       2.631  13.461  18.249  0.00  0.00    +0.000 OA
ATOM     11  C   UNL     1       1.768  12.371  18.475  0.00  0.00    +0.000 A 
ATOM     12  C   UNL     1       2.265  11.121  18.099  0.00  0.00    +0.000 A 
ATOM     13  C   UNL     1       1.489   9.977  18.275  0.00  0.00    +0.000 A 
ATOM     14  C   UNL     1       0.211  10.123  18.829  0.00  0.00    +0.000 A 
ATOM     15  C   UNL     1      -0.276  11.389  19.210  0.00  0.00    +0.000 A 
ATOM     16  C   UNL     1       0.504  12.539  19.035  0.00  0.00    +0.000 A 
ENDBRANCH   1  13
BRANCH   2  17
ATOM     17  C   UNL     1       2.837   6.419  18.144  0.00  0.00    +0.000 A 
ATOM     18  C   UNL     1       2.162   5.207  18.372  0.00  0.00    +0.000 A 
ATOM     19  C   UNL     1       2.668   4.001  17.884  0.00  0.00    +0.000 A 
ATOM     20  C   UNL     1       3.859   3.993  17.163  0.00  0.00    +0.000 A 
ATOM     21  C   UNL     1       4.512   5.201  16.899  0.00  0.00    +0.000 A 
ATOM     22  C   UNL     1       4.006   6.419  17.379  0.00  0.00    +0.000 A 
BRANCH  21  23
ATOM     23  S   UNL     1       6.090   5.184  16.065  0.00  0.00    +0.000 S 
ATOM     24  O   UNL     1       6.387   3.796  15.775  0.00  0.00    +0.000 OA
ATOM     25  O   UNL     1       6.027   6.171  15.009  0.00  0.00    +0.000 OA
BRANCH  23  26
ATOM     26  N   UNL     1       7.174   5.721  17.255  0.00  0.00    +0.000 NA
ATOM     27  C   UNL     1       7.406   7.172  17.349  0.00  0.00    +0.000 C 
ATOM     28  C   UNL     1       7.118   5.049  18.563  0.00  0.00    +0.000 C 
ENDBRANCH  23  26
ENDBRANCH  21  23
ENDBRANCH   2  17
TORSDOF 4
ENDMDL
