MODEL 1
REMARK VINA RESULT:      -7.2      0.000      0.000
REMARK  Name = 
REMARK  7 active torsions:
REMARK  status: ('A' for Active; 'I' for Inactive)
REMARK    1  A    between atoms: C_2  and  C_3
REMARK    2  A    between atoms: C_3  and  N_4
REMARK    3  A    between atoms: C_8  and  C_9
REMARK    4  A    between atoms: C_9  and  N_10
REMARK    5  A    between atoms: N_16  and  C_17
REMARK    6  A    between atoms: C_17  and  C_18
REMARK    7  A    between atoms: C_18  and  C_19
REMARK                            x       y       z     vdW  Elec       q    Type
REMARK                         _______ _______ _______ _____ _____    ______ ____
ROOT
ATOM      1  C   UNL     1       4.460   6.390  18.049  0.00  0.00    +0.000 C 
ENDROOT
BRANCH   1   2
ATOM      2  N   UNL     1       5.297   5.298  18.579  0.00  0.00    +0.000 NA
ATOM      3  C   UNL     1       6.646   5.740  18.998  0.00  0.00    +0.000 C 
ATOM      4  C   UNL     1       7.584   6.056  17.825  0.00  0.00    +0.000 C 
ATOM      5  O   UNL     1       7.733   4.935  16.949  0.00  0.00    +0.000 OA
ATOM      6  C   UNL     1       6.489   4.411  16.449  0.00  0.00    +0.000 C 
ATOM      7  C   UNL     1       5.474   4.188  17.608  0.00  0.00    +0.000 C 
BRANCH   6   8
ATOM      8  C   UNL     1       5.919   5.246  15.298  0.00  0.00    +0.000 C 
BRANCH   8   9
ATOM      9  N   UNL     1       6.319   4.776  13.986  0.00  0.00    +0.000 N 
ATOM     10  C   UNL     1       5.764   3.728  13.307  0.00  0.00    +0.000 A 
ATOM     11  C   UNL     1       6.560   3.525  12.206  0.00  0.00    +0.000 A 
ATOM     12  C   UNL     1       7.572   4.497  12.315  0.00  0.00    +0.000 A 
ATOM     13  N   UNL     1       7.438   5.255  13.408  0.00  0.00    +0.000 NA
ENDBRANCH   8   9
ENDBRANCH   6   8
ENDBRANCH   1   2
BRANCH   1  15
ATOM     14  O   UNL     1       2.249   7.293  18.391  0.00  0.00    +0.000 OA
ATOM     15  C   UNL     1       3.131   6.536  18.794  0.00  0.00    +0.000 C 
ATOM     16  N   UNL     1       3.003   5.762  19.922  0.00  0.00    +0.000 N 
ATOM     17  H   UNL     1       3.718   5.067  20.106  0.00  0.00    +0.000 HD
BRANCH  16  18
ATOM     18  C   UNL     1       1.747   5.719  20.651  0.00  0.00    +0.000 C 
BRANCH  18  19
ATOM     19  C   UNL     1       1.070   4.354  20.554  0.00  0.00    +0.000 C 
BRANCH  19  20
ATOM     20  C   UNL     1       1.774   3.436  19.600  0.00  0.00    +0.000 A 
ATOM     21  C   UNL     1       1.525   3.245  18.254  0.00  0.00    +0.000 A 
ATOM     22  C   UNL     1       2.379   2.259  17.680  0.00  0.00    +0.000 A 
ATOM     23  C   UNL     1       3.257   1.737  18.603  0.00  0.00    +0.000 A 
ATOM     24  S   UNL     1       3.053   2.435  20.150  0.00  0.00    +0.000 S 
ENDBRANCH  19  20
ENDBRANCH  18  19
ENDBRANCH  16  18
ENDBRANCH   1  15
TORSDOF 7
ENDMDL
MODEL 2
REMARK VINA RESULT:      -6.9      1.898      2.702
REMARK  Name = 
REMARK  7 active torsions:
REMARK  status: ('A' for Active; 'I' for Inactive)
REMARK    1  A    between atoms: C_2  and  C_3
REMARK    2  A    between atoms: C_3  and  N_4
REMARK    3  A    between atoms: C_8  and  C_9
REMARK    4  A    between atoms: C_9  and  N_10
REMARK    5  A    between atoms: N_16  and  C_17
REMARK    6  A    between atoms: C_17  and  C_18
REMARK    7  A    between atoms: C_18  and  C_19
REMARK                            x       y       z     vdW  Elec       q    Type
REMARK                         _______ _______ _______ _____ _____    ______ ____
ROOT
ATOM      1  C   UNL     1       5.533   4.897  18.681  0.00  0.00    +0.000 C 
ENDROOT
BRANCH   1   2
ATOM      2  N   UNL     1       7.004   4.995  18.666  0.00  0.00    +0.000 NA
ATOM      3  C   UNL     1       7.502   6.385  18.760  0.00  0.00    +0.000 C 
ATOM      4  C   UNL     1       7.311   7.199  17.473  0.00  0.00    +0.000 C 
ATOM      5  O   UNL     1       7.942   6.573  16.351  0.00  0.00    +0.000 OA
ATOM      6  C   UNL     1       7.531   5.210  16.132  0.00  0.00    +0.000 C 
ATOM      7  C   UNL     1       7.606   4.388  17.452  0.00  0.00    +0.000 C 
BRANCH   6   8
ATOM      8  C   UNL     1       6.171   5.111  15.434  0.00  0.00    +0.000 C 
BRANCH   8   9
ATOM      9  N   UNL     1       6.253   4.635  14.066  0.00  0.00    +0.000 N 
ATOM     10  C   UNL     1       5.492   3.641  13.517  0.00  0.00    +0.000 A 
ATOM     11  C   UNL     1       6.025   3.399  12.274  0.00  0.00    +0.000 A 
ATOM     12  C   UNL     1       7.107   4.292  12.171  0.00  0.00    +0.000 A 
ATOM     13  N   UNL     1       7.260   5.040  13.268  0.00  0.00    +0.000 NA
ENDBRANCH   8   9
ENDBRANCH   6   8
ENDBRANCH   1   2
BRANCH   1  15
ATOM     14  O   UNL     1       5.236   2.839  19.906  0.00  0.00    +0.000 OA
ATOM     15  C   UNL     1       5.035   3.461  18.863  0.00  0.00    +0.000 C 
ATOM     16  N   UNL     1       4.351   2.937  17.793  0.00  0.00    +0.000 N 
ATOM     17  H   UNL     1       4.111   3.561  17.030  0.00  0.00    +0.000 HD
BRANCH  16  18
ATOM     18  C   UNL     1       3.724   1.629  17.884  0.00  0.00    +0.000 C 
BRANCH  18  19
ATOM     19  C   UNL     1       2.212   1.726  18.079  0.00  0.00    +0.000 C 
BRANCH  19  20
ATOM     20  C   UNL     1       1.843   2.635  19.214  0.00  0.00    +0.000 A 
ATOM     21  C   UNL     1       1.767   2.336  20.561  0.00  0.00    +0.000 A 
ATOM     22  C   UNL     1       1.345   3.453  21.340  0.00  0.00    +0.000 A 
ATOM     23  C   UNL     1       1.121   4.568  20.565  0.00  0.00    +0.000 A 
ATOM     24  S   UNL     1       1.422   4.269  18.909  0.00  0.00    +0.000 S 
ENDBRANCH  19  20
ENDBRANCH  18  19
ENDBRANCH  16  18
ENDBRANCH   1  15
TORSDOF 7
ENDMDL
MODEL 3
REMARK VINA RESULT:      -6.9      4.650      8.293
REMARK  Name = 
REMARK  7 active torsions:
REMARK  status: ('A' for Active; 'I' for Inactive)
REMARK    1  A    between atoms: C_2  and  C_3
REMARK    2  A    between atoms: C_3  and  N_4
REMARK    3  A    between atoms: C_8  and  C_9
REMARK    4  A    between atoms: C_9  and  N_10
REMARK    5  A    between atoms: N_16  and  C_17
REMARK    6  A    between atoms: C_17  and  C_18
REMARK    7  A    between atoms: C_18  and  C_19
REMARK                            x       y       z     vdW  Elec       q    Type
REMARK                         _______ _______ _______ _____ _____    ______ ____
ROOT
ATOM      1  C   UNL     1       7.058   6.742  16.736  0.00  0.00    +0.000 C 
ENDROOT
BRANCH   1   2
ATOM      2  N   UNL     1       7.378   5.303  16.707  0.00  0.00    +0.000 NA
ATOM      3  C   UNL     1       6.812   4.598  15.535  0.00  0.00    +0.000 C 
ATOM      4  C   UNL     1       5.294   4.386  15.615  0.00  0.00    +0.000 C 
ATOM      5  O   UNL     1       4.920   3.666  16.793  0.00  0.00    +0.000 OA
ATOM      6  C   UNL     1       5.394   4.256  18.018  0.00  0.00    +0.000 C 
ATOM      7  C   UNL     1       6.912   4.588  17.923  0.00  0.00    +0.000 C 
BRANCH   6   8
ATOM      8  C   UNL     1       4.541   5.448  18.464  0.00  0.00    +0.000 C 
BRANCH   8   9
ATOM      9  N   UNL     1       3.532   5.103  19.447  0.00  0.00    +0.000 N 
ATOM     10  C   UNL     1       3.295   3.853  19.947  0.00  0.00    +0.000 A 
ATOM     11  C   UNL     1       2.149   3.956  20.699  0.00  0.00    +0.000 A 
ATOM     12  C   UNL     1       1.770   5.306  20.584  0.00  0.00    +0.000 A 
ATOM     13  N   UNL     1       2.602   6.008  19.809  0.00  0.00    +0.000 NA
ENDBRANCH   8   9
ENDBRANCH   6   8
ENDBRANCH   1   2
BRANCH   1  15
ATOM     14  O   UNL     1       8.257   6.910  18.823  0.00  0.00    +0.000 OA
ATOM     15  C   UNL     1       7.807   7.495  17.839  0.00  0.00    +0.000 C 
ATOM     16  N   UNL     1       7.940   8.848  17.639  0.00  0.00    +0.000 N 
ATOM     17  H   UNL     1       7.662   9.226  16.741  0.00  0.00    +0.000 HD
BRANCH  16  18
ATOM     18  C   UNL     1       8.732   9.656  18.551  0.00  0.00    +0.000 C 
BRANCH  18  19
ATOM     19  C   UNL     1       8.944  11.075  18.030  0.00  0.00    +0.000 C 
BRANCH  19  20
ATOM     20  C   UNL     1      10.234  11.671  18.511  0.00  0.00    +0.000 A 
ATOM     21  C   UNL     1      10.870  11.474  19.722  0.00  0.00    +0.000 A 
ATOM     22  C   UNL     1      12.066  12.241  19.837  0.00  0.00    +0.000 A 
ATOM     23  C   UNL     1      12.308  12.990  18.708  0.00  0.00    +0.000 A 
ATOM     24  S   UNL     1      11.102  12.767  17.518  0.00  0.00    +0.000 S 
ENDBRANCH  19  20
ENDBRANCH  18  19
ENDBRANCH  16  18
ENDBRANCH   1  15
TORSDOF 7
ENDMDL
MODEL 4
REMARK VINA RESULT:      -6.7      0.785      1.078
REMARK  Name = 
REMARK  7 active torsions:
REMARK  status: ('A' for Active; 'I' for Inactive)
REMARK    1  A    between atoms: C_2  and  C_3
REMARK    2  A    between atoms: C_3  and  N_4
REMARK    3  A    between atoms: C_8  and  C_9
REMARK    4  A    between atoms: C_9  and  N_10
REMARK    5  A    between atoms: N_16  and  C_17
REMARK    6  A    between atoms: C_17  and  C_18
REMARK    7  A    between atoms: C_18  and  C_19
REMARK                            x       y       z     vdW  Elec       q    Type
REMARK                         _______ _______ _______ _____ _____    ______ ____
ROOT
ATOM      1  C   UNL     1       4.762   6.305  17.483  0.00  0.00    +0.000 C 
ENDROOT
BRANCH   1   2
ATOM      2  N   UNL     1       5.232   5.041  18.081  0.00  0.00    +0.000 NA
ATOM      3  C   UNL     1       6.412   5.208  18.958  0.00  0.00    +0.000 C 
ATOM      4  C   UNL     1       7.716   5.476  18.195  0.00  0.00    +0.000 C 
ATOM      5  O   UNL     1       8.003   4.437  17.253  0.00  0.00    +0.000 OA
ATOM      6  C   UNL     1       6.937   4.181  16.320  0.00  0.00    +0.000 C 
ATOM      7  C   UNL     1       5.577   4.018  17.060  0.00  0.00    +0.000 C 
BRANCH   6   8
ATOM      8  C   UNL     1       6.889   5.210  15.186  0.00  0.00    +0.000 C 
BRANCH   8   9
ATOM      9  N   UNL     1       6.923   4.616  13.862  0.00  0.00    +0.000 N 
ATOM     10  C   UNL     1       7.689   5.042  12.814  0.00  0.00    +0.000 A 
ATOM     11  C   UNL     1       7.275   4.318  11.723  0.00  0.00    +0.000 A 
ATOM     12  C   UNL     1       6.252   3.487  12.216  0.00  0.00    +0.000 A 
ATOM     13  N   UNL     1       6.023   3.675  13.519  0.00  0.00    +0.000 NA
ENDBRANCH   8   9
ENDBRANCH   6   8
ENDBRANCH   1   2
BRANCH   1  15
ATOM     14  O   UNL     1       2.862   7.778  17.681  0.00  0.00    +0.000 OA
ATOM     15  C   UNL     1       3.519   6.865  18.179  0.00  0.00    +0.000 C 
ATOM     16  N   UNL     1       3.199   6.271  19.376  0.00  0.00    +0.000 N 
ATOM     17  H   UNL     1       3.710   5.438  19.645  0.00  0.00    +0.000 HD
BRANCH  16  18
ATOM     18  C   UNL     1       1.977   6.629  20.076  0.00  0.00    +0.000 C 
BRANCH  18  19
ATOM     19  C   UNL     1       1.242   5.405  20.618  0.00  0.00    +0.000 C 
BRANCH  19  20
ATOM     20  C   UNL     1       1.608   4.150  19.882  0.00  0.00    +0.000 A 
ATOM     21  C   UNL     1       1.315   3.806  18.577  0.00  0.00    +0.000 A 
ATOM     22  C   UNL     1       1.798   2.510  18.236  0.00  0.00    +0.000 A 
ATOM     23  C   UNL     1       2.451   1.910  19.289  0.00  0.00    +0.000 A 
ATOM     24  S   UNL     1       2.483   2.908  20.677  0.00  0.00    +0.000 S 
ENDBRANCH  19  20
ENDBRANCH  18  19
ENDBRANCH  16  18
ENDBRANCH   1  15
TORSDOF 7
ENDMDL
MODEL 5
REMARK VINA RESULT:      -6.7      3.876      5.896
REMARK  Name = 
REMARK  7 active torsions:
REMARK  status: ('A' for Active; 'I' for Inactive)
REMARK    1  A    between atoms: C_2  and  C_3
REMARK    2  A    between atoms: C_3  and  N_4
REMARK    3  A    between atoms: C_8  and  C_9
REMARK    4  A    between atoms: C_9  and  N_10
REMARK    5  A    between atoms: N_16  and  C_17
REMARK    6  A    between atoms: C_17  and  C_18
REMARK    7  A    between atoms: C_18  and  C_19
REMARK                            x       y       z     vdW  Elec       q    Type
REMARK                         _______ _______ _______ _____ _____    ______ ____
ROOT
ATOM      1  C   UNL     1       2.306   5.068  20.026  0.00  0.00    +0.000 C 
ENDROOT
BRANCH   1   2
ATOM      2  N   UNL     1       1.333   4.380  19.157  0.00  0.00    +0.000 NA
ATOM      3  C   UNL     1       1.005   3.010  19.610  0.00  0.00    +0.000 C 
ATOM      4  C   UNL     1       2.128   1.993  19.367  0.00  0.00    +0.000 C 
ATOM      5  O   UNL     1       2.498   1.931  17.985  0.00  0.00    +0.000 OA
ATOM      6  C   UNL     1       2.861   3.203  17.417  0.00  0.00    +0.000 C 
ATOM      7  C   UNL     1       1.792   4.285  17.747  0.00  0.00    +0.000 C 
BRANCH   6   8
ATOM      8  C   UNL     1       4.285   3.627  17.789  0.00  0.00    +0.000 C 
BRANCH   8   9
ATOM      9  N   UNL     1       4.971   4.348  16.733  0.00  0.00    +0.000 N 
ATOM     10  C   UNL     1       4.890   5.692  16.498  0.00  0.00    +0.000 A 
ATOM     11  C   UNL     1       5.542   5.909  15.309  0.00  0.00    +0.000 A 
ATOM     12  C   UNL     1       5.975   4.633  14.903  0.00  0.00    +0.000 A 
ATOM     13  N   UNL     1       5.616   3.674  15.762  0.00  0.00    +0.000 NA
ENDBRANCH   8   9
ENDBRANCH   6   8
ENDBRANCH   1   2
BRANCH   1  15
ATOM     14  O   UNL     1       2.664   7.215  18.987  0.00  0.00    +0.000 OA
ATOM     15  C   UNL     1       2.204   6.593  19.943  0.00  0.00    +0.000 C 
ATOM     16  N   UNL     1       1.560   7.196  20.997  0.00  0.00    +0.000 N 
ATOM     17  H   UNL     1       1.093   6.602  21.672  0.00  0.00    +0.000 HD
BRANCH  16  18
ATOM     18  C   UNL     1       1.292   8.624  20.980  0.00  0.00    +0.000 C 
BRANCH  18  19
ATOM     19  C   UNL     1       0.726   9.121  22.308  0.00  0.00    +0.000 C 
BRANCH  19  20
ATOM     20  C   UNL     1      -0.226  10.266  22.128  0.00  0.00    +0.000 A 
ATOM     21  C   UNL     1      -0.989  10.904  23.086  0.00  0.00    +0.000 A 
ATOM     22  C   UNL     1      -1.807  11.932  22.532  0.00  0.00    +0.000 A 
ATOM     23  C   UNL     1      -1.635  12.049  21.172  0.00  0.00    +0.000 A 
ATOM     24  S   UNL     1      -0.492  10.929  20.570  0.00  0.00    +0.000 S 
ENDBRANCH  19  20
ENDBRANCH  18  19
ENDBRANCH  16  18
ENDBRANCH   1  15
TORSDOF 7
ENDMDL
MODEL 6
REMARK VINA RESULT:      -6.7      1.861      2.706
REMARK  Name = 
REMARK  7 active torsions:
REMARK  status: ('A' for Active; 'I' for Inactive)
REMARK    1  A    between atoms: C_2  and  C_3
REMARK    2  A    between atoms: C_3  and  N_4
REMARK    3  A    between atoms: C_8  and  C_9
REMARK    4  A    between atoms: C_9  and  N_10
REMARK    5  A    between atoms: N_16  and  C_17
REMARK    6  A    between atoms: C_17  and  C_18
REMARK    7  A    between atoms: C_18  and  C_19
REMARK                            x       y       z     vdW  Elec       q    Type
REMARK                         _______ _______ _______ _____ _____    ______ ____
ROOT
ATOM      1  C   UNL     1       5.459   4.903  18.594  0.00  0.00    +0.000 C 
ENDROOT
BRANCH   1   2
ATOM      2  N   UNL     1       6.929   5.006  18.535  0.00  0.00    +0.000 NA
ATOM      3  C   UNL     1       7.422   6.401  18.553  0.00  0.00    +0.000 C 
ATOM      4  C   UNL     1       7.192   7.155  17.236  0.00  0.00    +0.000 C 
ATOM      5  O   UNL     1       7.796   6.482  16.127  0.00  0.00    +0.000 OA
ATOM      6  C   UNL     1       7.387   5.109  15.980  0.00  0.00    +0.000 C 
ATOM      7  C   UNL     1       7.501   4.347  17.334  0.00  0.00    +0.000 C 
BRANCH   6   8
ATOM      8  C   UNL     1       6.010   4.974  15.324  0.00  0.00    +0.000 C 
BRANCH   8   9
ATOM      9  N   UNL     1       6.040   4.286  14.048  0.00  0.00    +0.000 N 
ATOM     10  C   UNL     1       7.086   4.277  13.168  0.00  0.00    +0.000 A 
ATOM     11  C   UNL     1       6.619   3.665  12.030  0.00  0.00    +0.000 A 
ATOM     12  C   UNL     1       5.279   3.349  12.321  0.00  0.00    +0.000 A 
ATOM     13  N   UNL     1       4.916   3.738  13.547  0.00  0.00    +0.000 NA
ENDBRANCH   8   9
ENDBRANCH   6   8
ENDBRANCH   1   2
BRANCH   1  15
ATOM     14  O   UNL     1       5.260   2.851  19.847  0.00  0.00    +0.000 OA
ATOM     15  C   UNL     1       4.972   3.470  18.823  0.00  0.00    +0.000 C 
ATOM     16  N   UNL     1       4.196   2.946  17.817  0.00  0.00    +0.000 N 
ATOM     17  H   UNL     1       3.894   3.568  17.076  0.00  0.00    +0.000 HD
BRANCH  16  18
ATOM     18  C   UNL     1       3.574   1.641  17.967  0.00  0.00    +0.000 C 
BRANCH  18  19
ATOM     19  C   UNL     1       2.088   1.745  18.303  0.00  0.00    +0.000 C 
BRANCH  19  20
ATOM     20  C   UNL     1       1.807   2.822  19.308  0.00  0.00    +0.000 A 
ATOM     21  C   UNL     1       1.457   4.139  19.078  0.00  0.00    +0.000 A 
ATOM     22  C   UNL     1       1.303   4.878  20.287  0.00  0.00    +0.000 A 
ATOM     23  C   UNL     1       1.533   4.101  21.399  0.00  0.00    +0.000 A 
ATOM     24  S   UNL     1       1.927   2.489  20.986  0.00  0.00    +0.000 S 
ENDBRANCH  19  20
ENDBRANCH  18  19
ENDBRANCH  16  18
ENDBRANCH   1  15
TORSDOF 7
ENDMDL
MODEL 7
REMARK VINA RESULT:      -6.6      4.555      7.926
REMARK  Name = 
REMARK  7 active torsions:
REMARK  status: ('A' for Active; 'I' for Inactive)
REMARK    1  A    between atoms: C_2  and  C_3
REMARK    2  A    between atoms: C_3  and  N_4
REMARK    3  A    between atoms: C_8  and  C_9
REMARK    4  A    between atoms: C_9  and  N_10
REMARK    5  A    between atoms: N_16  and  C_17
REMARK    6  A    between atoms: C_17  and  C_18
REMARK    7  A    between atoms: C_18  and  C_19
REMARK                            x       y       z     vdW  Elec       q    Type
REMARK                         _______ _______ _______ _____ _____    ______ ____
ROOT
ATOM      1  C   UNL     1       6.923   6.942  17.031  0.00  0.00    +0.000 C 
ENDROOT
BRANCH   1   2
ATOM      2  N   UNL     1       7.254   5.516  16.855  0.00  0.00    +0.000 NA
ATOM      3  C   UNL     1       7.060   5.034  15.469  0.00  0.00    +0.000 C 
ATOM      4  C   UNL     1       5.586   4.868  15.073  0.00  0.00    +0.000 C 
ATOM      5  O   UNL     1       4.896   3.979  15.957  0.00  0.00    +0.000 OA
ATOM      6  C   UNL     1       4.989   4.343  17.347  0.00  0.00    +0.000 C 
ATOM      7  C   UNL     1       6.465   4.630  17.749  0.00  0.00    +0.000 C 
BRANCH   6   8
ATOM      8  C   UNL     1       4.029   5.476  17.723  0.00  0.00    +0.000 C 
BRANCH   8   9
ATOM      9  N   UNL     1       3.153   5.151  18.832  0.00  0.00    +0.000 N 
ATOM     10  C   UNL     1       2.497   3.966  19.014  0.00  0.00    +0.000 A 
ATOM     11  C   UNL     1       1.651   4.160  20.079  0.00  0.00    +0.000 A 
ATOM     12  C   UNL     1       1.868   5.496  20.465  0.00  0.00    +0.000 A 
ATOM     13  N   UNL     1       2.774   6.110  19.699  0.00  0.00    +0.000 NA
ENDBRANCH   8   9
ENDBRANCH   6   8
ENDBRANCH   1   2
BRANCH   1  15
ATOM     14  O   UNL     1       8.384   7.014  18.950  0.00  0.00    +0.000 OA
ATOM     15  C   UNL     1       7.828   7.641  18.049  0.00  0.00    +0.000 C 
ATOM     16  N   UNL     1       7.974   8.996  17.871  0.00  0.00    +0.000 N 
ATOM     17  H   UNL     1       7.594   9.409  17.027  0.00  0.00    +0.000 HD
BRANCH  16  18
ATOM     18  C   UNL     1       8.899   9.754  18.695  0.00  0.00    +0.000 C 
BRANCH  18  19
ATOM     19  C   UNL     1       9.584  10.874  17.914  0.00  0.00    +0.000 C 
BRANCH  19  20
ATOM     20  C   UNL     1       8.838  12.172  18.008  0.00  0.00    +0.000 A 
ATOM     21  C   UNL     1       7.768  12.602  17.246  0.00  0.00    +0.000 A 
ATOM     22  C   UNL     1       7.342  13.915  17.603  0.00  0.00    +0.000 A 
ATOM     23  C   UNL     1       8.095  14.440  18.629  0.00  0.00    +0.000 A 
ATOM     24  S   UNL     1       9.304  13.353  19.159  0.00  0.00    +0.000 S 
ENDBRANCH  19  20
ENDBRANCH  18  19
ENDBRANCH  16  18
ENDBRANCH   1  15
TORSDOF 7
ENDMDL
MODEL 8
REMARK VINA RESULT:      -6.6      3.767      5.839
REMARK  Name = 
REMARK  7 active torsions:
REMARK  status: ('A' for Active; 'I' for Inactive)
REMARK    1  A    between atoms: C_2  and  C_3
REMARK    2  A    between atoms: C_3  and  N_4
REMARK    3  A    between atoms: C_8  and  C_9
REMARK    4  A    between atoms: C_9  and  N_10
REMARK    5  A    between atoms: N_16  and  C_17
REMARK    6  A    between atoms: C_17  and  C_18
REMARK    7  A    between atoms: C_18  and  C_19
REMARK                            x       y       z     vdW  Elec       q    Type
REMARK                         _______ _______ _______ _____ _____    ______ ____
ROOT
ATOM      1  C   UNL     1       2.286   5.276  19.954  0.00  0.00    +0.000 C 
ENDROOT
BRANCH   1   2
ATOM      2  N   UNL     1       1.819   4.689  18.684  0.00  0.00    +0.000 NA
ATOM      3  C   UNL     1       1.181   3.363  18.847  0.00  0.00    +0.000 C 
ATOM      4  C   UNL     1       2.176   2.233  19.147  0.00  0.00    +0.000 C 
ATOM      5  O   UNL     1       3.178   2.126  18.131  0.00  0.00    +0.000 OA
ATOM      6  C   UNL     1       3.894   3.350  17.881  0.00  0.00    +0.000 C 
ATOM      7  C   UNL     1       2.909   4.540  17.687  0.00  0.00    +0.000 C 
BRANCH   6   8
ATOM      8  C   UNL     1       4.974   3.624  18.932  0.00  0.00    +0.000 C 
BRANCH   8   9
ATOM      9  N   UNL     1       6.033   4.496  18.462  0.00  0.00    +0.000 N 
ATOM     10  C   UNL     1       6.615   5.506  19.175  0.00  0.00    +0.000 A 
ATOM     11  C   UNL     1       7.427   6.176  18.292  0.00  0.00    +0.000 A 
ATOM     12  C   UNL     1       7.259   5.497  17.071  0.00  0.00    +0.000 A 
ATOM     13  N   UNL     1       6.399   4.479  17.165  0.00  0.00    +0.000 NA
ENDBRANCH   8   9
ENDBRANCH   6   8
ENDBRANCH   1   2
BRANCH   1  15
ATOM     14  O   UNL     1       2.325   7.499  19.019  0.00  0.00    +0.000 OA
ATOM     15  C   UNL     1       2.114   6.796  20.006  0.00  0.00    +0.000 C 
ATOM     16  N   UNL     1       1.703   7.299  21.217  0.00  0.00    +0.000 N 
ATOM     17  H   UNL     1       1.420   6.641  21.934  0.00  0.00    +0.000 HD
BRANCH  16  18
ATOM     18  C   UNL     1       1.388   8.710  21.363  0.00  0.00    +0.000 C 
BRANCH  18  19
ATOM     19  C   UNL     1      -0.115   8.976  21.296  0.00  0.00    +0.000 C 
BRANCH  19  20
ATOM     20  C   UNL     1      -0.448  10.137  20.407  0.00  0.00    +0.000 A 
ATOM     21  C   UNL     1      -0.357  10.216  19.031  0.00  0.00    +0.000 A 
ATOM     22  C   UNL     1      -0.728  11.501  18.536  0.00  0.00    +0.000 A 
ATOM     23  C   UNL     1      -1.097  12.356  19.550  0.00  0.00    +0.000 A 
ATOM     24  S   UNL     1      -1.000  11.612  21.085  0.00  0.00    +0.000 S 
ENDBRANCH  19  20
ENDBRANCH  18  19
ENDBRANCH  16  18
ENDBRANCH   1  15
TORSDOF 7
ENDMDL
MODEL 9
REMARK VINA RESULT:      -6.5      3.615      6.455
REMARK  Name = 
REMARK  7 active torsions:
REMARK  status: ('A' for Active; 'I' for Inactive)
REMARK    1  A    between atoms: C_2  and  C_3
REMARK    2  A    between atoms: C_3  and  N_4
REMARK    3  A    between atoms: C_8  and  C_9
REMARK    4  A    between atoms: C_9  and  N_10
REMARK    5  A    between atoms: N_16  and  C_17
REMARK    6  A    between atoms: C_17  and  C_18
REMARK    7  A    between atoms: C_18  and  C_19
REMARK                            x       y       z     vdW  Elec       q    Type
REMARK                         _______ _______ _______ _____ _____    ______ ____
ROOT
ATOM      1  C   UNL     1       2.912   6.718  17.846  0.00  0.00    +0.000 C 
ENDROOT
BRANCH   1   2
ATOM      2  N   UNL     1       4.363   6.555  18.058  0.00  0.00    +0.000 NA
ATOM      3  C   UNL     1       5.129   6.414  16.799  0.00  0.00    +0.000 C 
ATOM      4  C   UNL     1       4.949   5.051  16.116  0.00  0.00    +0.000 C 
ATOM      5  O   UNL     1       5.310   3.971  16.984  0.00  0.00    +0.000 OA
ATOM      6  C   UNL     1       4.620   3.977  18.247  0.00  0.00    +0.000 C 
ATOM      7  C   UNL     1       4.689   5.384  18.911  0.00  0.00    +0.000 C 
BRANCH   6   8
ATOM      8  C   UNL     1       3.195   3.427  18.141  0.00  0.00    +0.000 C 
BRANCH   8   9
ATOM      9  N   UNL     1       2.591   3.128  19.426  0.00  0.00    +0.000 N 
ATOM     10  C   UNL     1       1.322   3.458  19.810  0.00  0.00    +0.000 A 
ATOM     11  C   UNL     1       1.237   3.149  21.146  0.00  0.00    +0.000 A 
ATOM     12  C   UNL     1       2.509   2.645  21.474  0.00  0.00    +0.000 A 
ATOM     13  N   UNL     1       3.344   2.643  20.431  0.00  0.00    +0.000 NA
ENDBRANCH   8   9
ENDBRANCH   6   8
ENDBRANCH   1   2
BRANCH   1  15
ATOM     14  O   UNL     1       2.212   7.619  19.973  0.00  0.00    +0.000 OA
ATOM     15  C   UNL     1       2.295   7.784  18.756  0.00  0.00    +0.000 C 
ATOM     16  N   UNL     1       1.860   8.920  18.117  0.00  0.00    +0.000 N 
ATOM     17  H   UNL     1       2.091   9.032  17.136  0.00  0.00    +0.000 HD
BRANCH  16  18
ATOM     18  C   UNL     1       1.366  10.054  18.879  0.00  0.00    +0.000 C 
BRANCH  18  19
ATOM     19  C   UNL     1      -0.117   9.921  19.217  0.00  0.00    +0.000 C 
BRANCH  19  20
ATOM     20  C   UNL     1      -0.410  10.275  20.644  0.00  0.00    +0.000 A 
ATOM     21  C   UNL     1      -0.805  11.495  21.160  0.00  0.00    +0.000 A 
ATOM     22  C   UNL     1      -0.955  11.460  22.577  0.00  0.00    +0.000 A 
ATOM     23  C   UNL     1      -0.677  10.215  23.095  0.00  0.00    +0.000 A 
ATOM     24  S   UNL     1      -0.244   9.096  21.878  0.00  0.00    +0.000 S 
ENDBRANCH  19  20
ENDBRANCH  18  19
ENDBRANCH  16  18
ENDBRANCH   1  15
TORSDOF 7
ENDMDL
