MODEL 1
REMARK VINA RESULT:      -8.8      0.000      0.000
REMARK  Name = 
REMARK  8 active torsions:
REMARK  status: ('A' for Active; 'I' for Inactive)
REMARK    1  A    between atoms: C_1  and  C_2
REMARK    2  A    between atoms: C_2  and  N_3
REMARK    3  A    between atoms: N_6  and  C_7
REMARK    4  A    between atoms: C_9  and  C_10
REMARK    5  A    between atoms: C_14  and  O_15
REMARK    6  A    between atoms: O_15  and  C_16
REMARK    7  A    between atoms: C_22  and  C_24
REMARK    8  A    between atoms: C_30  and  C_31
REMARK                            x       y       z     vdW  Elec       q    Type
REMARK                         _______ _______ _______ _____ _____    ______ ____
ROOT
ATOM      1  C   UNL     1       1.780   7.244  20.106  0.00  0.00    +0.000 A 
ATOM      2  C   UNL     1       2.931   7.055  19.340  0.00  0.00    +0.000 A 
ATOM      3  C   UNL     1       3.545   5.800  19.098  0.00  0.00    +0.000 A 
ATOM      4  C   UNL     1       2.918   4.665  19.587  0.00  0.00    +0.000 A 
ATOM      5  C   UNL     1       1.767   4.817  20.416  0.00  0.00    +0.000 A 
ATOM      6  C   UNL     1       1.230   6.097  20.676  0.00  0.00    +0.000 A 
ATOM      7  O   UNL     1       3.189   3.414  19.107  0.00  0.00    +0.000 OA
ATOM      8  C   UNL     1       4.538   2.963  19.044  0.00  0.00    +0.000 C 
ATOM      9  C   UNL     1       5.474   3.557  17.986  0.00  0.00    +0.000 C 
ATOM     10  N   UNL     1       5.766   4.981  18.011  0.00  0.00    +0.000 N 
ATOM     11  C   UNL     1       6.850   5.380  17.179  0.00  0.00    +0.000 C 
ATOM     12  O   UNL     1       7.678   4.585  16.743  0.00  0.00    +0.000 OA
ATOM     13  C   UNL     1       4.695   5.927  18.156  0.00  0.00    +0.000 C 
ENDROOT
BRANCH   1  16
ATOM     14  C   UNL     1       0.010  10.500  19.219  0.00  0.00    +0.000 A 
ATOM     15  C   UNL     1       0.646   9.256  19.123  0.00  0.00    +0.000 A 
ATOM     16  C   UNL     1       1.195   8.598  20.241  0.00  0.00    +0.000 A 
ATOM     17  C   UNL     1       1.103   9.256  21.474  0.00  0.00    +0.000 A 
ATOM     18  C   UNL     1       0.503  10.519  21.580  0.00  0.00    +0.000 A 
ATOM     19  C   UNL     1      -0.054  11.149  20.457  0.00  0.00    +0.000 A 
ATOM     20  C   UNL     1      -0.768  12.457  20.636  0.00  0.00    +0.000 C 
BRANCH  14  24
ATOM     21  N   UNL     1      -2.111  11.403  16.434  0.00  0.00    +0.000 N 
ATOM     22  C   UNL     1      -1.746  10.644  17.516  0.00  0.00    +0.000 C 
ATOM     23  O   UNL     1      -2.446   9.736  17.963  0.00  0.00    +0.000 OA
ATOM     24  N   UNL     1      -0.554  11.089  18.065  0.00  0.00    +0.000 N 
ATOM     25  H   UNL     1      -1.343  11.581  15.802  0.00  0.00    +0.000 HD
ATOM     26  H   UNL     1      -0.425  12.081  17.942  0.00  0.00    +0.000 HD
BRANCH  21  28
ATOM     27  C   UNL     1      -3.373  10.241  14.660  0.00  0.00    +0.000 C 
ATOM     28  C   UNL     1      -3.416  11.183  15.849  0.00  0.00    +0.000 C 
ENDBRANCH  21  28
ENDBRANCH  14  24
ENDBRANCH   1  16
BRANCH  11  29
ATOM     29  C   UNL     1       6.990   6.844  16.813  0.00  0.00    +0.000 C 
ATOM     30  C   UNL     1       6.471   7.898  17.760  0.00  0.00    +0.000 C 
ATOM     31  C   UNL     1       7.948   7.774  17.529  0.00  0.00    +0.000 C 
ENDBRANCH  11  29
BRANCH   5  32
ATOM     32  O   UNL     1       1.206   3.664  20.926  0.00  0.00    +0.000 OA
ATOM     33  C   UNL     1       1.930   2.980  21.949  0.00  0.00    +0.000 C 
ENDBRANCH   5  32
TORSDOF 5
ENDMDL
MODEL 2
REMARK VINA RESULT:      -8.1      3.151      9.863
REMARK  Name = 
REMARK  8 active torsions:
REMARK  status: ('A' for Active; 'I' for Inactive)
REMARK    1  A    between atoms: C_1  and  C_2
REMARK    2  A    between atoms: C_2  and  N_3
REMARK    3  A    between atoms: N_6  and  C_7
REMARK    4  A    between atoms: C_9  and  C_10
REMARK    5  A    between atoms: C_14  and  O_15
REMARK    6  A    between atoms: O_15  and  C_16
REMARK    7  A    between atoms: C_22  and  C_24
REMARK    8  A    between atoms: C_30  and  C_31
REMARK                            x       y       z     vdW  Elec       q    Type
REMARK                         _______ _______ _______ _____ _____    ______ ____
ROOT
ATOM      1  C   UNL     1       0.567  10.813  20.089  0.00  0.00    +0.000 A 
ATOM      2  C   UNL     1      -0.785  11.044  19.831  0.00  0.00    +0.000 A 
ATOM      3  C   UNL     1      -1.524  12.152  20.316  0.00  0.00    +0.000 A 
ATOM      4  C   UNL     1      -0.843  13.124  21.029  0.00  0.00    +0.000 A 
ATOM      5  C   UNL     1       0.528  12.905  21.357  0.00  0.00    +0.000 A 
ATOM      6  C   UNL     1       1.202  11.752  20.900  0.00  0.00    +0.000 A 
ATOM      7  O   UNL     1      -1.340  14.385  21.209  0.00  0.00    +0.000 OA
ATOM      8  C   UNL     1      -2.656  14.554  21.724  0.00  0.00    +0.000 C 
ATOM      9  C   UNL     1      -3.855  14.224  20.830  0.00  0.00    +0.000 C 
ATOM     10  N   UNL     1      -4.030  12.864  20.345  0.00  0.00    +0.000 N 
ATOM     11  C   UNL     1      -5.304  12.598  19.769  0.00  0.00    +0.000 C 
ATOM     12  O   UNL     1      -6.280  13.319  19.955  0.00  0.00    +0.000 OA
ATOM     13  C   UNL     1      -2.915  12.161  19.775  0.00  0.00    +0.000 C 
ENDROOT
BRANCH   1  16
ATOM     14  C   UNL     1       2.195   7.387  19.721  0.00  0.00    +0.000 A 
ATOM     15  C   UNL     1       1.625   8.544  20.268  0.00  0.00    +0.000 A 
ATOM     16  C   UNL     1       1.248   9.648  19.479  0.00  0.00    +0.000 A 
ATOM     17  C   UNL     1       1.491   9.557  18.102  0.00  0.00    +0.000 A 
ATOM     18  C   UNL     1       2.096   8.422  17.545  0.00  0.00    +0.000 A 
ATOM     19  C   UNL     1       2.448   7.325  18.347  0.00  0.00    +0.000 A 
ATOM     20  C   UNL     1       3.007   6.096  17.693  0.00  0.00    +0.000 C 
BRANCH  14  24
ATOM     21  N   UNL     1       2.251   4.244  21.506  0.00  0.00    +0.000 N 
ATOM     22  C   UNL     1       1.705   5.180  20.666  0.00  0.00    +0.000 C 
ATOM     23  O   UNL     1       0.662   4.991  20.041  0.00  0.00    +0.000 OA
ATOM     24  N   UNL     1       2.516   6.299  20.564  0.00  0.00    +0.000 N 
ATOM     25  H   UNL     1       2.605   4.643  22.363  0.00  0.00    +0.000 HD
ATOM     26  H   UNL     1       3.491   6.074  20.678  0.00  0.00    +0.000 HD
BRANCH  21  28
ATOM     27  C   UNL     1       1.782   2.131  20.318  0.00  0.00    +0.000 C 
ATOM     28  C   UNL     1       1.619   2.943  21.589  0.00  0.00    +0.000 C 
ENDBRANCH  21  28
ENDBRANCH  14  24
ENDBRANCH   1  16
BRANCH  11  29
ATOM     29  C   UNL     1      -5.465  11.376  18.886  0.00  0.00    +0.000 C 
ATOM     30  C   UNL     1      -6.759  11.169  18.135  0.00  0.00    +0.000 C 
ATOM     31  C   UNL     1      -5.499  11.464  17.374  0.00  0.00    +0.000 C 
ENDBRANCH  11  29
BRANCH   5  32
ATOM     32  O   UNL     1       1.154  13.873  22.116  0.00  0.00    +0.000 OA
ATOM     33  C   UNL     1       2.208  14.611  21.496  0.00  0.00    +0.000 C 
ENDBRANCH   5  32
TORSDOF 5
ENDMDL
MODEL 3
REMARK VINA RESULT:      -7.9      3.745      9.083
REMARK  Name = 
REMARK  8 active torsions:
REMARK  status: ('A' for Active; 'I' for Inactive)
REMARK    1  A    between atoms: C_1  and  C_2
REMARK    2  A    between atoms: C_2  and  N_3
REMARK    3  A    between atoms: N_6  and  C_7
REMARK    4  A    between atoms: C_9  and  C_10
REMARK    5  A    between atoms: C_14  and  O_15
REMARK    6  A    between atoms: O_15  and  C_16
REMARK    7  A    between atoms: C_22  and  C_24
REMARK    8  A    between atoms: C_30  and  C_31
REMARK                            x       y       z     vdW  Elec       q    Type
REMARK                         _______ _______ _______ _____ _____    ______ ____
ROOT
ATOM      1  C   UNL     1       0.681  10.629  20.473  0.00  0.00    +0.000 A 
ATOM      2  C   UNL     1       0.957  11.932  20.057  0.00  0.00    +0.000 A 
ATOM      3  C   UNL     1       0.465  13.104  20.685  0.00  0.00    +0.000 A 
ATOM      4  C   UNL     1      -0.277  12.955  21.845  0.00  0.00    +0.000 A 
ATOM      5  C   UNL     1      -0.624  11.640  22.278  0.00  0.00    +0.000 A 
ATOM      6  C   UNL     1      -0.157  10.506  21.579  0.00  0.00    +0.000 A 
ATOM      7  O   UNL     1      -0.471  13.981  22.728  0.00  0.00    +0.000 OA
ATOM      8  C   UNL     1      -0.967  15.229  22.256  0.00  0.00    +0.000 C 
ATOM      9  C   UNL     1      -0.047  16.133  21.429  0.00  0.00    +0.000 C 
ATOM     10  N   UNL     1       0.465  15.654  20.154  0.00  0.00    +0.000 N 
ATOM     11  C   UNL     1       1.067  16.656  19.342  0.00  0.00    +0.000 C 
ATOM     12  O   UNL     1       0.884  17.856  19.525  0.00  0.00    +0.000 OA
ATOM     13  C   UNL     1       1.029  14.336  20.061  0.00  0.00    +0.000 C 
ENDROOT
BRANCH   1  16
ATOM     14  C   UNL     1       2.214   7.195  19.851  0.00  0.00    +0.000 A 
ATOM     15  C   UNL     1       1.701   8.335  20.483  0.00  0.00    +0.000 A 
ATOM     16  C   UNL     1       1.301   9.481  19.770  0.00  0.00    +0.000 A 
ATOM     17  C   UNL     1       1.459   9.451  18.378  0.00  0.00    +0.000 A 
ATOM     18  C   UNL     1       2.007   8.333  17.735  0.00  0.00    +0.000 A 
ATOM     19  C   UNL     1       2.383   7.193  18.462  0.00  0.00    +0.000 A 
ATOM     20  C   UNL     1       2.877   5.986  17.720  0.00  0.00    +0.000 C 
BRANCH  14  24
ATOM     21  N   UNL     1       2.301   3.979  21.499  0.00  0.00    +0.000 N 
ATOM     22  C   UNL     1       1.723   4.966  20.743  0.00  0.00    +0.000 C 
ATOM     23  O   UNL     1       0.630   4.836  20.195  0.00  0.00    +0.000 OA
ATOM     24  N   UNL     1       2.561   6.063  20.622  0.00  0.00    +0.000 N 
ATOM     25  H   UNL     1       2.734   4.331  22.341  0.00  0.00    +0.000 HD
ATOM     26  H   UNL     1       3.535   5.804  20.650  0.00  0.00    +0.000 HD
BRANCH  21  28
ATOM     27  C   UNL     1       1.698   1.920  20.279  0.00  0.00    +0.000 C 
ATOM     28  C   UNL     1       1.634   2.697  21.581  0.00  0.00    +0.000 C 
ENDBRANCH  21  28
ENDBRANCH  14  24
ENDBRANCH   1  16
BRANCH  11  29
ATOM     29  C   UNL     1       1.974  16.227  18.206  0.00  0.00    +0.000 C 
ATOM     30  C   UNL     1       2.531  17.271  17.268  0.00  0.00    +0.000 C 
ATOM     31  C   UNL     1       3.457  16.533  18.189  0.00  0.00    +0.000 C 
ENDBRANCH  11  29
BRANCH   5  32
ATOM     32  O   UNL     1      -1.409  11.539  23.408  0.00  0.00    +0.000 OA
ATOM     33  C   UNL     1      -2.763  11.985  23.307  0.00  0.00    +0.000 C 
ENDBRANCH   5  32
TORSDOF 5
ENDMDL
MODEL 4
REMARK VINA RESULT:      -7.9      2.458      2.889
REMARK  Name = 
REMARK  8 active torsions:
REMARK  status: ('A' for Active; 'I' for Inactive)
REMARK    1  A    between atoms: C_1  and  C_2
REMARK    2  A    between atoms: C_2  and  N_3
REMARK    3  A    between atoms: N_6  and  C_7
REMARK    4  A    between atoms: C_9  and  C_10
REMARK    5  A    between atoms: C_14  and  O_15
REMARK    6  A    between atoms: O_15  and  C_16
REMARK    7  A    between atoms: C_22  and  C_24
REMARK    8  A    between atoms: C_30  and  C_31
REMARK                            x       y       z     vdW  Elec       q    Type
REMARK                         _______ _______ _______ _____ _____    ______ ____
ROOT
ATOM      1  C   UNL     1       1.566   7.046  20.555  0.00  0.00    +0.000 A 
ATOM      2  C   UNL     1       2.746   7.036  19.810  0.00  0.00    +0.000 A 
ATOM      3  C   UNL     1       3.345   5.875  19.258  0.00  0.00    +0.000 A 
ATOM      4  C   UNL     1       2.672   4.671  19.393  0.00  0.00    +0.000 A 
ATOM      5  C   UNL     1       1.488   4.628  20.188  0.00  0.00    +0.000 A 
ATOM      6  C   UNL     1       0.967   5.806  20.768  0.00  0.00    +0.000 A 
ATOM      7  O   UNL     1       2.938   3.590  18.600  0.00  0.00    +0.000 OA
ATOM      8  C   UNL     1       4.279   3.130  18.467  0.00  0.00    +0.000 C 
ATOM      9  C   UNL     1       5.274   3.958  17.648  0.00  0.00    +0.000 C 
ATOM     10  N   UNL     1       5.595   5.311  18.073  0.00  0.00    +0.000 N 
ATOM     11  C   UNL     1       6.724   5.886  17.424  0.00  0.00    +0.000 C 
ATOM     12  O   UNL     1       7.554   5.214  16.819  0.00  0.00    +0.000 OA
ATOM     13  C   UNL     1       4.539   6.216  18.431  0.00  0.00    +0.000 C 
ENDROOT
BRANCH   1  16
ATOM     14  C   UNL     1       0.542  10.716  20.630  0.00  0.00    +0.000 A 
ATOM     15  C   UNL     1       1.128   9.500  20.257  0.00  0.00    +0.000 A 
ATOM     16  C   UNL     1       1.005   8.331  21.033  0.00  0.00    +0.000 A 
ATOM     17  C   UNL     1       0.282   8.435  22.228  0.00  0.00    +0.000 A 
ATOM     18  C   UNL     1      -0.278   9.655  22.634  0.00  0.00    +0.000 A 
ATOM     19  C   UNL     1      -0.159  10.804  21.837  0.00  0.00    +0.000 A 
ATOM     20  C   UNL     1      -0.854  12.063  22.267  0.00  0.00    +0.000 C 
BRANCH  14  24
ATOM     21  N   UNL     1       1.554  13.812  19.060  0.00  0.00    +0.000 N 
ATOM     22  C   UNL     1       1.581  12.857  20.044  0.00  0.00    +0.000 C 
ATOM     23  O   UNL     1       2.373  12.887  20.985  0.00  0.00    +0.000 OA
ATOM     24  N   UNL     1       0.672  11.843  19.786  0.00  0.00    +0.000 N 
ATOM     25  H   UNL     1       0.616  14.080  18.799  0.00  0.00    +0.000 HD
ATOM     26  H   UNL     1       0.530  11.701  18.799  0.00  0.00    +0.000 HD
BRANCH  21  28
ATOM     27  C   UNL     1       3.711  14.573  18.133  0.00  0.00    +0.000 C 
ATOM     28  C   UNL     1       2.562  14.851  19.084  0.00  0.00    +0.000 C 
ENDBRANCH  21  28
ENDBRANCH  14  24
ENDBRANCH   1  16
BRANCH  11  29
ATOM     29  C   UNL     1       6.911   7.389  17.478  0.00  0.00    +0.000 C 
ATOM     30  C   UNL     1       7.942   7.975  18.412  0.00  0.00    +0.000 C 
ATOM     31  C   UNL     1       8.145   8.075  16.929  0.00  0.00    +0.000 C 
ENDBRANCH  11  29
BRANCH   5  32
ATOM     32  O   UNL     1       0.880   3.399  20.341  0.00  0.00    +0.000 OA
ATOM     33  C   UNL     1       1.262   2.616  21.472  0.00  0.00    +0.000 C 
ENDBRANCH   5  32
TORSDOF 5
ENDMDL
MODEL 5
REMARK VINA RESULT:      -7.8      3.790      8.450
REMARK  Name = 
REMARK  8 active torsions:
REMARK  status: ('A' for Active; 'I' for Inactive)
REMARK    1  A    between atoms: C_1  and  C_2
REMARK    2  A    between atoms: C_2  and  N_3
REMARK    3  A    between atoms: N_6  and  C_7
REMARK    4  A    between atoms: C_9  and  C_10
REMARK    5  A    between atoms: C_14  and  O_15
REMARK    6  A    between atoms: O_15  and  C_16
REMARK    7  A    between atoms: C_22  and  C_24
REMARK    8  A    between atoms: C_30  and  C_31
REMARK                            x       y       z     vdW  Elec       q    Type
REMARK                         _______ _______ _______ _____ _____    ______ ____
ROOT
ATOM      1  C   UNL     1       0.945  10.170  19.078  0.00  0.00    +0.000 A 
ATOM      2  C   UNL     1       1.806  11.261  18.947  0.00  0.00    +0.000 A 
ATOM      3  C   UNL     1       1.390  12.612  18.832  0.00  0.00    +0.000 A 
ATOM      4  C   UNL     1       0.037  12.885  18.939  0.00  0.00    +0.000 A 
ATOM      5  C   UNL     1      -0.882  11.797  19.025  0.00  0.00    +0.000 A 
ATOM      6  C   UNL     1      -0.417  10.465  19.075  0.00  0.00    +0.000 A 
ATOM      7  O   UNL     1      -0.438  14.135  19.225  0.00  0.00    +0.000 OA
ATOM      8  C   UNL     1      -0.006  15.246  18.447  0.00  0.00    +0.000 C 
ATOM      9  C   UNL     1       1.425  15.765  18.619  0.00  0.00    +0.000 C 
ATOM     10  N   UNL     1       2.544  14.888  18.310  0.00  0.00    +0.000 N 
ATOM     11  C   UNL     1       3.806  15.542  18.228  0.00  0.00    +0.000 C 
ATOM     12  O   UNL     1       3.916  16.757  18.093  0.00  0.00    +0.000 OA
ATOM     13  C   UNL     1       2.556  13.543  18.812  0.00  0.00    +0.000 C 
ENDROOT
BRANCH   1  16
ATOM     14  C   UNL     1       2.742   6.898  18.313  0.00  0.00    +0.000 A 
ATOM     15  C   UNL     1       2.131   8.151  18.175  0.00  0.00    +0.000 A 
ATOM     16  C   UNL     1       1.499   8.807  19.249  0.00  0.00    +0.000 A 
ATOM     17  C   UNL     1       1.480   8.139  20.480  0.00  0.00    +0.000 A 
ATOM     18  C   UNL     1       2.052   6.868  20.624  0.00  0.00    +0.000 A 
ATOM     19  C   UNL     1       2.694   6.238  19.546  0.00  0.00    +0.000 A 
ATOM     20  C   UNL     1       3.373   4.920  19.773  0.00  0.00    +0.000 C 
BRANCH  14  24
ATOM     21  N   UNL     1       5.163   5.697  15.912  0.00  0.00    +0.000 N 
ATOM     22  C   UNL     1       4.765   6.384  17.030  0.00  0.00    +0.000 C 
ATOM     23  O   UNL     1       5.558   6.924  17.801  0.00  0.00    +0.000 OA
ATOM     24  N   UNL     1       3.393   6.310  17.205  0.00  0.00    +0.000 N 
ATOM     25  H   UNL     1       4.579   5.883  15.109  0.00  0.00    +0.000 HD
ATOM     26  H   UNL     1       3.008   5.451  16.845  0.00  0.00    +0.000 HD
BRANCH  21  28
ATOM     27  C   UNL     1       6.875   4.718  14.429  0.00  0.00    +0.000 C 
ATOM     28  C   UNL     1       6.581   5.527  15.678  0.00  0.00    +0.000 C 
ENDBRANCH  21  28
ENDBRANCH  14  24
ENDBRANCH   1  16
BRANCH  11  29
ATOM     29  C   UNL     1       5.068  14.706  18.314  0.00  0.00    +0.000 C 
ATOM     30  C   UNL     1       6.390  15.317  17.916  0.00  0.00    +0.000 C 
ATOM     31  C   UNL     1       6.141  14.959  19.352  0.00  0.00    +0.000 C 
ENDBRANCH  11  29
BRANCH   5  32
ATOM     32  O   UNL     1      -2.224  12.112  19.075  0.00  0.00    +0.000 OA
ATOM     33  C   UNL     1      -3.068  11.547  18.071  0.00  0.00    +0.000 C 
ENDBRANCH   5  32
TORSDOF 5
ENDMDL
MODEL 6
REMARK VINA RESULT:      -7.7      2.210      2.816
REMARK  Name = 
REMARK  8 active torsions:
REMARK  status: ('A' for Active; 'I' for Inactive)
REMARK    1  A    between atoms: C_1  and  C_2
REMARK    2  A    between atoms: C_2  and  N_3
REMARK    3  A    between atoms: N_6  and  C_7
REMARK    4  A    between atoms: C_9  and  C_10
REMARK    5  A    between atoms: C_14  and  O_15
REMARK    6  A    between atoms: O_15  and  C_16
REMARK    7  A    between atoms: C_22  and  C_24
REMARK    8  A    between atoms: C_30  and  C_31
REMARK                            x       y       z     vdW  Elec       q    Type
REMARK                         _______ _______ _______ _____ _____    ______ ____
ROOT
ATOM      1  C   UNL     1       1.725   7.198  20.106  0.00  0.00    +0.000 A 
ATOM      2  C   UNL     1       2.866   7.012  19.325  0.00  0.00    +0.000 A 
ATOM      3  C   UNL     1       3.457   5.755  19.041  0.00  0.00    +0.000 A 
ATOM      4  C   UNL     1       2.815   4.617  19.501  0.00  0.00    +0.000 A 
ATOM      5  C   UNL     1       1.673   4.763  20.344  0.00  0.00    +0.000 A 
ATOM      6  C   UNL     1       1.160   6.044  20.646  0.00  0.00    +0.000 A 
ATOM      7  O   UNL     1       3.061   3.376  18.982  0.00  0.00    +0.000 OA
ATOM      8  C   UNL     1       4.401   2.905  18.895  0.00  0.00    +0.000 C 
ATOM      9  C   UNL     1       5.338   3.514  17.846  0.00  0.00    +0.000 C 
ATOM     10  N   UNL     1       5.655   4.932  17.911  0.00  0.00    +0.000 N 
ATOM     11  C   UNL     1       6.739   5.336  17.082  0.00  0.00    +0.000 C 
ATOM     12  O   UNL     1       7.550   4.541  16.616  0.00  0.00    +0.000 OA
ATOM     13  C   UNL     1       4.602   5.891  18.093  0.00  0.00    +0.000 C 
ENDROOT
BRANCH   1  16
ATOM     14  C   UNL     1       0.936  10.873  19.478  0.00  0.00    +0.000 A 
ATOM     15  C   UNL     1       1.505   9.596  19.397  0.00  0.00    +0.000 A 
ATOM     16  C   UNL     1       1.165   8.557  20.286  0.00  0.00    +0.000 A 
ATOM     17  C   UNL     1       0.237   8.859  21.290  0.00  0.00    +0.000 A 
ATOM     18  C   UNL     1      -0.312  10.144  21.409  0.00  0.00    +0.000 A 
ATOM     19  C   UNL     1       0.026  11.160  20.502  0.00  0.00    +0.000 A 
ATOM     20  C   UNL     1      -0.657  12.491  20.612  0.00  0.00    +0.000 C 
BRANCH  14  24
ATOM     21  N   UNL     1       2.378  13.701  17.749  0.00  0.00    +0.000 N 
ATOM     22  C   UNL     1       2.145  12.907  18.842  0.00  0.00    +0.000 C 
ATOM     23  O   UNL     1       2.697  13.084  19.928  0.00  0.00    +0.000 OA
ATOM     24  N   UNL     1       1.293  11.860  18.532  0.00  0.00    +0.000 N 
ATOM     25  H   UNL     1       1.536  13.921  17.237  0.00  0.00    +0.000 HD
ATOM     26  H   UNL     1       1.381  11.569  17.571  0.00  0.00    +0.000 HD
BRANCH  21  28
ATOM     27  C   UNL     1       2.781  16.117  18.055  0.00  0.00    +0.000 C 
ATOM     28  C   UNL     1       3.382  14.739  17.854  0.00  0.00    +0.000 C 
ENDBRANCH  21  28
ENDBRANCH  14  24
ENDBRANCH   1  16
BRANCH  11  29
ATOM     29  C   UNL     1       6.901   6.808  16.758  0.00  0.00    +0.000 C 
ATOM     30  C   UNL     1       6.446   7.843  17.759  0.00  0.00    +0.000 C 
ATOM     31  C   UNL     1       7.910   7.690  17.464  0.00  0.00    +0.000 C 
ENDBRANCH  11  29
BRANCH   5  32
ATOM     32  O   UNL     1       1.096   3.605  20.824  0.00  0.00    +0.000 OA
ATOM     33  C   UNL     1       1.787   2.912  21.864  0.00  0.00    +0.000 C 
ENDBRANCH   5  32
TORSDOF 5
ENDMDL
MODEL 7
REMARK VINA RESULT:      -7.5      3.516      8.608
REMARK  Name = 
REMARK  8 active torsions:
REMARK  status: ('A' for Active; 'I' for Inactive)
REMARK    1  A    between atoms: C_1  and  C_2
REMARK    2  A    between atoms: C_2  and  N_3
REMARK    3  A    between atoms: N_6  and  C_7
REMARK    4  A    between atoms: C_9  and  C_10
REMARK    5  A    between atoms: C_14  and  O_15
REMARK    6  A    between atoms: O_15  and  C_16
REMARK    7  A    between atoms: C_22  and  C_24
REMARK    8  A    between atoms: C_30  and  C_31
REMARK                            x       y       z     vdW  Elec       q    Type
REMARK                         _______ _______ _______ _____ _____    ______ ____
ROOT
ATOM      1  C   UNL     1       0.912  10.066  19.023  0.00  0.00    +0.000 A 
ATOM      2  C   UNL     1       1.643  11.175  19.453  0.00  0.00    +0.000 A 
ATOM      3  C   UNL     1       1.223  12.522  19.321  0.00  0.00    +0.000 A 
ATOM      4  C   UNL     1      -0.040  12.761  18.803  0.00  0.00    +0.000 A 
ATOM      5  C   UNL     1      -0.801  11.661  18.306  0.00  0.00    +0.000 A 
ATOM      6  C   UNL     1      -0.308  10.341  18.407  0.00  0.00    +0.000 A 
ATOM      7  O   UNL     1      -0.692  13.949  18.979  0.00  0.00    +0.000 OA
ATOM      8  C   UNL     1      -0.035  15.167  18.644  0.00  0.00    +0.000 C 
ATOM      9  C   UNL     1       1.100  15.673  19.539  0.00  0.00    +0.000 C 
ATOM     10  N   UNL     1       2.299  14.864  19.695  0.00  0.00    +0.000 N 
ATOM     11  C   UNL     1       3.395  15.538  20.305  0.00  0.00    +0.000 C 
ATOM     12  O   UNL     1       3.457  16.761  20.389  0.00  0.00    +0.000 OA
ATOM     13  C   UNL     1       2.182  13.460  19.973  0.00  0.00    +0.000 C 
ENDROOT
BRANCH   1  16
ATOM     14  C   UNL     1       2.636   6.717  18.446  0.00  0.00    +0.000 A 
ATOM     15  C   UNL     1       2.060   7.976  18.238  0.00  0.00    +0.000 A 
ATOM     16  C   UNL     1       1.428   8.700  19.268  0.00  0.00    +0.000 A 
ATOM     17  C   UNL     1       1.372   8.092  20.529  0.00  0.00    +0.000 A 
ATOM     18  C   UNL     1       1.909   6.815  20.743  0.00  0.00    +0.000 A 
ATOM     19  C   UNL     1       2.552   6.119  19.708  0.00  0.00    +0.000 A 
ATOM     20  C   UNL     1       3.193   4.796  20.008  0.00  0.00    +0.000 C 
BRANCH  14  24
ATOM     21  N   UNL     1       5.046   5.470  16.057  0.00  0.00    +0.000 N 
ATOM     22  C   UNL     1       4.634   6.251  17.106  0.00  0.00    +0.000 C 
ATOM     23  O   UNL     1       5.401   6.964  17.751  0.00  0.00    +0.000 OA
ATOM     24  N   UNL     1       3.289   6.061  17.378  0.00  0.00    +0.000 N 
ATOM     25  H   UNL     1       4.405   5.490  15.277  0.00  0.00    +0.000 HD
ATOM     26  H   UNL     1       2.983   5.128  17.153  0.00  0.00    +0.000 HD
BRANCH  21  28
ATOM     27  C   UNL     1       6.754   4.685  14.458  0.00  0.00    +0.000 C 
ATOM     28  C   UNL     1       6.461   5.417  15.754  0.00  0.00    +0.000 C 
ENDBRANCH  21  28
ENDBRANCH  14  24
ENDBRANCH   1  16
BRANCH  11  29
ATOM     29  C   UNL     1       4.531  14.715  20.878  0.00  0.00    +0.000 C 
ATOM     30  C   UNL     1       5.628  15.403  21.654  0.00  0.00    +0.000 C 
ATOM     31  C   UNL     1       4.691  14.471  22.365  0.00  0.00    +0.000 C 
ENDBRANCH  11  29
BRANCH   5  32
ATOM     32  O   UNL     1      -2.030  11.949  17.750  0.00  0.00    +0.000 OA
ATOM     33  C   UNL     1      -2.499  11.084  16.715  0.00  0.00    +0.000 C 
ENDBRANCH   5  32
TORSDOF 5
ENDMDL
MODEL 8
REMARK VINA RESULT:      -7.5      5.896      8.874
REMARK  Name = 
REMARK  8 active torsions:
REMARK  status: ('A' for Active; 'I' for Inactive)
REMARK    1  A    between atoms: C_1  and  C_2
REMARK    2  A    between atoms: C_2  and  N_3
REMARK    3  A    between atoms: N_6  and  C_7
REMARK    4  A    between atoms: C_9  and  C_10
REMARK    5  A    between atoms: C_14  and  O_15
REMARK    6  A    between atoms: O_15  and  C_16
REMARK    7  A    between atoms: C_22  and  C_24
REMARK    8  A    between atoms: C_30  and  C_31
REMARK                            x       y       z     vdW  Elec       q    Type
REMARK                         _______ _______ _______ _____ _____    ______ ____
ROOT
ATOM      1  C   UNL     1       2.520  14.603  18.830  0.00  0.00    +0.000 A 
ATOM      2  C   UNL     1       3.879  14.320  18.678  0.00  0.00    +0.000 A 
ATOM      3  C   UNL     1       4.925  15.266  18.830  0.00  0.00    +0.000 A 
ATOM      4  C   UNL     1       4.588  16.546  19.238  0.00  0.00    +0.000 A 
ATOM      5  C   UNL     1       3.209  16.891  19.357  0.00  0.00    +0.000 A 
ATOM      6  C   UNL     1       2.203  15.925  19.135  0.00  0.00    +0.000 A 
ATOM      7  O   UNL     1       5.502  17.408  19.777  0.00  0.00    +0.000 OA
ATOM      8  C   UNL     1       6.720  17.663  19.085  0.00  0.00    +0.000 C 
ATOM      9  C   UNL     1       7.795  16.572  19.039  0.00  0.00    +0.000 C 
ATOM     10  N   UNL     1       7.494  15.301  18.400  0.00  0.00    +0.000 N 
ATOM     11  C   UNL     1       8.627  14.474  18.159  0.00  0.00    +0.000 C 
ATOM     12  O   UNL     1       9.776  14.905  18.169  0.00  0.00    +0.000 OA
ATOM     13  C   UNL     1       6.265  14.622  18.705  0.00  0.00    +0.000 C 
ENDROOT
BRANCH   1  16
ATOM     14  C   UNL     1       0.936  11.140  18.970  0.00  0.00    +0.000 A 
ATOM     15  C   UNL     1       1.869  12.185  18.995  0.00  0.00    +0.000 A 
ATOM     16  C   UNL     1       1.521  13.518  18.704  0.00  0.00    +0.000 A 
ATOM     17  C   UNL     1       0.186  13.764  18.356  0.00  0.00    +0.000 A 
ATOM     18  C   UNL     1      -0.750  12.723  18.289  0.00  0.00    +0.000 A 
ATOM     19  C   UNL     1      -0.387  11.404  18.601  0.00  0.00    +0.000 A 
ATOM     20  C   UNL     1      -1.444  10.340  18.605  0.00  0.00    +0.000 C 
BRANCH  14  24
ATOM     21  N   UNL     1       2.251   7.772  18.958  0.00  0.00    +0.000 N 
ATOM     22  C   UNL     1       1.890   8.962  18.379  0.00  0.00    +0.000 C 
ATOM     23  O   UNL     1       2.106   9.222  17.196  0.00  0.00    +0.000 OA
ATOM     24  N   UNL     1       1.343   9.830  19.310  0.00  0.00    +0.000 N 
ATOM     25  H   UNL     1       1.542   7.406  19.578  0.00  0.00    +0.000 HD
ATOM     26  H   UNL     1       1.724   9.689  20.232  0.00  0.00    +0.000 HD
BRANCH  21  28
ATOM     27  C   UNL     1       2.343   5.450  18.128  0.00  0.00    +0.000 C 
ATOM     28  C   UNL     1       2.996   6.819  18.163  0.00  0.00    +0.000 C 
ENDBRANCH  21  28
ENDBRANCH  14  24
ENDBRANCH   1  16
BRANCH  11  29
ATOM     29  C   UNL     1       8.410  13.000  17.881  0.00  0.00    +0.000 C 
ATOM     30  C   UNL     1       9.593  12.128  17.537  0.00  0.00    +0.000 C 
ATOM     31  C   UNL     1       8.869  11.916  18.834  0.00  0.00    +0.000 C 
ENDBRANCH  11  29
BRANCH   5  32
ATOM     32  O   UNL     1       2.917  18.192  19.714  0.00  0.00    +0.000 OA
ATOM     33  C   UNL     1       1.723  18.413  20.465  0.00  0.00    +0.000 C 
ENDBRANCH   5  32
TORSDOF 5
ENDMDL
MODEL 9
REMARK VINA RESULT:      -7.5      2.247      2.455
REMARK  Name = 
REMARK  8 active torsions:
REMARK  status: ('A' for Active; 'I' for Inactive)
REMARK    1  A    between atoms: C_1  and  C_2
REMARK    2  A    between atoms: C_2  and  N_3
REMARK    3  A    between atoms: N_6  and  C_7
REMARK    4  A    between atoms: C_9  and  C_10
REMARK    5  A    between atoms: C_14  and  O_15
REMARK    6  A    between atoms: O_15  and  C_16
REMARK    7  A    between atoms: C_22  and  C_24
REMARK    8  A    between atoms: C_30  and  C_31
REMARK                            x       y       z     vdW  Elec       q    Type
REMARK                         _______ _______ _______ _____ _____    ______ ____
ROOT
ATOM      1  C   UNL     1       1.550   6.897  20.454  0.00  0.00    +0.000 A 
ATOM      2  C   UNL     1       2.755   6.973  19.754  0.00  0.00    +0.000 A 
ATOM      3  C   UNL     1       3.362   5.891  19.067  0.00  0.00    +0.000 A 
ATOM      4  C   UNL     1       2.675   4.690  19.013  0.00  0.00    +0.000 A 
ATOM      5  C   UNL     1       1.464   4.553  19.756  0.00  0.00    +0.000 A 
ATOM      6  C   UNL     1       0.934   5.647  20.474  0.00  0.00    +0.000 A 
ATOM      7  O   UNL     1       2.959   3.723  18.088  0.00  0.00    +0.000 OA
ATOM      8  C   UNL     1       4.299   3.268  17.937  0.00  0.00    +0.000 C 
ATOM      9  C   UNL     1       5.329   4.188  17.273  0.00  0.00    +0.000 C 
ATOM     10  N   UNL     1       5.646   5.466  17.890  0.00  0.00    +0.000 N 
ATOM     11  C   UNL     1       6.801   6.110  17.363  0.00  0.00    +0.000 C 
ATOM     12  O   UNL     1       7.646   5.516  16.698  0.00  0.00    +0.000 OA
ATOM     13  C   UNL     1       4.586   6.327  18.334  0.00  0.00    +0.000 C 
ENDROOT
BRANCH   1  16
ATOM     14  C   UNL     1       0.776  10.565  21.139  0.00  0.00    +0.000 A 
ATOM     15  C   UNL     1       1.348   9.393  20.629  0.00  0.00    +0.000 A 
ATOM     16  C   UNL     1       0.984   8.111  21.085  0.00  0.00    +0.000 A 
ATOM     17  C   UNL     1       0.027   8.049  22.106  0.00  0.00    +0.000 A 
ATOM     18  C   UNL     1      -0.527   9.214  22.654  0.00  0.00    +0.000 A 
ATOM     19  C   UNL     1      -0.163  10.482  22.173  0.00  0.00    +0.000 A 
ATOM     20  C   UNL     1      -0.851  11.695  22.726  0.00  0.00    +0.000 C 
BRANCH  14  24
ATOM     21  N   UNL     1       0.956  13.690  19.331  0.00  0.00    +0.000 N 
ATOM     22  C   UNL     1       0.409  12.473  19.646  0.00  0.00    +0.000 C 
ATOM     23  O   UNL     1      -0.653  12.073  19.170  0.00  0.00    +0.000 OA
ATOM     24  N   UNL     1       1.158  11.819  20.610  0.00  0.00    +0.000 N 
ATOM     25  H   UNL     1       1.956  13.648  19.196  0.00  0.00    +0.000 HD
ATOM     26  H   UNL     1       1.622  12.461  21.233  0.00  0.00    +0.000 HD
BRANCH  21  28
ATOM     27  C   UNL     1      -0.418  15.738  19.223  0.00  0.00    +0.000 C 
ATOM     28  C   UNL     1       0.205  14.578  18.468  0.00  0.00    +0.000 C 
ENDBRANCH  21  28
ENDBRANCH  14  24
ENDBRANCH   1  16
BRANCH  11  29
ATOM     29  C   UNL     1       6.999   7.589  17.629  0.00  0.00    +0.000 C 
ATOM     30  C   UNL     1       8.137   8.037  18.514  0.00  0.00    +0.000 C 
ATOM     31  C   UNL     1       8.160   8.371  17.051  0.00  0.00    +0.000 C 
ENDBRANCH  11  29
BRANCH   5  32
ATOM     32  O   UNL     1       0.841   3.323  19.719  0.00  0.00    +0.000 OA
ATOM     33  C   UNL     1       1.218   2.368  20.711  0.00  0.00    +0.000 C 
ENDBRANCH   5  32
TORSDOF 5
ENDMDL
