MODEL 1
REMARK VINA RESULT:      -7.5      0.000      0.000
REMARK  Name = 
REMARK  6 active torsions:
REMARK  status: ('A' for Active; 'I' for Inactive)
REMARK    1  A    between atoms: C_2  and  C_4
REMARK    2  A    between atoms: C_6  and  N_7
REMARK    3  A    between atoms: C_14  and  O_15
REMARK    4  A    between atoms: O_15  and  C_16
REMARK    5  A    between atoms: C_16  and  C_17
REMARK    6  A    between atoms: C_17  and  C_18
REMARK                            x       y       z     vdW  Elec       q    Type
REMARK                         _______ _______ _______ _____ _____    ______ ____
ROOT
ATOM      1  C   UNL     1       2.891   4.028  20.254  0.00  0.00    +0.000 A 
ATOM      2  S   UNL     1       4.267   3.267  19.541  0.00  0.00    +0.000 S 
ATOM      3  C   UNL     1       4.803   4.692  18.775  0.00  0.00    +0.000 A 
ATOM      4  C   UNL     1       3.915   5.718  19.023  0.00  0.00    +0.000 A 
ATOM      5  C   UNL     1       2.792   5.352  19.836  0.00  0.00    +0.000 A 
ENDROOT
BRANCH   3   6
ATOM      6  N   UNL     1       5.940   4.774  18.036  0.00  0.00    +0.000 N 
ATOM      7  C   UNL     1       7.077   5.620  18.425  0.00  0.00    +0.000 C 
ATOM      8  C   UNL     1       7.329   6.708  17.374  0.00  0.00    +0.000 C 
ATOM      9  O   UNL     1       7.474   6.149  16.056  0.00  0.00    +0.000 OA
ATOM     10  C   UNL     1       6.286   5.424  15.690  0.00  0.00    +0.000 C 
ATOM     11  C   UNL     1       6.010   4.265  16.663  0.00  0.00    +0.000 C 
ENDBRANCH   3   6
BRANCH   1  13
ATOM     12  N   UNL     1       0.785   3.065  20.855  0.00  0.00    +0.000 N 
ATOM     13  C   UNL     1       2.112   3.166  21.143  0.00  0.00    +0.000 C 
ATOM     14  O   UNL     1       2.545   2.581  22.130  0.00  0.00    +0.000 OA
ATOM     15  H   UNL     1       0.206   2.628  21.555  0.00  0.00    +0.000 HD
ATOM     16  H   UNL     1       0.370   3.557  20.081  0.00  0.00    +0.000 HD
ENDBRANCH   1  13
BRANCH   5  17
ATOM     17  O   UNL     1       1.773   6.206  20.184  0.00  0.00    +0.000 OA
BRANCH  17  18
ATOM     18  C   UNL     1       2.213   7.586  20.284  0.00  0.00    +0.000 C 
BRANCH  18  19
ATOM     19  C   UNL     1       1.134   8.566  19.815  0.00  0.00    +0.000 C 
BRANCH  19  20
ATOM     20  C   UNL     1       0.598   9.387  20.972  0.00  0.00    +0.000 A 
ATOM     21  C   UNL     1       0.528   8.841  22.257  0.00  0.00    +0.000 A 
ATOM     22  C   UNL     1      -0.024   9.602  23.281  0.00  0.00    +0.000 A 
ATOM     23  N   UNL     1      -0.513  10.849  23.113  0.00  0.00    +0.000 NA
ATOM     24  C   UNL     1      -0.438  11.361  21.869  0.00  0.00    +0.000 A 
ATOM     25  C   UNL     1       0.102  10.682  20.784  0.00  0.00    +0.000 A 
ENDBRANCH  19  20
ENDBRANCH  18  19
ENDBRANCH  17  18
ENDBRANCH   5  17
TORSDOF 6
ENDMDL
MODEL 2
REMARK VINA RESULT:      -7.4      1.335      1.957
REMARK  Name = 
REMARK  6 active torsions:
REMARK  status: ('A' for Active; 'I' for Inactive)
REMARK    1  A    between atoms: C_2  and  C_4
REMARK    2  A    between atoms: C_6  and  N_7
REMARK    3  A    between atoms: C_14  and  O_15
REMARK    4  A    between atoms: O_15  and  C_16
REMARK    5  A    between atoms: C_16  and  C_17
REMARK    6  A    between atoms: C_17  and  C_18
REMARK                            x       y       z     vdW  Elec       q    Type
REMARK                         _______ _______ _______ _____ _____    ______ ____
ROOT
ATOM      1  C   UNL     1       2.075   4.272  18.929  0.00  0.00    +0.000 A 
ATOM      2  S   UNL     1       3.269   3.807  17.771  0.00  0.00    +0.000 S 
ATOM      3  C   UNL     1       4.170   5.241  17.951  0.00  0.00    +0.000 A 
ATOM      4  C   UNL     1       3.540   6.081  18.846  0.00  0.00    +0.000 A 
ATOM      5  C   UNL     1       2.318   5.563  19.391  0.00  0.00    +0.000 A 
ENDROOT
BRANCH   3   6
ATOM      6  N   UNL     1       5.334   5.492  17.297  0.00  0.00    +0.000 N 
ATOM      7  C   UNL     1       5.501   5.249  15.857  0.00  0.00    +0.000 C 
ATOM      8  C   UNL     1       6.580   4.188  15.607  0.00  0.00    +0.000 C 
ATOM      9  O   UNL     1       7.815   4.522  16.263  0.00  0.00    +0.000 OA
ATOM     10  C   UNL     1       7.609   4.640  17.682  0.00  0.00    +0.000 C 
ATOM     11  C   UNL     1       6.588   5.742  18.015  0.00  0.00    +0.000 C 
ENDBRANCH   3   6
BRANCH   1  13
ATOM     12  N   UNL     1       0.591   3.220  20.482  0.00  0.00    +0.000 N 
ATOM     13  C   UNL     1       1.065   3.252  19.205  0.00  0.00    +0.000 C 
ATOM     14  O   UNL     1       0.660   2.413  18.407  0.00  0.00    +0.000 OA
ATOM     15  H   UNL     1       0.037   2.417  20.734  0.00  0.00    +0.000 HD
ATOM     16  H   UNL     1       0.920   3.858  21.187  0.00  0.00    +0.000 HD
ENDBRANCH   1  13
BRANCH   5  17
ATOM     17  O   UNL     1       1.515   6.239  20.276  0.00  0.00    +0.000 OA
BRANCH  17  18
ATOM     18  C   UNL     1       2.026   7.560  20.596  0.00  0.00    +0.000 C 
BRANCH  18  19
ATOM     19  C   UNL     1       1.175   8.670  19.973  0.00  0.00    +0.000 C 
BRANCH  19  20
ATOM     20  C   UNL     1       0.495   9.505  21.041  0.00  0.00    +0.000 A 
ATOM     21  C   UNL     1       0.223  10.859  20.817  0.00  0.00    +0.000 A 
ATOM     22  C   UNL     1      -0.347  11.607  21.840  0.00  0.00    +0.000 A 
ATOM     23  N   UNL     1      -0.652  11.110  23.057  0.00  0.00    +0.000 NA
ATOM     24  C   UNL     1      -0.385   9.804  23.258  0.00  0.00    +0.000 A 
ATOM     25  C   UNL     1       0.177   8.973  22.295  0.00  0.00    +0.000 A 
ENDBRANCH  19  20
ENDBRANCH  18  19
ENDBRANCH  17  18
ENDBRANCH   5  17
TORSDOF 6
ENDMDL
MODEL 3
REMARK VINA RESULT:      -7.4      3.495      7.037
REMARK  Name = 
REMARK  6 active torsions:
REMARK  status: ('A' for Active; 'I' for Inactive)
REMARK    1  A    between atoms: C_2  and  C_4
REMARK    2  A    between atoms: C_6  and  N_7
REMARK    3  A    between atoms: C_14  and  O_15
REMARK    4  A    between atoms: O_15  and  C_16
REMARK    5  A    between atoms: C_16  and  C_17
REMARK    6  A    between atoms: C_17  and  C_18
REMARK                            x       y       z     vdW  Elec       q    Type
REMARK                         _______ _______ _______ _____ _____    ______ ____
ROOT
ATOM      1  C   UNL     1       6.430   5.404  18.299  0.00  0.00    +0.000 A 
ATOM      2  S   UNL     1       5.193   4.559  19.158  0.00  0.00    +0.000 S 
ATOM      3  C   UNL     1       3.929   5.462  18.459  0.00  0.00    +0.000 A 
ATOM      4  C   UNL     1       4.451   6.426  17.621  0.00  0.00    +0.000 A 
ATOM      5  C   UNL     1       5.883   6.437  17.543  0.00  0.00    +0.000 A 
ENDROOT
BRANCH   3   6
ATOM      6  N   UNL     1       2.612   5.243  18.710  0.00  0.00    +0.000 N 
ATOM      7  C   UNL     1       1.998   5.522  20.015  0.00  0.00    +0.000 C 
ATOM      8  C   UNL     1       1.458   4.234  20.648  0.00  0.00    +0.000 C 
ATOM      9  O   UNL     1       0.575   3.533  19.754  0.00  0.00    +0.000 OA
ATOM     10  C   UNL     1       1.265   3.192  18.539  0.00  0.00    +0.000 C 
ATOM     11  C   UNL     1       1.774   4.446  17.808  0.00  0.00    +0.000 C 
ENDBRANCH   3   6
BRANCH   1  13
ATOM     12  N   UNL     1       8.403   5.317  19.649  0.00  0.00    +0.000 N 
ATOM     13  C   UNL     1       7.781   4.888  18.515  0.00  0.00    +0.000 C 
ATOM     14  O   UNL     1       8.398   4.156  17.748  0.00  0.00    +0.000 OA
ATOM     15  H   UNL     1       9.389   5.120  19.721  0.00  0.00    +0.000 HD
ATOM     16  H   UNL     1       7.959   5.951  20.291  0.00  0.00    +0.000 HD
ENDBRANCH   1  13
BRANCH   5  17
ATOM     17  O   UNL     1       6.613   7.326  16.793  0.00  0.00    +0.000 OA
BRANCH  17  18
ATOM     18  C   UNL     1       6.912   8.550  17.515  0.00  0.00    +0.000 C 
BRANCH  18  19
ATOM     19  C   UNL     1       8.358   8.582  18.016  0.00  0.00    +0.000 C 
BRANCH  19  20
ATOM     20  C   UNL     1       8.754   9.976  18.461  0.00  0.00    +0.000 A 
ATOM     21  C   UNL     1       8.505  11.081  17.640  0.00  0.00    +0.000 A 
ATOM     22  C   UNL     1       8.934  12.336  18.056  0.00  0.00    +0.000 A 
ATOM     23  N   UNL     1       9.595  12.563  19.211  0.00  0.00    +0.000 NA
ATOM     24  C   UNL     1       9.828  11.488  19.991  0.00  0.00    +0.000 A 
ATOM     25  C   UNL     1       9.431  10.196  19.666  0.00  0.00    +0.000 A 
ENDBRANCH  19  20
ENDBRANCH  18  19
ENDBRANCH  17  18
ENDBRANCH   5  17
TORSDOF 6
ENDMDL
MODEL 4
REMARK VINA RESULT:      -7.4      1.244      1.914
REMARK  Name = 
REMARK  6 active torsions:
REMARK  status: ('A' for Active; 'I' for Inactive)
REMARK    1  A    between atoms: C_2  and  C_4
REMARK    2  A    between atoms: C_6  and  N_7
REMARK    3  A    between atoms: C_14  and  O_15
REMARK    4  A    between atoms: O_15  and  C_16
REMARK    5  A    between atoms: C_16  and  C_17
REMARK    6  A    between atoms: C_17  and  C_18
REMARK                            x       y       z     vdW  Elec       q    Type
REMARK                         _______ _______ _______ _____ _____    ______ ____
ROOT
ATOM      1  C   UNL     1       2.782   4.126  20.325  0.00  0.00    +0.000 A 
ATOM      2  S   UNL     1       4.113   3.620  19.349  0.00  0.00    +0.000 S 
ATOM      3  C   UNL     1       4.378   5.174  18.701  0.00  0.00    +0.000 A 
ATOM      4  C   UNL     1       3.431   6.051  19.188  0.00  0.00    +0.000 A 
ATOM      5  C   UNL     1       2.483   5.465  20.091  0.00  0.00    +0.000 A 
ENDROOT
BRANCH   3   6
ATOM      6  N   UNL     1       5.381   5.473  17.835  0.00  0.00    +0.000 N 
ATOM      7  C   UNL     1       5.252   5.294  16.382  0.00  0.00    +0.000 C 
ATOM      8  C   UNL     1       6.266   4.264  15.870  0.00  0.00    +0.000 C 
ATOM      9  O   UNL     1       7.607   4.593  16.275  0.00  0.00    +0.000 OA
ATOM     10  C   UNL     1       7.694   4.647  17.710  0.00  0.00    +0.000 C 
ATOM     11  C   UNL     1       6.753   5.716  18.292  0.00  0.00    +0.000 C 
ENDBRANCH   3   6
BRANCH   1  13
ATOM     12  N   UNL     1       0.885   2.923  21.148  0.00  0.00    +0.000 N 
ATOM     13  C   UNL     1       2.237   3.085  21.196  0.00  0.00    +0.000 C 
ATOM     14  O   UNL     1       2.883   2.398  21.980  0.00  0.00    +0.000 OA
ATOM     15  H   UNL     1       0.478   2.344  21.866  0.00  0.00    +0.000 HD
ATOM     16  H   UNL     1       0.303   3.488  20.554  0.00  0.00    +0.000 HD
ENDBRANCH   1  13
BRANCH   5  17
ATOM     17  O   UNL     1       1.441   6.145  20.672  0.00  0.00    +0.000 OA
BRANCH  17  18
ATOM     18  C   UNL     1       1.683   7.575  20.751  0.00  0.00    +0.000 C 
BRANCH  18  19
ATOM     19  C   UNL     1       0.509   8.320  21.392  0.00  0.00    +0.000 C 
BRANCH  19  20
ATOM     20  C   UNL     1       0.248   9.639  20.690  0.00  0.00    +0.000 A 
ATOM     21  C   UNL     1      -0.460  10.658  21.335  0.00  0.00    +0.000 A 
ATOM     22  C   UNL     1      -0.730  11.831  20.640  0.00  0.00    +0.000 A 
ATOM     23  N   UNL     1      -0.359  12.052  19.361  0.00  0.00    +0.000 NA
ATOM     24  C   UNL     1       0.322  11.060  18.753  0.00  0.00    +0.000 A 
ATOM     25  C   UNL     1       0.647   9.856  19.367  0.00  0.00    +0.000 A 
ENDBRANCH  19  20
ENDBRANCH  18  19
ENDBRANCH  17  18
ENDBRANCH   5  17
TORSDOF 6
ENDMDL
MODEL 5
REMARK VINA RESULT:      -7.3      0.887      1.407
REMARK  Name = 
REMARK  6 active torsions:
REMARK  status: ('A' for Active; 'I' for Inactive)
REMARK    1  A    between atoms: C_2  and  C_4
REMARK    2  A    between atoms: C_6  and  N_7
REMARK    3  A    between atoms: C_14  and  O_15
REMARK    4  A    between atoms: O_15  and  C_16
REMARK    5  A    between atoms: C_16  and  C_17
REMARK    6  A    between atoms: C_17  and  C_18
REMARK                            x       y       z     vdW  Elec       q    Type
REMARK                         _______ _______ _______ _____ _____    ______ ____
ROOT
ATOM      1  C   UNL     1       2.704   4.310  20.361  0.00  0.00    +0.000 A 
ATOM      2  S   UNL     1       4.081   3.839  19.433  0.00  0.00    +0.000 S 
ATOM      3  C   UNL     1       4.369   5.413  18.847  0.00  0.00    +0.000 A 
ATOM      4  C   UNL     1       3.398   6.273  19.317  0.00  0.00    +0.000 A 
ATOM      5  C   UNL     1       2.411   5.656  20.156  0.00  0.00    +0.000 A 
ENDROOT
BRANCH   3   6
ATOM      6  N   UNL     1       5.410   5.742  18.039  0.00  0.00    +0.000 N 
ATOM      7  C   UNL     1       5.256   5.936  16.590  0.00  0.00    +0.000 C 
ATOM      8  C   UNL     1       6.085   4.907  15.813  0.00  0.00    +0.000 C 
ATOM      9  O   UNL     1       7.461   4.907  16.233  0.00  0.00    +0.000 OA
ATOM     10  C   UNL     1       7.553   4.604  17.636  0.00  0.00    +0.000 C 
ATOM     11  C   UNL     1       6.802   5.642  18.488  0.00  0.00    +0.000 C 
ENDBRANCH   3   6
BRANCH   1  13
ATOM     12  N   UNL     1       0.801   2.990  20.959  0.00  0.00    +0.000 N 
ATOM     13  C   UNL     1       2.123   3.241  21.172  0.00  0.00    +0.000 C 
ATOM     14  O   UNL     1       2.709   2.604  22.041  0.00  0.00    +0.000 OA
ATOM     15  H   UNL     1       0.346   2.389  21.629  0.00  0.00    +0.000 HD
ATOM     16  H   UNL     1       0.262   3.511  20.289  0.00  0.00    +0.000 HD
ENDBRANCH   1  13
BRANCH   5  17
ATOM     17  O   UNL     1       1.341   6.315  20.709  0.00  0.00    +0.000 OA
BRANCH  17  18
ATOM     18  C   UNL     1       1.430   7.756  20.550  0.00  0.00    +0.000 C 
BRANCH  18  19
ATOM     19  C   UNL     1       1.629   8.469  21.891  0.00  0.00    +0.000 C 
BRANCH  19  20
ATOM     20  C   UNL     1       0.682   9.644  22.033  0.00  0.00    +0.000 A 
ATOM     21  C   UNL     1      -0.267   9.671  23.060  0.00  0.00    +0.000 A 
ATOM     22  C   UNL     1      -1.157  10.737  23.124  0.00  0.00    +0.000 A 
ATOM     23  N   UNL     1      -1.174  11.758  22.242  0.00  0.00    +0.000 NA
ATOM     24  C   UNL     1      -0.253  11.719  21.258  0.00  0.00    +0.000 A 
ATOM     25  C   UNL     1       0.683  10.701  21.116  0.00  0.00    +0.000 A 
ENDBRANCH  19  20
ENDBRANCH  18  19
ENDBRANCH  17  18
ENDBRANCH   5  17
TORSDOF 6
ENDMDL
MODEL 6
REMARK VINA RESULT:      -7.3      1.264      1.964
REMARK  Name = 
REMARK  6 active torsions:
REMARK  status: ('A' for Active; 'I' for Inactive)
REMARK    1  A    between atoms: C_2  and  C_4
REMARK    2  A    between atoms: C_6  and  N_7
REMARK    3  A    between atoms: C_14  and  O_15
REMARK    4  A    between atoms: O_15  and  C_16
REMARK    5  A    between atoms: C_16  and  C_17
REMARK    6  A    between atoms: C_17  and  C_18
REMARK                            x       y       z     vdW  Elec       q    Type
REMARK                         _______ _______ _______ _____ _____    ______ ____
ROOT
ATOM      1  C   UNL     1       2.769   4.116  20.375  0.00  0.00    +0.000 A 
ATOM      2  S   UNL     1       4.080   3.606  19.374  0.00  0.00    +0.000 S 
ATOM      3  C   UNL     1       4.356   5.164  18.742  0.00  0.00    +0.000 A 
ATOM      4  C   UNL     1       3.427   6.047  19.253  0.00  0.00    +0.000 A 
ATOM      5  C   UNL     1       2.484   5.462  20.162  0.00  0.00    +0.000 A 
ENDROOT
BRANCH   3   6
ATOM      6  N   UNL     1       5.350   5.461  17.866  0.00  0.00    +0.000 N 
ATOM      7  C   UNL     1       5.199   5.302  16.413  0.00  0.00    +0.000 C 
ATOM      8  C   UNL     1       6.192   4.266  15.872  0.00  0.00    +0.000 C 
ATOM      9  O   UNL     1       7.542   4.572  16.263  0.00  0.00    +0.000 OA
ATOM     10  C   UNL     1       7.651   4.607  17.696  0.00  0.00    +0.000 C 
ATOM     11  C   UNL     1       6.732   5.679  18.306  0.00  0.00    +0.000 C 
ENDBRANCH   3   6
BRANCH   1  13
ATOM     12  N   UNL     1       0.873   2.900  21.180  0.00  0.00    +0.000 N 
ATOM     13  C   UNL     1       2.223   3.071  21.241  0.00  0.00    +0.000 C 
ATOM     14  O   UNL     1       2.867   2.389  22.030  0.00  0.00    +0.000 OA
ATOM     15  H   UNL     1       0.463   2.318  21.894  0.00  0.00    +0.000 HD
ATOM     16  H   UNL     1       0.292   3.461  20.580  0.00  0.00    +0.000 HD
ENDBRANCH   1  13
BRANCH   5  17
ATOM     17  O   UNL     1       1.459   6.148  20.766  0.00  0.00    +0.000 OA
BRANCH  17  18
ATOM     18  C   UNL     1       1.715   7.575  20.848  0.00  0.00    +0.000 C 
BRANCH  18  19
ATOM     19  C   UNL     1       0.477   8.354  21.298  0.00  0.00    +0.000 C 
BRANCH  19  20
ATOM     20  C   UNL     1       0.454   9.744  20.693  0.00  0.00    +0.000 A 
ATOM     21  C   UNL     1       0.842   9.947  19.365  0.00  0.00    +0.000 A 
ATOM     22  C   UNL     1       0.864  11.243  18.862  0.00  0.00    +0.000 A 
ATOM     23  N   UNL     1       0.540  12.336  19.583  0.00  0.00    +0.000 NA
ATOM     24  C   UNL     1       0.168  12.125  20.862  0.00  0.00    +0.000 A 
ATOM     25  C   UNL     1       0.107  10.868  21.451  0.00  0.00    +0.000 A 
ENDBRANCH  19  20
ENDBRANCH  18  19
ENDBRANCH  17  18
ENDBRANCH   5  17
TORSDOF 6
ENDMDL
MODEL 7
REMARK VINA RESULT:      -7.3      3.505      7.362
REMARK  Name = 
REMARK  6 active torsions:
REMARK  status: ('A' for Active; 'I' for Inactive)
REMARK    1  A    between atoms: C_2  and  C_4
REMARK    2  A    between atoms: C_6  and  N_7
REMARK    3  A    between atoms: C_14  and  O_15
REMARK    4  A    between atoms: O_15  and  C_16
REMARK    5  A    between atoms: C_16  and  C_17
REMARK    6  A    between atoms: C_17  and  C_18
REMARK                            x       y       z     vdW  Elec       q    Type
REMARK                         _______ _______ _______ _____ _____    ______ ____
ROOT
ATOM      1  C   UNL     1       6.262   5.256  15.660  0.00  0.00    +0.000 A 
ATOM      2  S   UNL     1       4.777   4.435  15.978  0.00  0.00    +0.000 S 
ATOM      3  C   UNL     1       4.393   5.408  17.323  0.00  0.00    +0.000 A 
ATOM      4  C   UNL     1       5.410   6.312  17.552  0.00  0.00    +0.000 A 
ATOM      5  C   UNL     1       6.509   6.219  16.635  0.00  0.00    +0.000 A 
ENDROOT
BRANCH   3   6
ATOM      6  N   UNL     1       3.249   5.287  18.045  0.00  0.00    +0.000 N 
ATOM      7  C   UNL     1       2.417   6.442  18.410  0.00  0.00    +0.000 C 
ATOM      8  C   UNL     1       2.353   6.606  19.933  0.00  0.00    +0.000 C 
ATOM      9  O   UNL     1       1.935   5.391  20.580  0.00  0.00    +0.000 OA
ATOM     10  C   UNL     1       2.849   4.324  20.273  0.00  0.00    +0.000 C 
ATOM     11  C   UNL     1       2.910   4.052  18.759  0.00  0.00    +0.000 C 
ENDBRANCH   3   6
BRANCH   1  13
ATOM     12  N   UNL     1       8.049   5.539  14.095  0.00  0.00    +0.000 N 
ATOM     13  C   UNL     1       6.960   4.805  14.457  0.00  0.00    +0.000 C 
ATOM     14  O   UNL     1       6.619   3.868  13.742  0.00  0.00    +0.000 OA
ATOM     15  H   UNL     1       8.430   5.355  13.180  0.00  0.00    +0.000 HD
ATOM     16  H   UNL     1       8.348   6.342  14.622  0.00  0.00    +0.000 HD
ENDBRANCH   1  13
BRANCH   5  17
ATOM     17  O   UNL     1       7.637   7.000  16.692  0.00  0.00    +0.000 OA
BRANCH  17  18
ATOM     18  C   UNL     1       7.432   8.220  17.453  0.00  0.00    +0.000 C 
BRANCH  18  19
ATOM     19  C   UNL     1       8.511   8.416  18.522  0.00  0.00    +0.000 C 
BRANCH  19  20
ATOM     20  C   UNL     1       8.854   9.883  18.693  0.00  0.00    +0.000 A 
ATOM     21  C   UNL     1       8.509  10.812  17.706  0.00  0.00    +0.000 A 
ATOM     22  C   UNL     1       8.892  12.138  17.870  0.00  0.00    +0.000 A 
ATOM     23  N   UNL     1       9.593  12.595  18.928  0.00  0.00    +0.000 NA
ATOM     24  C   UNL     1       9.918  11.688  19.871  0.00  0.00    +0.000 A 
ATOM     25  C   UNL     1       9.574  10.343  19.800  0.00  0.00    +0.000 A 
ENDBRANCH  19  20
ENDBRANCH  18  19
ENDBRANCH  17  18
ENDBRANCH   5  17
TORSDOF 6
ENDMDL
MODEL 8
REMARK VINA RESULT:      -7.3      1.567      1.924
REMARK  Name = 
REMARK  6 active torsions:
REMARK  status: ('A' for Active; 'I' for Inactive)
REMARK    1  A    between atoms: C_2  and  C_4
REMARK    2  A    between atoms: C_6  and  N_7
REMARK    3  A    between atoms: C_14  and  O_15
REMARK    4  A    between atoms: O_15  and  C_16
REMARK    5  A    between atoms: C_16  and  C_17
REMARK    6  A    between atoms: C_17  and  C_18
REMARK                            x       y       z     vdW  Elec       q    Type
REMARK                         _______ _______ _______ _____ _____    ______ ____
ROOT
ATOM      1  C   UNL     1       2.209   3.768  19.173  0.00  0.00    +0.000 A 
ATOM      2  S   UNL     1       3.245   3.080  17.975  0.00  0.00    +0.000 S 
ATOM      3  C   UNL     1       4.413   4.313  18.110  0.00  0.00    +0.000 A 
ATOM      4  C   UNL     1       3.991   5.259  19.021  0.00  0.00    +0.000 A 
ATOM      5  C   UNL     1       2.714   4.987  19.615  0.00  0.00    +0.000 A 
ENDROOT
BRANCH   3   6
ATOM      6  N   UNL     1       5.577   4.334  17.410  0.00  0.00    +0.000 N 
ATOM      7  C   UNL     1       6.797   4.974  17.923  0.00  0.00    +0.000 C 
ATOM      8  C   UNL     1       7.222   6.137  17.018  0.00  0.00    +0.000 C 
ATOM      9  O   UNL     1       7.343   5.724  15.645  0.00  0.00    +0.000 OA
ATOM     10  C   UNL     1       6.088   5.208  15.168  0.00  0.00    +0.000 C 
ATOM     11  C   UNL     1       5.632   3.987  15.987  0.00  0.00    +0.000 C 
ENDBRANCH   3   6
BRANCH   1  13
ATOM     12  N   UNL     1       0.680   2.929  20.810  0.00  0.00    +0.000 N 
ATOM     13  C   UNL     1       1.032   2.961  19.494  0.00  0.00    +0.000 C 
ATOM     14  O   UNL     1       0.386   2.291  18.697  0.00  0.00    +0.000 OA
ATOM     15  H   UNL     1      -0.009   2.242  21.073  0.00  0.00    +0.000 HD
ATOM     16  H   UNL     1       1.201   3.427  21.512  0.00  0.00    +0.000 HD
ENDBRANCH   1  13
BRANCH   5  17
ATOM     17  O   UNL     1       2.091   5.806  20.525  0.00  0.00    +0.000 OA
BRANCH  17  18
ATOM     18  C   UNL     1       2.033   7.188  20.083  0.00  0.00    +0.000 C 
BRANCH  18  19
ATOM     19  C   UNL     1       1.360   8.093  21.119  0.00  0.00    +0.000 C 
BRANCH  19  20
ATOM     20  C   UNL     1       0.687   9.280  20.457  0.00  0.00    +0.000 A 
ATOM     21  C   UNL     1       1.045   9.666  19.161  0.00  0.00    +0.000 A 
ATOM     22  C   UNL     1       0.449  10.794  18.609  0.00  0.00    +0.000 A 
ATOM     23  N   UNL     1      -0.458  11.559  19.252  0.00  0.00    +0.000 NA
ATOM     24  C   UNL     1      -0.792  11.173  20.500  0.00  0.00    +0.000 A 
ATOM     25  C   UNL     1      -0.258  10.058  21.134  0.00  0.00    +0.000 A 
ENDBRANCH  19  20
ENDBRANCH  18  19
ENDBRANCH  17  18
ENDBRANCH   5  17
TORSDOF 6
ENDMDL
MODEL 9
REMARK VINA RESULT:      -7.3      2.425      6.537
REMARK  Name = 
REMARK  6 active torsions:
REMARK  status: ('A' for Active; 'I' for Inactive)
REMARK    1  A    between atoms: C_2  and  C_4
REMARK    2  A    between atoms: C_6  and  N_7
REMARK    3  A    between atoms: C_14  and  O_15
REMARK    4  A    between atoms: O_15  and  C_16
REMARK    5  A    between atoms: C_16  and  C_17
REMARK    6  A    between atoms: C_17  and  C_18
REMARK                            x       y       z     vdW  Elec       q    Type
REMARK                         _______ _______ _______ _____ _____    ______ ____
ROOT
ATOM      1  C   UNL     1       2.157   4.039  19.336  0.00  0.00    +0.000 A 
ATOM      2  S   UNL     1       1.782   5.310  20.443  0.00  0.00    +0.000 S 
ATOM      3  C   UNL     1       2.165   6.546  19.334  0.00  0.00    +0.000 A 
ATOM      4  C   UNL     1       2.618   5.992  18.154  0.00  0.00    +0.000 A 
ATOM      5  C   UNL     1       2.658   4.559  18.145  0.00  0.00    +0.000 A 
ENDROOT
BRANCH   3   6
ATOM      6  N   UNL     1       2.034   7.871  19.601  0.00  0.00    +0.000 N 
ATOM      7  C   UNL     1       1.543   8.374  20.891  0.00  0.00    +0.000 C 
ATOM      8  C   UNL     1       0.232   9.150  20.710  0.00  0.00    +0.000 C 
ATOM      9  O   UNL     1       0.363  10.186  19.720  0.00  0.00    +0.000 OA
ATOM     10  C   UNL     1       0.739   9.620  18.453  0.00  0.00    +0.000 C 
ATOM     11  C   UNL     1       2.087   8.884  18.541  0.00  0.00    +0.000 C 
ENDBRANCH   3   6
BRANCH   1  13
ATOM     12  N   UNL     1       1.762   1.722  18.891  0.00  0.00    +0.000 N 
ATOM     13  C   UNL     1       1.880   2.694  19.838  0.00  0.00    +0.000 C 
ATOM     14  O   UNL     1       1.702   2.393  21.013  0.00  0.00    +0.000 OA
ATOM     15  H   UNL     1       1.395   0.836  19.201  0.00  0.00    +0.000 HD
ATOM     16  H   UNL     1       1.857   1.922  17.909  0.00  0.00    +0.000 HD
ENDBRANCH   1  13
BRANCH   5  17
ATOM     17  O   UNL     1       3.100   3.801  17.088  0.00  0.00    +0.000 OA
BRANCH  17  18
ATOM     18  C   UNL     1       4.523   3.518  17.161  0.00  0.00    +0.000 C 
BRANCH  18  19
ATOM     19  C   UNL     1       5.342   4.475  16.290  0.00  0.00    +0.000 C 
BRANCH  19  20
ATOM     20  C   UNL     1       6.257   5.339  17.136  0.00  0.00    +0.000 A 
ATOM     21  C   UNL     1       6.585   6.636  16.729  0.00  0.00    +0.000 A 
ATOM     22  C   UNL     1       7.473   7.377  17.500  0.00  0.00    +0.000 A 
ATOM     23  N   UNL     1       8.056   6.919  18.627  0.00  0.00    +0.000 NA
ATOM     24  C   UNL     1       7.730   5.667  19.007  0.00  0.00    +0.000 A 
ATOM     25  C   UNL     1       6.847   4.853  18.308  0.00  0.00    +0.000 A 
ENDBRANCH  19  20
ENDBRANCH  18  19
ENDBRANCH  17  18
ENDBRANCH   5  17
TORSDOF 6
ENDMDL
