MODEL 1
REMARK VINA RESULT:      -8.4      0.000      0.000
REMARK  Name = 
REMARK  3 active torsions:
REMARK  status: ('A' for Active; 'I' for Inactive)
REMARK    1  A    between atoms: C_2  and  C_3
REMARK    2  A    between atoms: C_2  and  C_12
REMARK    3  A    between atoms: N_15  and  C_16
REMARK                            x       y       z     vdW  Elec       q    Type
REMARK                         _______ _______ _______ _____ _____    ______ ____
ROOT
ATOM      1  C   UNL     1       3.441   4.519  19.750  0.00  0.00    +0.000 A 
ATOM      2  C   UNL     1       2.240   4.118  20.389  0.00  0.00    +0.000 A 
ATOM      3  C   UNL     1       1.504   5.249  20.650  0.00  0.00    +0.000 A 
ATOM      4  N   UNL     1       2.147   6.333  20.086  0.00  0.00    +0.000 N 
ATOM      5  C   UNL     1       3.337   5.880  19.571  0.00  0.00    +0.000 A 
ENDROOT
BRANCH   4   6
ATOM      6  C   UNL     1       1.688   7.668  20.090  0.00  0.00    +0.000 A 
ATOM      7  C   UNL     1       1.083   8.159  21.260  0.00  0.00    +0.000 A 
ATOM      8  C   UNL     1       0.672   9.488  21.328  0.00  0.00    +0.000 A 
ATOM      9  C   UNL     1       0.829  10.317  20.227  0.00  0.00    +0.000 A 
ATOM     10  C   UNL     1       1.398   9.832  19.050  0.00  0.00    +0.000 A 
ATOM     11  C   UNL     1       1.840   8.510  18.972  0.00  0.00    +0.000 A 
ATOM     12 CL   UNL     1       2.417   8.007  17.420  0.00  0.00    +0.000 Cl
ENDBRANCH   4   6
BRANCH   1  14
ATOM     13  O   UNL     1       4.847   2.644  19.952  0.00  0.00    +0.000 OA
ATOM     14  C   UNL     1       4.563   3.683  19.350  0.00  0.00    +0.000 C 
BRANCH  14  15
ATOM     15  C   UNL     1       5.411   4.116  18.212  0.00  0.00    +0.000 A 
ATOM     16  C   UNL     1       6.550   4.911  18.468  0.00  0.00    +0.000 A 
ATOM     17  C   UNL     1       7.349   5.364  17.417  0.00  0.00    +0.000 A 
ATOM     18  C   UNL     1       6.969   5.022  16.135  0.00  0.00    +0.000 A 
ATOM     19  C   UNL     1       5.853   4.263  15.882  0.00  0.00    +0.000 A 
ATOM     20  C   UNL     1       5.053   3.797  16.893  0.00  0.00    +0.000 A 
ATOM     21  O   UNL     1       5.650   4.065  14.554  0.00  0.00    +0.000 OA
ATOM     22  C   UNL     1       6.737   4.824  13.992  0.00  0.00    +0.000 C 
ATOM     23  O   UNL     1       7.611   5.392  14.992  0.00  0.00    +0.000 OA
ENDBRANCH  14  15
ENDBRANCH   1  14
TORSDOF 3
ENDMDL
MODEL 2
REMARK VINA RESULT:      -8.3      1.161      1.574
REMARK  Name = 
REMARK  3 active torsions:
REMARK  status: ('A' for Active; 'I' for Inactive)
REMARK    1  A    between atoms: C_2  and  C_3
REMARK    2  A    between atoms: C_2  and  C_12
REMARK    3  A    between atoms: N_15  and  C_16
REMARK                            x       y       z     vdW  Elec       q    Type
REMARK                         _______ _______ _______ _____ _____    ______ ____
ROOT
ATOM      1  C   UNL     1       3.480   4.892  19.621  0.00  0.00    +0.000 A 
ATOM      2  C   UNL     1       2.403   4.712  20.526  0.00  0.00    +0.000 A 
ATOM      3  C   UNL     1       1.720   5.902  20.609  0.00  0.00    +0.000 A 
ATOM      4  N   UNL     1       2.259   6.785  19.694  0.00  0.00    +0.000 N 
ATOM      5  C   UNL     1       3.346   6.168  19.123  0.00  0.00    +0.000 A 
ENDROOT
BRANCH   4   6
ATOM      6  C   UNL     1       1.807   8.097  19.435  0.00  0.00    +0.000 A 
ATOM      7  C   UNL     1       1.928   8.594  18.126  0.00  0.00    +0.000 A 
ATOM      8  C   UNL     1       1.439   9.859  17.812  0.00  0.00    +0.000 A 
ATOM      9  C   UNL     1       0.862  10.642  18.803  0.00  0.00    +0.000 A 
ATOM     10  C   UNL     1       0.767  10.172  20.111  0.00  0.00    +0.000 A 
ATOM     11  C   UNL     1       1.228   8.896  20.439  0.00  0.00    +0.000 A 
ATOM     12 CL   UNL     1       1.156   8.484  22.118  0.00  0.00    +0.000 Cl
ENDBRANCH   4   6
BRANCH   1  14
ATOM     13  O   UNL     1       4.708   2.908  19.923  0.00  0.00    +0.000 OA
ATOM     14  C   UNL     1       4.519   3.936  19.268  0.00  0.00    +0.000 C 
BRANCH  14  15
ATOM     15  C   UNL     1       5.402   4.230  18.112  0.00  0.00    +0.000 A 
ATOM     16  C   UNL     1       6.635   4.881  18.337  0.00  0.00    +0.000 A 
ATOM     17  C   UNL     1       7.472   5.203  17.267  0.00  0.00    +0.000 A 
ATOM     18  C   UNL     1       7.038   4.879  15.999  0.00  0.00    +0.000 A 
ATOM     19  C   UNL     1       5.832   4.261  15.775  0.00  0.00    +0.000 A 
ATOM     20  C   UNL     1       4.992   3.925  16.805  0.00  0.00    +0.000 A 
ATOM     21  O   UNL     1       5.590   4.057  14.454  0.00  0.00    +0.000 OA
ATOM     22  C   UNL     1       6.758   4.657  13.863  0.00  0.00    +0.000 C 
ATOM     23  O   UNL     1       7.708   5.136  14.841  0.00  0.00    +0.000 OA
ENDBRANCH  14  15
ENDBRANCH   1  14
TORSDOF 3
ENDMDL
MODEL 3
REMARK VINA RESULT:      -8.0      3.379      5.312
REMARK  Name = 
REMARK  3 active torsions:
REMARK  status: ('A' for Active; 'I' for Inactive)
REMARK    1  A    between atoms: C_2  and  C_3
REMARK    2  A    between atoms: C_2  and  C_12
REMARK    3  A    between atoms: N_15  and  C_16
REMARK                            x       y       z     vdW  Elec       q    Type
REMARK                         _______ _______ _______ _____ _____    ______ ____
ROOT
ATOM      1  C   UNL     1       2.158   8.293  18.565  0.00  0.00    +0.000 A 
ATOM      2  C   UNL     1       1.966   9.495  17.837  0.00  0.00    +0.000 A 
ATOM      3  C   UNL     1       1.119  10.296  18.563  0.00  0.00    +0.000 A 
ATOM      4  N   UNL     1       0.870   9.689  19.779  0.00  0.00    +0.000 N 
ATOM      5  C   UNL     1       1.483   8.459  19.753  0.00  0.00    +0.000 A 
ENDROOT
BRANCH   4   6
ATOM      6  C   UNL     1       0.086  10.214  20.828  0.00  0.00    +0.000 A 
ATOM      7  C   UNL     1       0.130   9.568  22.076  0.00  0.00    +0.000 A 
ATOM      8  C   UNL     1      -0.579  10.088  23.156  0.00  0.00    +0.000 A 
ATOM      9  C   UNL     1      -1.356  11.226  22.989  0.00  0.00    +0.000 A 
ATOM     10  C   UNL     1      -1.433  11.856  21.748  0.00  0.00    +0.000 A 
ATOM     11  C   UNL     1      -0.708  11.364  20.660  0.00  0.00    +0.000 A 
ATOM     12 CL   UNL     1      -0.985  12.169  19.154  0.00  0.00    +0.000 Cl
ENDBRANCH   4   6
BRANCH   1  14
ATOM     13  O   UNL     1       3.860   7.189  17.374  0.00  0.00    +0.000 OA
ATOM     14  C   UNL     1       2.916   7.117  18.165  0.00  0.00    +0.000 C 
BRANCH  14  15
ATOM     15  C   UNL     1       2.512   5.790  18.691  0.00  0.00    +0.000 A 
ATOM     16  C   UNL     1       1.914   4.856  17.815  0.00  0.00    +0.000 A 
ATOM     17  C   UNL     1       1.492   3.612  18.287  0.00  0.00    +0.000 A 
ATOM     18  C   UNL     1       1.664   3.348  19.630  0.00  0.00    +0.000 A 
ATOM     19  C   UNL     1       2.229   4.260  20.487  0.00  0.00    +0.000 A 
ATOM     20  C   UNL     1       2.661   5.487  20.053  0.00  0.00    +0.000 A 
ATOM     21  O   UNL     1       2.280   3.807  21.767  0.00  0.00    +0.000 OA
ATOM     22  C   UNL     1       1.640   2.525  21.632  0.00  0.00    +0.000 C 
ATOM     23  O   UNL     1       1.292   2.203  20.267  0.00  0.00    +0.000 OA
ENDBRANCH  14  15
ENDBRANCH   1  14
TORSDOF 3
ENDMDL
MODEL 4
REMARK VINA RESULT:      -7.9      1.549      2.281
REMARK  Name = 
REMARK  3 active torsions:
REMARK  status: ('A' for Active; 'I' for Inactive)
REMARK    1  A    between atoms: C_2  and  C_3
REMARK    2  A    between atoms: C_2  and  C_12
REMARK    3  A    between atoms: N_15  and  C_16
REMARK                            x       y       z     vdW  Elec       q    Type
REMARK                         _______ _______ _______ _____ _____    ______ ____
ROOT
ATOM      1  C   UNL     1       2.616   6.610  19.203  0.00  0.00    +0.000 A 
ATOM      2  C   UNL     1       2.634   7.657  18.246  0.00  0.00    +0.000 A 
ATOM      3  C   UNL     1       1.848   8.678  18.725  0.00  0.00    +0.000 A 
ATOM      4  N   UNL     1       1.436   8.356  20.003  0.00  0.00    +0.000 N 
ATOM      5  C   UNL     1       1.884   7.084  20.268  0.00  0.00    +0.000 A 
ENDROOT
BRANCH   4   6
ATOM      6  C   UNL     1       0.654   9.164  20.855  0.00  0.00    +0.000 A 
ATOM      7  C   UNL     1       0.732   8.937  22.240  0.00  0.00    +0.000 A 
ATOM      8  C   UNL     1       0.025   9.752  23.122  0.00  0.00    +0.000 A 
ATOM      9  C   UNL     1      -0.783  10.767  22.628  0.00  0.00    +0.000 A 
ATOM     10  C   UNL     1      -0.893  10.980  21.255  0.00  0.00    +0.000 A 
ATOM     11  C   UNL     1      -0.172  10.190  20.357  0.00  0.00    +0.000 A 
ATOM     12 CL   UNL     1      -0.490  10.483  18.682  0.00  0.00    +0.000 Cl
ENDBRANCH   4   6
BRANCH   1  14
ATOM     13  O   UNL     1       2.838   4.336  19.762  0.00  0.00    +0.000 OA
ATOM     14  C   UNL     1       3.241   5.299  19.105  0.00  0.00    +0.000 C 
BRANCH  14  15
ATOM     15  C   UNL     1       4.421   5.131  18.222  0.00  0.00    +0.000 A 
ATOM     16  C   UNL     1       5.705   5.436  18.726  0.00  0.00    +0.000 A 
ATOM     17  C   UNL     1       6.832   5.322  17.909  0.00  0.00    +0.000 A 
ATOM     18  C   UNL     1       6.635   4.923  16.604  0.00  0.00    +0.000 A 
ATOM     19  C   UNL     1       5.386   4.641  16.107  0.00  0.00    +0.000 A 
ATOM     20  C   UNL     1       4.262   4.736  16.885  0.00  0.00    +0.000 A 
ATOM     21  O   UNL     1       5.417   4.291  14.794  0.00  0.00    +0.000 OA
ATOM     22  C   UNL     1       6.820   4.429  14.504  0.00  0.00    +0.000 C 
ATOM     23  O   UNL     1       7.609   4.779  15.662  0.00  0.00    +0.000 OA
ENDBRANCH  14  15
ENDBRANCH   1  14
TORSDOF 3
ENDMDL
MODEL 5
REMARK VINA RESULT:      -7.9      3.467      5.431
REMARK  Name = 
REMARK  3 active torsions:
REMARK  status: ('A' for Active; 'I' for Inactive)
REMARK    1  A    between atoms: C_2  and  C_3
REMARK    2  A    between atoms: C_2  and  C_12
REMARK    3  A    between atoms: N_15  and  C_16
REMARK                            x       y       z     vdW  Elec       q    Type
REMARK                         _______ _______ _______ _____ _____    ______ ____
ROOT
ATOM      1  C   UNL     1       2.034   8.430  18.558  0.00  0.00    +0.000 A 
ATOM      2  C   UNL     1       1.442   9.345  17.649  0.00  0.00    +0.000 A 
ATOM      3  C   UNL     1       0.671  10.220  18.376  0.00  0.00    +0.000 A 
ATOM      4  N   UNL     1       0.857   9.961  19.720  0.00  0.00    +0.000 N 
ATOM      5  C   UNL     1       1.663   8.853  19.814  0.00  0.00    +0.000 A 
ENDROOT
BRANCH   4   6
ATOM      6  C   UNL     1       0.281  10.674  20.793  0.00  0.00    +0.000 A 
ATOM      7  C   UNL     1       0.398  12.074  20.799  0.00  0.00    +0.000 A 
ATOM      8  C   UNL     1      -0.209  12.821  21.806  0.00  0.00    +0.000 A 
ATOM      9  C   UNL     1      -0.900  12.177  22.823  0.00  0.00    +0.000 A 
ATOM     10  C   UNL     1      -0.995  10.787  22.845  0.00  0.00    +0.000 A 
ATOM     11  C   UNL     1      -0.415  10.023  21.830  0.00  0.00    +0.000 A 
ATOM     12 CL   UNL     1      -0.507   8.308  22.042  0.00  0.00    +0.000 Cl
ENDBRANCH   4   6
BRANCH   1  14
ATOM     13  O   UNL     1       3.892   7.385  17.564  0.00  0.00    +0.000 OA
ATOM     14  C   UNL     1       2.872   7.281  18.250  0.00  0.00    +0.000 C 
BRANCH  14  15
ATOM     15  C   UNL     1       2.463   5.942  18.740  0.00  0.00    +0.000 A 
ATOM     16  C   UNL     1       1.878   5.029  17.835  0.00  0.00    +0.000 A 
ATOM     17  C   UNL     1       1.450   3.774  18.273  0.00  0.00    +0.000 A 
ATOM     18  C   UNL     1       1.604   3.480  19.612  0.00  0.00    +0.000 A 
ATOM     19  C   UNL     1       2.157   4.372  20.497  0.00  0.00    +0.000 A 
ATOM     20  C   UNL     1       2.593   5.609  20.097  0.00  0.00    +0.000 A 
ATOM     21  O   UNL     1       2.191   3.891  21.767  0.00  0.00    +0.000 OA
ATOM     22  C   UNL     1       1.554   2.611  21.595  0.00  0.00    +0.000 C 
ATOM     23  O   UNL     1       1.225   2.320  20.218  0.00  0.00    +0.000 OA
ENDBRANCH  14  15
ENDBRANCH   1  14
TORSDOF 3
ENDMDL
MODEL 6
REMARK VINA RESULT:      -7.9      1.869      2.718
REMARK  Name = 
REMARK  3 active torsions:
REMARK  status: ('A' for Active; 'I' for Inactive)
REMARK    1  A    between atoms: C_2  and  C_3
REMARK    2  A    between atoms: C_2  and  C_12
REMARK    3  A    between atoms: N_15  and  C_16
REMARK                            x       y       z     vdW  Elec       q    Type
REMARK                         _______ _______ _______ _____ _____    ______ ____
ROOT
ATOM      1  C   UNL     1       2.577   7.285  18.977  0.00  0.00    +0.000 A 
ATOM      2  C   UNL     1       2.778   8.128  17.854  0.00  0.00    +0.000 A 
ATOM      3  C   UNL     1       1.953   9.218  17.993  0.00  0.00    +0.000 A 
ATOM      4  N   UNL     1       1.330   9.147  19.224  0.00  0.00    +0.000 N 
ATOM      5  C   UNL     1       1.695   7.953  19.797  0.00  0.00    +0.000 A 
ENDROOT
BRANCH   4   6
ATOM      6  C   UNL     1       0.442  10.101  19.766  0.00  0.00    +0.000 A 
ATOM      7  C   UNL     1       0.722  10.617  21.042  0.00  0.00    +0.000 A 
ATOM      8  C   UNL     1      -0.092  11.606  21.589  0.00  0.00    +0.000 A 
ATOM      9  C   UNL     1      -1.201  12.055  20.885  0.00  0.00    +0.000 A 
ATOM     10  C   UNL     1      -1.507  11.526  19.632  0.00  0.00    +0.000 A 
ATOM     11  C   UNL     1      -0.687  10.553  19.057  0.00  0.00    +0.000 A 
ATOM     12 CL   UNL     1      -1.245   9.900  17.556  0.00  0.00    +0.000 Cl
ENDBRANCH   4   6
BRANCH   1  14
ATOM     13  O   UNL     1       2.742   5.233  20.114  0.00  0.00    +0.000 OA
ATOM     14  C   UNL     1       3.173   5.983  19.235  0.00  0.00    +0.000 C 
BRANCH  14  15
ATOM     15  C   UNL     1       4.360   5.568  18.446  0.00  0.00    +0.000 A 
ATOM     16  C   UNL     1       5.622   5.520  19.078  0.00  0.00    +0.000 A 
ATOM     17  C   UNL     1       6.763   5.167  18.354  0.00  0.00    +0.000 A 
ATOM     18  C   UNL     1       6.606   4.891  17.012  0.00  0.00    +0.000 A 
ATOM     19  C   UNL     1       5.383   4.954  16.391  0.00  0.00    +0.000 A 
ATOM     20  C   UNL     1       4.243   5.290  17.076  0.00  0.00    +0.000 A 
ATOM     21  O   UNL     1       5.458   4.670  15.065  0.00  0.00    +0.000 OA
ATOM     22  C   UNL     1       6.874   4.467  14.906  0.00  0.00    +0.000 C 
ATOM     23  O   UNL     1       7.605   4.554  16.149  0.00  0.00    +0.000 OA
ENDBRANCH  14  15
ENDBRANCH   1  14
TORSDOF 3
ENDMDL
MODEL 7
REMARK VINA RESULT:      -7.8      3.844      8.007
REMARK  Name = 
REMARK  3 active torsions:
REMARK  status: ('A' for Active; 'I' for Inactive)
REMARK    1  A    between atoms: C_2  and  C_3
REMARK    2  A    between atoms: C_2  and  C_12
REMARK    3  A    between atoms: N_15  and  C_16
REMARK                            x       y       z     vdW  Elec       q    Type
REMARK                         _______ _______ _______ _____ _____    ______ ____
ROOT
ATOM      1  C   UNL     1       2.374   7.625  18.139  0.00  0.00    +0.000 A 
ATOM      2  C   UNL     1       1.910   6.337  18.508  0.00  0.00    +0.000 A 
ATOM      3  C   UNL     1       2.816   5.414  18.043  0.00  0.00    +0.000 A 
ATOM      4  N   UNL     1       3.893   6.087  17.501  0.00  0.00    +0.000 N 
ATOM      5  C   UNL     1       3.597   7.428  17.538  0.00  0.00    +0.000 A 
ENDROOT
BRANCH   4   6
ATOM      6  C   UNL     1       5.058   5.500  16.961  0.00  0.00    +0.000 A 
ATOM      7  C   UNL     1       5.081   5.218  15.585  0.00  0.00    +0.000 A 
ATOM      8  C   UNL     1       6.232   4.696  14.999  0.00  0.00    +0.000 A 
ATOM      9  C   UNL     1       7.343   4.422  15.784  0.00  0.00    +0.000 A 
ATOM     10  C   UNL     1       7.320   4.667  17.156  0.00  0.00    +0.000 A 
ATOM     11  C   UNL     1       6.184   5.214  17.756  0.00  0.00    +0.000 A 
ATOM     12 CL   UNL     1       6.247   5.357  19.479  0.00  0.00    +0.000 Cl
ENDBRANCH   4   6
BRANCH   1  14
ATOM     13  O   UNL     1       1.576   9.723  17.434  0.00  0.00    +0.000 OA
ATOM     14  C   UNL     1       1.715   8.905  18.348  0.00  0.00    +0.000 C 
BRANCH  14  15
ATOM     15  C   UNL     1       1.237   9.253  19.709  0.00  0.00    +0.000 A 
ATOM     16  C   UNL     1       1.664   8.473  20.807  0.00  0.00    +0.000 A 
ATOM     17  C   UNL     1       1.205   8.753  22.095  0.00  0.00    +0.000 A 
ATOM     18  C   UNL     1       0.313   9.795  22.242  0.00  0.00    +0.000 A 
ATOM     19  C   UNL     1      -0.117  10.543  21.174  0.00  0.00    +0.000 A 
ATOM     20  C   UNL     1       0.322  10.299  19.898  0.00  0.00    +0.000 A 
ATOM     21  O   UNL     1      -1.010  11.501  21.537  0.00  0.00    +0.000 OA
ATOM     22  C   UNL     1      -1.133  11.243  22.948  0.00  0.00    +0.000 C 
ATOM     23  O   UNL     1      -0.255  10.194  23.414  0.00  0.00    +0.000 OA
ENDBRANCH  14  15
ENDBRANCH   1  14
TORSDOF 3
ENDMDL
MODEL 8
REMARK VINA RESULT:      -7.8      2.817      4.523
REMARK  Name = 
REMARK  3 active torsions:
REMARK  status: ('A' for Active; 'I' for Inactive)
REMARK    1  A    between atoms: C_2  and  C_3
REMARK    2  A    between atoms: C_2  and  C_12
REMARK    3  A    between atoms: N_15  and  C_16
REMARK                            x       y       z     vdW  Elec       q    Type
REMARK                         _______ _______ _______ _____ _____    ______ ____
ROOT
ATOM      1  C   UNL     1       2.321   8.183  18.274  0.00  0.00    +0.000 A 
ATOM      2  C   UNL     1       1.509   9.039  17.487  0.00  0.00    +0.000 A 
ATOM      3  C   UNL     1       0.625   9.671  18.329  0.00  0.00    +0.000 A 
ATOM      4  N   UNL     1       0.936   9.331  19.631  0.00  0.00    +0.000 N 
ATOM      5  C   UNL     1       1.948   8.403  19.581  0.00  0.00    +0.000 A 
ENDROOT
BRANCH   4   6
ATOM      6  C   UNL     1       0.294   9.811  20.793  0.00  0.00    +0.000 A 
ATOM      7  C   UNL     1      -0.086   8.878  21.773  0.00  0.00    +0.000 A 
ATOM      8  C   UNL     1      -0.666   9.312  22.963  0.00  0.00    +0.000 A 
ATOM      9  C   UNL     1      -0.899  10.666  23.163  0.00  0.00    +0.000 A 
ATOM     10  C   UNL     1      -0.556  11.597  22.184  0.00  0.00    +0.000 A 
ATOM     11  C   UNL     1       0.050  11.182  20.997  0.00  0.00    +0.000 A 
ATOM     12 CL   UNL     1       0.316  12.423  19.822  0.00  0.00    +0.000 Cl
ENDBRANCH   4   6
BRANCH   1  14
ATOM     13  O   UNL     1       4.295   7.632  17.119  0.00  0.00    +0.000 OA
ATOM     14  C   UNL     1       3.349   7.259  17.818  0.00  0.00    +0.000 C 
BRANCH  14  15
ATOM     15  C   UNL     1       3.230   5.822  18.170  0.00  0.00    +0.000 A 
ATOM     16  C   UNL     1       2.004   5.159  17.944  0.00  0.00    +0.000 A 
ATOM     17  C   UNL     1       1.849   3.817  18.296  0.00  0.00    +0.000 A 
ATOM     18  C   UNL     1       2.925   3.184  18.883  0.00  0.00    +0.000 A 
ATOM     19  C   UNL     1       4.113   3.831  19.119  0.00  0.00    +0.000 A 
ATOM     20  C   UNL     1       4.298   5.146  18.778  0.00  0.00    +0.000 A 
ATOM     21  O   UNL     1       5.028   3.031  19.726  0.00  0.00    +0.000 OA
ATOM     22  C   UNL     1       4.269   1.819  19.891  0.00  0.00    +0.000 C 
ATOM     23  O   UNL     1       2.948   1.891  19.311  0.00  0.00    +0.000 OA
ENDBRANCH  14  15
ENDBRANCH   1  14
TORSDOF 3
ENDMDL
MODEL 9
REMARK VINA RESULT:      -7.7      1.861      2.746
REMARK  Name = 
REMARK  3 active torsions:
REMARK  status: ('A' for Active; 'I' for Inactive)
REMARK    1  A    between atoms: C_2  and  C_3
REMARK    2  A    between atoms: C_2  and  C_12
REMARK    3  A    between atoms: N_15  and  C_16
REMARK                            x       y       z     vdW  Elec       q    Type
REMARK                         _______ _______ _______ _____ _____    ______ ____
ROOT
ATOM      1  C   UNL     1       2.730   7.070  18.993  0.00  0.00    +0.000 A 
ATOM      2  C   UNL     1       2.846   7.930  17.871  0.00  0.00    +0.000 A 
ATOM      3  C   UNL     1       2.001   8.995  18.067  0.00  0.00    +0.000 A 
ATOM      4  N   UNL     1       1.450   8.895  19.330  0.00  0.00    +0.000 N 
ATOM      5  C   UNL     1       1.877   7.705  19.868  0.00  0.00    +0.000 A 
ENDROOT
BRANCH   4   6
ATOM      6  C   UNL     1       0.568   9.819  19.930  0.00  0.00    +0.000 A 
ATOM      7  C   UNL     1      -0.256  10.590  19.093  0.00  0.00    +0.000 A 
ATOM      8  C   UNL     1      -1.184  11.470  19.645  0.00  0.00    +0.000 A 
ATOM      9  C   UNL     1      -1.270  11.608  21.023  0.00  0.00    +0.000 A 
ATOM     10  C   UNL     1      -0.434  10.873  21.862  0.00  0.00    +0.000 A 
ATOM     11  C   UNL     1       0.484   9.967  21.328  0.00  0.00    +0.000 A 
ATOM     12 CL   UNL     1       1.536   9.209  22.472  0.00  0.00    +0.000 Cl
ENDBRANCH   4   6
BRANCH   1  14
ATOM     13  O   UNL     1       2.994   5.000  20.077  0.00  0.00    +0.000 OA
ATOM     14  C   UNL     1       3.374   5.783  19.203  0.00  0.00    +0.000 C 
BRANCH  14  15
ATOM     15  C   UNL     1       4.549   5.424  18.370  0.00  0.00    +0.000 A 
ATOM     16  C   UNL     1       5.829   5.392  18.966  0.00  0.00    +0.000 A 
ATOM     17  C   UNL     1       6.958   5.092  18.202  0.00  0.00    +0.000 A 
ATOM     18  C   UNL     1       6.772   4.851  16.856  0.00  0.00    +0.000 A 
ATOM     19  C   UNL     1       5.530   4.897  16.272  0.00  0.00    +0.000 A 
ATOM     20  C   UNL     1       4.402   5.182  16.996  0.00  0.00    +0.000 A 
ATOM     21  O   UNL     1       5.576   4.654  14.936  0.00  0.00    +0.000 OA
ATOM     22  C   UNL     1       6.992   4.495  14.732  0.00  0.00    +0.000 C 
ATOM     23  O   UNL     1       7.755   4.567  15.957  0.00  0.00    +0.000 OA
ENDBRANCH  14  15
ENDBRANCH   1  14
TORSDOF 3
ENDMDL
