MODEL 1
REMARK VINA RESULT:      -9.3      0.000      0.000
REMARK  Name = 
REMARK  4 active torsions:
REMARK  status: ('A' for Active; 'I' for Inactive)
REMARK    1  A    between atoms: C_1  and  C_2
REMARK    2  A    between atoms: N_10  and  C_11
REMARK    3  A    between atoms: N_18  and  C_19
REMARK    4  A    between atoms: C_23  and  C_24
REMARK                            x       y       z     vdW  Elec       q    Type
REMARK                         _______ _______ _______ _____ _____    ______ ____
ROOT
ATOM      1  C   UNL     1      -1.764  12.115  23.393  0.00  0.00    +0.000 C 
ATOM      2  C   UNL     1      -1.196  11.119  22.431  0.00  0.00    +0.000 A 
ATOM      3  C   UNL     1      -0.316  10.117  22.867  0.00  0.00    +0.000 A 
ATOM      4  C   UNL     1       0.445   9.388  21.946  0.00  0.00    +0.000 A 
ATOM      5  C   UNL     1       0.402   9.750  20.611  0.00  0.00    +0.000 A 
ATOM      6  C   UNL     1      -0.484  10.728  20.190  0.00  0.00    +0.000 A 
ATOM      7  C   UNL     1      -1.364  11.341  21.070  0.00  0.00    +0.000 A 
ATOM      8  C   UNL     1      -0.276  11.089  18.751  0.00  0.00    +0.000 C 
ATOM      9  C   UNL     1      -0.158  12.612  18.596  0.00  0.00    +0.000 C 
ATOM     10  N   UNL     1       1.108  13.232  18.941  0.00  0.00    +0.000 NA
ATOM     11  C   UNL     1       1.220  13.767  20.292  0.00  0.00    +0.000 C 
ATOM     12  C   UNL     1       2.296  12.554  18.467  0.00  0.00    +0.000 C 
ATOM     13  C   UNL     1       2.242  11.060  18.101  0.00  0.00    +0.000 C 
ATOM     14  C   UNL     1       0.968  10.240  18.384  0.00  0.00    +0.000 C 
ATOM     15  N   UNL     1       1.165   9.261  19.520  0.00  0.00    +0.000 N 
ATOM     16  C   UNL     1       1.804   8.027  19.575  0.00  0.00    +0.000 C 
ATOM     17  O   UNL     1       1.947   7.408  20.636  0.00  0.00    +0.000 OA
ATOM     18  N   UNL     1       2.227   7.473  18.375  0.00  0.00    +0.000 N 
ATOM     19  H   UNL     1       2.519   8.121  17.659  0.00  0.00    +0.000 HD
ENDROOT
BRANCH  18  20
ATOM     20  C   UNL     1       2.668   6.118  18.251  0.00  0.00    +0.000 A 
ATOM     21  C   UNL     1       3.850   5.768  17.574  0.00  0.00    +0.000 A 
ATOM     22  C   UNL     1       4.216   4.431  17.381  0.00  0.00    +0.000 A 
ATOM     23  C   UNL     1       3.421   3.416  17.887  0.00  0.00    +0.000 A 
ATOM     24  C   UNL     1       2.266   3.728  18.618  0.00  0.00    +0.000 A 
ATOM     25  C   UNL     1       1.914   5.084  18.822  0.00  0.00    +0.000 A 
BRANCH  24  26
ATOM     26  C   UNL     1       1.390   2.622  19.158  0.00  0.00    +0.000 C 
ATOM     27  F   UNL     1       0.249   2.424  18.439  0.00  0.00    +0.000 F 
ATOM     28  F   UNL     1       2.026   1.419  19.184  0.00  0.00    +0.000 F 
ATOM     29  F   UNL     1       0.983   2.857  20.437  0.00  0.00    +0.000 F 
ENDBRANCH  24  26
ENDBRANCH  18  20
TORSDOF 2
ENDMDL
MODEL 2
REMARK VINA RESULT:      -9.1      2.336      2.826
REMARK  Name = 
REMARK  4 active torsions:
REMARK  status: ('A' for Active; 'I' for Inactive)
REMARK    1  A    between atoms: C_1  and  C_2
REMARK    2  A    between atoms: N_10  and  C_11
REMARK    3  A    between atoms: N_18  and  C_19
REMARK    4  A    between atoms: C_23  and  C_24
REMARK                            x       y       z     vdW  Elec       q    Type
REMARK                         _______ _______ _______ _____ _____    ______ ____
ROOT
ATOM      1  C   UNL     1      -1.495  11.381  23.372  0.00  0.00    +0.000 C 
ATOM      2  C   UNL     1      -0.895  10.500  22.321  0.00  0.00    +0.000 A 
ATOM      3  C   UNL     1       0.066   9.533  22.654  0.00  0.00    +0.000 A 
ATOM      4  C   UNL     1       0.840   8.927  21.658  0.00  0.00    +0.000 A 
ATOM      5  C   UNL     1       0.725   9.381  20.355  0.00  0.00    +0.000 A 
ATOM      6  C   UNL     1      -0.241  10.322  20.036  0.00  0.00    +0.000 A 
ATOM      7  C   UNL     1      -1.127  10.807  20.986  0.00  0.00    +0.000 A 
ATOM      8  C   UNL     1      -0.110  10.799  18.622  0.00  0.00    +0.000 C 
ATOM      9  C   UNL     1      -0.102  12.334  18.577  0.00  0.00    +0.000 C 
ATOM     10  N   UNL     1       1.131  13.015  18.928  0.00  0.00    +0.000 NA
ATOM     11  C   UNL     1       1.255  13.458  20.311  0.00  0.00    +0.000 C 
ATOM     12  C   UNL     1       2.344  12.458  18.367  0.00  0.00    +0.000 C 
ATOM     13  C   UNL     1       2.379  10.994  17.893  0.00  0.00    +0.000 C 
ATOM     14  C   UNL     1       1.174  10.068  18.154  0.00  0.00    +0.000 C 
ATOM     15  N   UNL     1       1.479   9.026  19.207  0.00  0.00    +0.000 N 
ATOM     16  C   UNL     1       2.201   7.840  19.151  0.00  0.00    +0.000 C 
ATOM     17  O   UNL     1       2.425   7.158  20.158  0.00  0.00    +0.000 OA
ATOM     18  N   UNL     1       2.617   7.405  17.900  0.00  0.00    +0.000 N 
ATOM     19  H   UNL     1       2.838   8.121  17.226  0.00  0.00    +0.000 HD
ENDROOT
BRANCH  18  20
ATOM     20  C   UNL     1       3.144   6.096  17.662  0.00  0.00    +0.000 A 
ATOM     21  C   UNL     1       2.392   4.928  17.883  0.00  0.00    +0.000 A 
ATOM     22  C   UNL     1       2.955   3.655  17.736  0.00  0.00    +0.000 A 
ATOM     23  C   UNL     1       4.275   3.524  17.337  0.00  0.00    +0.000 A 
ATOM     24  C   UNL     1       5.038   4.665  17.051  0.00  0.00    +0.000 A 
ATOM     25  C   UNL     1       4.453   5.947  17.187  0.00  0.00    +0.000 A 
BRANCH  24  26
ATOM     26  C   UNL     1       6.482   4.524  16.630  0.00  0.00    +0.000 C 
ATOM     27  F   UNL     1       7.316   4.150  17.643  0.00  0.00    +0.000 F 
ATOM     28  F   UNL     1       6.651   3.596  15.649  0.00  0.00    +0.000 F 
ATOM     29  F   UNL     1       6.997   5.686  16.139  0.00  0.00    +0.000 F 
ENDBRANCH  24  26
ENDBRANCH  18  20
TORSDOF 2
ENDMDL
MODEL 3
REMARK VINA RESULT:      -9.1      3.675      8.462
REMARK  Name = 
REMARK  4 active torsions:
REMARK  status: ('A' for Active; 'I' for Inactive)
REMARK    1  A    between atoms: C_1  and  C_2
REMARK    2  A    between atoms: N_10  and  C_11
REMARK    3  A    between atoms: N_18  and  C_19
REMARK    4  A    between atoms: C_23  and  C_24
REMARK                            x       y       z     vdW  Elec       q    Type
REMARK                         _______ _______ _______ _____ _____    ______ ____
ROOT
ATOM      1  C   UNL     1       5.569   3.979  15.890  0.00  0.00    +0.000 C 
ATOM      2  C   UNL     1       4.522   4.693  16.687  0.00  0.00    +0.000 A 
ATOM      3  C   UNL     1       4.785   5.945  17.263  0.00  0.00    +0.000 A 
ATOM      4  C   UNL     1       3.936   6.468  18.246  0.00  0.00    +0.000 A 
ATOM      5  C   UNL     1       2.902   5.681  18.722  0.00  0.00    +0.000 A 
ATOM      6  C   UNL     1       2.641   4.455  18.132  0.00  0.00    +0.000 A 
ATOM      7  C   UNL     1       3.373   4.000  17.045  0.00  0.00    +0.000 A 
ATOM      8  C   UNL     1       1.593   3.688  18.878  0.00  0.00    +0.000 C 
ATOM      9  C   UNL     1       2.083   2.262  19.166  0.00  0.00    +0.000 C 
ATOM     10  N   UNL     1       3.012   2.074  20.265  0.00  0.00    +0.000 NA
ATOM     11  C   UNL     1       4.428   2.056  19.921  0.00  0.00    +0.000 C 
ATOM     12  C   UNL     1       2.702   2.789  21.485  0.00  0.00    +0.000 C 
ATOM     13  C   UNL     1       1.791   4.028  21.448  0.00  0.00    +0.000 C 
ATOM     14  C   UNL     1       1.329   4.608  20.097  0.00  0.00    +0.000 C 
ATOM     15  N   UNL     1       1.999   5.928  19.787  0.00  0.00    +0.000 N 
ATOM     16  C   UNL     1       1.768   7.214  20.260  0.00  0.00    +0.000 C 
ATOM     17  O   UNL     1       2.495   8.167  19.957  0.00  0.00    +0.000 OA
ATOM     18  N   UNL     1       0.640   7.412  21.045  0.00  0.00    +0.000 N 
ATOM     19  H   UNL     1       0.357   6.640  21.629  0.00  0.00    +0.000 HD
ENDROOT
BRANCH  18  20
ATOM     20  C   UNL     1       0.144   8.710  21.390  0.00  0.00    +0.000 A 
ATOM     21  C   UNL     1       0.006   9.134  22.724  0.00  0.00    +0.000 A 
ATOM     22  C   UNL     1      -0.568  10.370  23.044  0.00  0.00    +0.000 A 
ATOM     23  C   UNL     1      -0.991  11.219  22.034  0.00  0.00    +0.000 A 
ATOM     24  C   UNL     1      -0.815  10.854  20.692  0.00  0.00    +0.000 A 
ATOM     25  C   UNL     1      -0.217   9.610  20.379  0.00  0.00    +0.000 A 
BRANCH  24  26
ATOM     26  C   UNL     1      -1.289  11.773  19.590  0.00  0.00    +0.000 C 
ATOM     27  F   UNL     1      -1.465  11.147  18.391  0.00  0.00    +0.000 F 
ATOM     28  F   UNL     1      -2.481  12.362  19.879  0.00  0.00    +0.000 F 
ATOM     29  F   UNL     1      -0.416  12.791  19.350  0.00  0.00    +0.000 F 
ENDBRANCH  24  26
ENDBRANCH  18  20
TORSDOF 2
ENDMDL
MODEL 4
REMARK VINA RESULT:      -8.7      1.107      1.207
REMARK  Name = 
REMARK  4 active torsions:
REMARK  status: ('A' for Active; 'I' for Inactive)
REMARK    1  A    between atoms: C_1  and  C_2
REMARK    2  A    between atoms: N_10  and  C_11
REMARK    3  A    between atoms: N_18  and  C_19
REMARK    4  A    between atoms: C_23  and  C_24
REMARK                            x       y       z     vdW  Elec       q    Type
REMARK                         _______ _______ _______ _____ _____    ______ ____
ROOT
ATOM      1  C   UNL     1      -2.632  12.927  23.162  0.00  0.00    +0.000 C 
ATOM      2  C   UNL     1      -1.918  11.892  22.350  0.00  0.00    +0.000 A 
ATOM      3  C   UNL     1      -1.048  10.974  22.958  0.00  0.00    +0.000 A 
ATOM      4  C   UNL     1      -0.160  10.217  22.185  0.00  0.00    +0.000 A 
ATOM      5  C   UNL     1      -0.072  10.473  20.827  0.00  0.00    +0.000 A 
ATOM      6  C   UNL     1      -0.950  11.368  20.236  0.00  0.00    +0.000 A 
ATOM      7  C   UNL     1      -1.946  11.999  20.966  0.00  0.00    +0.000 A 
ATOM      8  C   UNL     1      -0.602  11.627  18.803  0.00  0.00    +0.000 C 
ATOM      9  C   UNL     1      -0.535  13.137  18.536  0.00  0.00    +0.000 C 
ATOM     10  N   UNL     1       0.657  13.848  18.961  0.00  0.00    +0.000 NA
ATOM     11  C   UNL     1       0.597  14.491  20.268  0.00  0.00    +0.000 C 
ATOM     12  C   UNL     1       1.918  13.199  18.671  0.00  0.00    +0.000 C 
ATOM     13  C   UNL     1       1.971  11.680  18.426  0.00  0.00    +0.000 C 
ATOM     14  C   UNL     1       0.711  10.818  18.640  0.00  0.00    +0.000 C 
ATOM     15  N   UNL     1       0.826   9.941  19.867  0.00  0.00    +0.000 N 
ATOM     16  C   UNL     1       1.509   8.751  20.090  0.00  0.00    +0.000 C 
ATOM     17  O   UNL     1       1.562   8.224  21.208  0.00  0.00    +0.000 OA
ATOM     18  N   UNL     1       2.084   8.130  18.991  0.00  0.00    +0.000 N 
ATOM     19  H   UNL     1       2.424   8.734  18.259  0.00  0.00    +0.000 HD
ENDROOT
BRANCH  18  20
ATOM     20  C   UNL     1       2.595   6.794  19.026  0.00  0.00    +0.000 A 
ATOM     21  C   UNL     1       3.640   6.364  18.188  0.00  0.00    +0.000 A 
ATOM     22  C   UNL     1       4.063   5.029  18.170  0.00  0.00    +0.000 A 
ATOM     23  C   UNL     1       3.467   4.103  19.011  0.00  0.00    +0.000 A 
ATOM     24  C   UNL     1       2.463   4.508  19.901  0.00  0.00    +0.000 A 
ATOM     25  C   UNL     1       2.055   5.863  19.923  0.00  0.00    +0.000 A 
BRANCH  24  26
ATOM     26  C   UNL     1       1.802   3.496  20.808  0.00  0.00    +0.000 C 
ATOM     27  F   UNL     1       0.441   3.504  20.740  0.00  0.00    +0.000 F 
ATOM     28  F   UNL     1       2.181   2.219  20.528  0.00  0.00    +0.000 F 
ATOM     29  F   UNL     1       2.107   3.697  22.121  0.00  0.00    +0.000 F 
ENDBRANCH  24  26
ENDBRANCH  18  20
TORSDOF 2
ENDMDL
MODEL 5
REMARK VINA RESULT:      -8.4      1.858      2.371
REMARK  Name = 
REMARK  4 active torsions:
REMARK  status: ('A' for Active; 'I' for Inactive)
REMARK    1  A    between atoms: C_1  and  C_2
REMARK    2  A    between atoms: N_10  and  C_11
REMARK    3  A    between atoms: N_18  and  C_19
REMARK    4  A    between atoms: C_23  and  C_24
REMARK                            x       y       z     vdW  Elec       q    Type
REMARK                         _______ _______ _______ _____ _____    ______ ____
ROOT
ATOM      1  C   UNL     1      -2.703  13.474  23.004  0.00  0.00    +0.000 C 
ATOM      2  C   UNL     1      -2.037  12.335  22.297  0.00  0.00    +0.000 A 
ATOM      3  C   UNL     1      -1.231  11.425  22.998  0.00  0.00    +0.000 A 
ATOM      4  C   UNL     1      -0.374  10.557  22.311  0.00  0.00    +0.000 A 
ATOM      5  C   UNL     1      -0.249  10.691  20.939  0.00  0.00    +0.000 A 
ATOM      6  C   UNL     1      -1.064  11.580  20.256  0.00  0.00    +0.000 A 
ATOM      7  C   UNL     1      -2.035  12.326  20.908  0.00  0.00    +0.000 A 
ATOM      8  C   UNL     1      -0.678  11.697  18.814  0.00  0.00    +0.000 C 
ATOM      9  C   UNL     1      -0.521  13.173  18.423  0.00  0.00    +0.000 C 
ATOM     10  N   UNL     1       0.702  13.850  18.812  0.00  0.00    +0.000 NA
ATOM     11  C   UNL     1       0.657  14.604  20.058  0.00  0.00    +0.000 C 
ATOM     12  C   UNL     1       1.929  13.110  18.605  0.00  0.00    +0.000 C 
ATOM     13  C   UNL     1       1.899  11.575  18.489  0.00  0.00    +0.000 C 
ATOM     14  C   UNL     1       0.589  10.806  18.747  0.00  0.00    +0.000 C 
ATOM     15  N   UNL     1       0.633  10.032  20.046  0.00  0.00    +0.000 N 
ATOM     16  C   UNL     1       1.243   8.829  20.383  0.00  0.00    +0.000 C 
ATOM     17  O   UNL     1       1.247   8.397  21.542  0.00  0.00    +0.000 OA
ATOM     18  N   UNL     1       1.800   8.085  19.352  0.00  0.00    +0.000 N 
ATOM     19  H   UNL     1       2.186   8.605  18.580  0.00  0.00    +0.000 HD
ENDROOT
BRANCH  18  20
ATOM     20  C   UNL     1       2.234   6.730  19.511  0.00  0.00    +0.000 A 
ATOM     21  C   UNL     1       1.810   5.923  20.582  0.00  0.00    +0.000 A 
ATOM     22  C   UNL     1       2.318   4.633  20.773  0.00  0.00    +0.000 A 
ATOM     23  C   UNL     1       3.241   4.113  19.880  0.00  0.00    +0.000 A 
ATOM     24  C   UNL     1       3.642   4.866  18.768  0.00  0.00    +0.000 A 
ATOM     25  C   UNL     1       3.108   6.164  18.575  0.00  0.00    +0.000 A 
BRANCH  24  26
ATOM     26  C   UNL     1       4.658   4.307  17.801  0.00  0.00    +0.000 C 
ATOM     27  F   UNL     1       4.442   3.001  17.471  0.00  0.00    +0.000 F 
ATOM     28  F   UNL     1       4.686   4.987  16.623  0.00  0.00    +0.000 F 
ATOM     29  F   UNL     1       5.928   4.358  18.292  0.00  0.00    +0.000 F 
ENDBRANCH  24  26
ENDBRANCH  18  20
TORSDOF 2
ENDMDL
MODEL 6
REMARK VINA RESULT:      -8.3      3.575      8.455
REMARK  Name = 
REMARK  4 active torsions:
REMARK  status: ('A' for Active; 'I' for Inactive)
REMARK    1  A    between atoms: C_1  and  C_2
REMARK    2  A    between atoms: N_10  and  C_11
REMARK    3  A    between atoms: N_18  and  C_19
REMARK    4  A    between atoms: C_23  and  C_24
REMARK                            x       y       z     vdW  Elec       q    Type
REMARK                         _______ _______ _______ _____ _____    ______ ____
ROOT
ATOM      1  C   UNL     1       5.992   3.634  15.592  0.00  0.00    +0.000 C 
ATOM      2  C   UNL     1       4.945   4.509  16.210  0.00  0.00    +0.000 A 
ATOM      3  C   UNL     1       5.241   5.827  16.590  0.00  0.00    +0.000 A 
ATOM      4  C   UNL     1       4.375   6.535  17.431  0.00  0.00    +0.000 A 
ATOM      5  C   UNL     1       3.285   5.877  17.973  0.00  0.00    +0.000 A 
ATOM      6  C   UNL     1       2.993   4.582  17.575  0.00  0.00    +0.000 A 
ATOM      7  C   UNL     1       3.750   3.928  16.614  0.00  0.00    +0.000 A 
ATOM      8  C   UNL     1       1.878   3.988  18.380  0.00  0.00    +0.000 C 
ATOM      9  C   UNL     1       2.287   2.610  18.918  0.00  0.00    +0.000 C 
ATOM     10  N   UNL     1       3.157   2.567  20.080  0.00  0.00    +0.000 NA
ATOM     11  C   UNL     1       4.584   2.438  19.816  0.00  0.00    +0.000 C 
ATOM     12  C   UNL     1       2.827   3.483  21.152  0.00  0.00    +0.000 C 
ATOM     13  C   UNL     1       1.978   4.735  20.869  0.00  0.00    +0.000 C 
ATOM     14  C   UNL     1       1.603   5.104  19.420  0.00  0.00    +0.000 C 
ATOM     15  N   UNL     1       2.348   6.329  18.937  0.00  0.00    +0.000 N 
ATOM     16  C   UNL     1       2.156   7.683  19.185  0.00  0.00    +0.000 C 
ATOM     17  O   UNL     1       2.940   8.545  18.770  0.00  0.00    +0.000 OA
ATOM     18  N   UNL     1       1.005   8.050  19.869  0.00  0.00    +0.000 N 
ATOM     19  H   UNL     1       0.661   7.395  20.553  0.00  0.00    +0.000 HD
ENDROOT
BRANCH  18  20
ATOM     20  C   UNL     1       0.556   9.405  19.975  0.00  0.00    +0.000 A 
ATOM     21  C   UNL     1       0.809  10.363  18.976  0.00  0.00    +0.000 A 
ATOM     22  C   UNL     1       0.445  11.705  19.140  0.00  0.00    +0.000 A 
ATOM     23  C   UNL     1      -0.204  12.110  20.295  0.00  0.00    +0.000 A 
ATOM     24  C   UNL     1      -0.524  11.172  21.286  0.00  0.00    +0.000 A 
ATOM     25  C   UNL     1      -0.167   9.814  21.102  0.00  0.00    +0.000 A 
BRANCH  24  26
ATOM     26  C   UNL     1      -1.219  11.614  22.552  0.00  0.00    +0.000 C 
ATOM     27  F   UNL     1      -0.672  12.728  23.119  0.00  0.00    +0.000 F 
ATOM     28  F   UNL     1      -2.532  11.908  22.350  0.00  0.00    +0.000 F 
ATOM     29  F   UNL     1      -1.194  10.658  23.522  0.00  0.00    +0.000 F 
ENDBRANCH  24  26
ENDBRANCH  18  20
TORSDOF 2
ENDMDL
MODEL 7
REMARK VINA RESULT:      -7.9      3.810      8.417
REMARK  Name = 
REMARK  4 active torsions:
REMARK  status: ('A' for Active; 'I' for Inactive)
REMARK    1  A    between atoms: C_1  and  C_2
REMARK    2  A    between atoms: N_10  and  C_11
REMARK    3  A    between atoms: N_18  and  C_19
REMARK    4  A    between atoms: C_23  and  C_24
REMARK                            x       y       z     vdW  Elec       q    Type
REMARK                         _______ _______ _______ _____ _____    ______ ____
ROOT
ATOM      1  C   UNL     1       6.957   4.011  15.832  0.00  0.00    +0.000 C 
ATOM      2  C   UNL     1       5.749   4.831  16.164  0.00  0.00    +0.000 A 
ATOM      3  C   UNL     1       5.865   6.201  16.446  0.00  0.00    +0.000 A 
ATOM      4  C   UNL     1       4.807   6.895  17.045  0.00  0.00    +0.000 A 
ATOM      5  C   UNL     1       3.694   6.185  17.461  0.00  0.00    +0.000 A 
ATOM      6  C   UNL     1       3.583   4.837  17.159  0.00  0.00    +0.000 A 
ATOM      7  C   UNL     1       4.551   4.175  16.418  0.00  0.00    +0.000 A 
ATOM      8  C   UNL     1       2.394   4.212  17.820  0.00  0.00    +0.000 C 
ATOM      9  C   UNL     1       2.808   2.936  18.565  0.00  0.00    +0.000 C 
ATOM     10  N   UNL     1       3.455   3.085  19.856  0.00  0.00    +0.000 NA
ATOM     11  C   UNL     1       4.912   3.073  19.856  0.00  0.00    +0.000 C 
ATOM     12  C   UNL     1       2.865   4.057  20.751  0.00  0.00    +0.000 C 
ATOM     13  C   UNL     1       1.982   5.189  20.195  0.00  0.00    +0.000 C 
ATOM     14  C   UNL     1       1.847   5.386  18.672  0.00  0.00    +0.000 C 
ATOM     15  N   UNL     1       2.565   6.629  18.196  0.00  0.00    +0.000 N 
ATOM     16  C   UNL     1       2.224   7.975  18.261  0.00  0.00    +0.000 C 
ATOM     17  O   UNL     1       2.997   8.867  17.897  0.00  0.00    +0.000 OA
ATOM     18  N   UNL     1       0.942   8.287  18.694  0.00  0.00    +0.000 N 
ATOM     19  H   UNL     1       0.534   7.667  19.376  0.00  0.00    +0.000 HD
ENDROOT
BRANCH  18  20
ATOM     20  C   UNL     1       0.374   9.595  18.576  0.00  0.00    +0.000 A 
ATOM     21  C   UNL     1       0.966  10.730  19.160  0.00  0.00    +0.000 A 
ATOM     22  C   UNL     1       0.347  11.985  19.114  0.00  0.00    +0.000 A 
ATOM     23  C   UNL     1      -0.864  12.136  18.459  0.00  0.00    +0.000 A 
ATOM     24  C   UNL     1      -1.455  11.040  17.816  0.00  0.00    +0.000 A 
ATOM     25  C   UNL     1      -0.812   9.779  17.853  0.00  0.00    +0.000 A 
BRANCH  24  26
ATOM     26  C   UNL     1      -2.783  11.199  17.113  0.00  0.00    +0.000 C 
ATOM     27  F   UNL     1      -3.541  10.066  17.109  0.00  0.00    +0.000 F 
ATOM     28  F   UNL     1      -3.559  12.163  17.679  0.00  0.00    +0.000 F 
ATOM     29  F   UNL     1      -2.641  11.553  15.806  0.00  0.00    +0.000 F 
ENDBRANCH  24  26
ENDBRANCH  18  20
TORSDOF 2
ENDMDL
MODEL 8
REMARK VINA RESULT:      -7.8      4.126      8.561
REMARK  Name = 
REMARK  4 active torsions:
REMARK  status: ('A' for Active; 'I' for Inactive)
REMARK    1  A    between atoms: C_1  and  C_2
REMARK    2  A    between atoms: N_10  and  C_11
REMARK    3  A    between atoms: N_18  and  C_19
REMARK    4  A    between atoms: C_23  and  C_24
REMARK                            x       y       z     vdW  Elec       q    Type
REMARK                         _______ _______ _______ _____ _____    ______ ____
ROOT
ATOM      1  C   UNL     1       6.440   3.998  15.736  0.00  0.00    +0.000 C 
ATOM      2  C   UNL     1       5.310   4.874  16.180  0.00  0.00    +0.000 A 
ATOM      3  C   UNL     1       5.522   6.231  16.469  0.00  0.00    +0.000 A 
ATOM      4  C   UNL     1       4.558   6.969  17.165  0.00  0.00    +0.000 A 
ATOM      5  C   UNL     1       3.446   6.311  17.664  0.00  0.00    +0.000 A 
ATOM      6  C   UNL     1       3.239   4.976  17.355  0.00  0.00    +0.000 A 
ATOM      7  C   UNL     1       4.104   4.278  16.526  0.00  0.00    +0.000 A 
ATOM      8  C   UNL     1       2.077   4.403  18.106  0.00  0.00    +0.000 C 
ATOM      9  C   UNL     1       2.483   3.094  18.796  0.00  0.00    +0.000 C 
ATOM     10  N   UNL     1       3.243   3.186  20.030  0.00  0.00    +0.000 NA
ATOM     11  C   UNL     1       4.692   3.097  19.906  0.00  0.00    +0.000 C 
ATOM     12  C   UNL     1       2.783   4.172  20.985  0.00  0.00    +0.000 C 
ATOM     13  C   UNL     1       1.919   5.358  20.520  0.00  0.00    +0.000 C 
ATOM     14  C   UNL     1       1.667   5.589  19.017  0.00  0.00    +0.000 C 
ATOM     15  N   UNL     1       2.409   6.800  18.498  0.00  0.00    +0.000 N 
ATOM     16  C   UNL     1       2.147   8.161  18.610  0.00  0.00    +0.000 C 
ATOM     17  O   UNL     1       2.935   9.018  18.193  0.00  0.00    +0.000 OA
ATOM     18  N   UNL     1       0.925   8.533  19.154  0.00  0.00    +0.000 N 
ATOM     19  H   UNL     1       0.543   7.923  19.859  0.00  0.00    +0.000 HD
ENDROOT
BRANCH  18  20
ATOM     20  C   UNL     1       0.421   9.871  19.102  0.00  0.00    +0.000 A 
ATOM     21  C   UNL     1      -0.635  10.246  18.251  0.00  0.00    +0.000 A 
ATOM     22  C   UNL     1      -1.052  11.579  18.144  0.00  0.00    +0.000 A 
ATOM     23  C   UNL     1      -0.439  12.559  18.908  0.00  0.00    +0.000 A 
ATOM     24  C   UNL     1       0.577  12.213  19.810  0.00  0.00    +0.000 A 
ATOM     25  C   UNL     1       0.979  10.860  19.922  0.00  0.00    +0.000 A 
BRANCH  24  26
ATOM     26  C   UNL     1       1.256  13.282  20.632  0.00  0.00    +0.000 C 
ATOM     27  F   UNL     1       2.559  13.006  20.925  0.00  0.00    +0.000 F 
ATOM     28  F   UNL     1       1.265  14.492  20.009  0.00  0.00    +0.000 F 
ATOM     29  F   UNL     1       0.643  13.484  21.832  0.00  0.00    +0.000 F 
ENDBRANCH  24  26
ENDBRANCH  18  20
TORSDOF 2
ENDMDL
MODEL 9
REMARK VINA RESULT:      -7.7      4.295      8.613
REMARK  Name = 
REMARK  4 active torsions:
REMARK  status: ('A' for Active; 'I' for Inactive)
REMARK    1  A    between atoms: C_1  and  C_2
REMARK    2  A    between atoms: N_10  and  C_11
REMARK    3  A    between atoms: N_18  and  C_19
REMARK    4  A    between atoms: C_23  and  C_24
REMARK                            x       y       z     vdW  Elec       q    Type
REMARK                         _______ _______ _______ _____ _____    ______ ____
ROOT
ATOM      1  C   UNL     1       6.280   3.658  15.734  0.00  0.00    +0.000 C 
ATOM      2  C   UNL     1       5.196   4.604  16.150  0.00  0.00    +0.000 A 
ATOM      3  C   UNL     1       5.472   5.961  16.374  0.00  0.00    +0.000 A 
ATOM      4  C   UNL     1       4.550   6.773  17.046  0.00  0.00    +0.000 A 
ATOM      5  C   UNL     1       3.417   6.189  17.587  0.00  0.00    +0.000 A 
ATOM      6  C   UNL     1       3.146   4.852  17.342  0.00  0.00    +0.000 A 
ATOM      7  C   UNL     1       3.969   4.079  16.536  0.00  0.00    +0.000 A 
ATOM      8  C   UNL     1       1.970   4.367  18.131  0.00  0.00    +0.000 C 
ATOM      9  C   UNL     1       2.327   3.073  18.876  0.00  0.00    +0.000 C 
ATOM     10  N   UNL     1       3.106   3.187  20.096  0.00  0.00    +0.000 NA
ATOM     11  C   UNL     1       4.548   3.027  19.960  0.00  0.00    +0.000 C 
ATOM     12  C   UNL     1       2.703   4.235  21.009  0.00  0.00    +0.000 C 
ATOM     13  C   UNL     1       1.886   5.436  20.500  0.00  0.00    +0.000 C 
ATOM     14  C   UNL     1       1.625   5.610  18.991  0.00  0.00    +0.000 C 
ATOM     15  N   UNL     1       2.413   6.762  18.409  0.00  0.00    +0.000 N 
ATOM     16  C   UNL     1       2.214   8.137  18.460  0.00  0.00    +0.000 C 
ATOM     17  O   UNL     1       3.033   8.938  17.996  0.00  0.00    +0.000 OA
ATOM     18  N   UNL     1       1.017   8.587  19.000  0.00  0.00    +0.000 N 
ATOM     19  H   UNL     1       0.617   8.028  19.737  0.00  0.00    +0.000 HD
ENDROOT
BRANCH  18  20
ATOM     20  C   UNL     1       0.572   9.943  18.892  0.00  0.00    +0.000 A 
ATOM     21  C   UNL     1      -0.756  10.277  18.567  0.00  0.00    +0.000 A 
ATOM     22  C   UNL     1      -1.150  11.606  18.373  0.00  0.00    +0.000 A 
ATOM     23  C   UNL     1      -0.230  12.631  18.527  0.00  0.00    +0.000 A 
ATOM     24  C   UNL     1       1.087  12.339  18.908  0.00  0.00    +0.000 A 
ATOM     25  C   UNL     1       1.471  10.993  19.119  0.00  0.00    +0.000 A 
BRANCH  24  26
ATOM     26  C   UNL     1       2.094  13.454  19.064  0.00  0.00    +0.000 C 
ATOM     27  F   UNL     1       1.584  14.695  18.820  0.00  0.00    +0.000 F 
ATOM     28  F   UNL     1       2.621  13.510  20.318  0.00  0.00    +0.000 F 
ATOM     29  F   UNL     1       3.155  13.319  18.219  0.00  0.00    +0.000 F 
ENDBRANCH  24  26
ENDBRANCH  18  20
TORSDOF 2
ENDMDL
