MODEL 1
REMARK VINA RESULT:      -8.0      0.000      0.000
REMARK  Name = 
REMARK  9 active torsions:
REMARK  status: ('A' for Active; 'I' for Inactive)
REMARK    1  A    between atoms: C_1  and  O_2
REMARK    2  A    between atoms: O_2  and  C_3
REMARK    3  A    between atoms: C_3  and  C_5
REMARK    4  A    between atoms: C_6  and  S_7
REMARK    5  A    between atoms: S_7  and  C_8
REMARK    6  A    between atoms: C_16  and  O_17
REMARK    7  A    between atoms: O_17  and  C_18
REMARK    8  A    between atoms: C_18  and  C_19
REMARK    9  A    between atoms: C_24  and  C_25
REMARK                            x       y       z     vdW  Elec       q    Type
REMARK                         _______ _______ _______ _____ _____    ______ ____
ROOT
ATOM      1  C   UNL     1       5.732   5.325  17.414  0.00  0.00    +0.000 A 
ATOM      2  C   UNL     1       6.932   5.966  17.087  0.00  0.00    +0.000 A 
ATOM      3  N   UNL     1       7.500   5.832  15.865  0.00  0.00    +0.000 NA
ATOM      4  C   UNL     1       6.917   5.063  14.926  0.00  0.00    +0.000 A 
ATOM      5  C   UNL     1       7.537   4.999  13.689  0.00  0.00    +0.000 A 
ATOM      6  C   UNL     1       7.043   4.227  12.639  0.00  0.00    +0.000 A 
ATOM      7  C   UNL     1       5.862   3.527  12.817  0.00  0.00    +0.000 A 
ATOM      8  C   UNL     1       5.194   3.631  14.036  0.00  0.00    +0.000 A 
ATOM      9  C   UNL     1       5.705   4.371  15.130  0.00  0.00    +0.000 A 
ATOM     10  C   UNL     1       5.121   4.506  16.427  0.00  0.00    +0.000 A 
ENDROOT
BRANCH   1  11
ATOM     11  C   UNL     1       5.103   5.543  18.747  0.00  0.00    +0.000 C 
ATOM     12  O   UNL     1       5.528   5.096  19.797  0.00  0.00    +0.000 OA
BRANCH  11  14
ATOM     13  C   UNL     1       3.051   6.182  19.708  0.00  0.00    +0.000 C 
ATOM     14  O   UNL     1       3.977   6.285  18.626  0.00  0.00    +0.000 OA
ENDBRANCH  11  14
ENDBRANCH   1  11
BRANCH   2  15
ATOM     15  S   UNL     1       7.866   6.951  18.266  0.00  0.00    +0.000 S 
ATOM     16  C   UNL     1       7.767   8.623  17.565  0.00  0.00    +0.000 C 
ENDBRANCH   2  15
BRANCH  10  17
ATOM     17  O   UNL     1       3.873   4.037  16.743  0.00  0.00    +0.000 OA
BRANCH  17  18
ATOM     18  C   UNL     1       3.669   2.725  17.266  0.00  0.00    +0.000 C 
BRANCH  18  19
ATOM     19  C   UNL     1       2.762   2.801  18.491  0.00  0.00    +0.000 A 
ATOM     20  C   UNL     1       1.427   3.237  18.345  0.00  0.00    +0.000 A 
ATOM     21  C   UNL     1       0.572   3.363  19.439  0.00  0.00    +0.000 A 
ATOM     22  C   UNL     1       1.035   3.060  20.711  0.00  0.00    +0.000 A 
ATOM     23  C   UNL     1       2.347   2.622  20.884  0.00  0.00    +0.000 A 
ATOM     24  C   UNL     1       3.221   2.486  19.788  0.00  0.00    +0.000 A 
ATOM     25  C   UNL     1       4.618   1.991  20.043  0.00  0.00    +0.000 C 
ENDBRANCH  18  19
ENDBRANCH  17  18
ENDBRANCH  10  17
TORSDOF 6
ENDMDL
MODEL 2
REMARK VINA RESULT:      -7.7      2.884      5.701
REMARK  Name = 
REMARK  9 active torsions:
REMARK  status: ('A' for Active; 'I' for Inactive)
REMARK    1  A    between atoms: C_1  and  O_2
REMARK    2  A    between atoms: O_2  and  C_3
REMARK    3  A    between atoms: C_3  and  C_5
REMARK    4  A    between atoms: C_6  and  S_7
REMARK    5  A    between atoms: S_7  and  C_8
REMARK    6  A    between atoms: C_16  and  O_17
REMARK    7  A    between atoms: O_17  and  C_18
REMARK    8  A    between atoms: C_18  and  C_19
REMARK    9  A    between atoms: C_24  and  C_25
REMARK                            x       y       z     vdW  Elec       q    Type
REMARK                         _______ _______ _______ _____ _____    ______ ____
ROOT
ATOM      1  C   UNL     1       4.490   5.498  17.026  0.00  0.00    +0.000 A 
ATOM      2  C   UNL     1       4.982   4.234  16.686  0.00  0.00    +0.000 A 
ATOM      3  N   UNL     1       4.365   3.098  17.090  0.00  0.00    +0.000 NA
ATOM      4  C   UNL     1       3.252   3.162  17.845  0.00  0.00    +0.000 A 
ATOM      5  C   UNL     1       2.657   1.961  18.194  0.00  0.00    +0.000 A 
ATOM      6  C   UNL     1       1.510   1.892  18.984  0.00  0.00    +0.000 A 
ATOM      7  C   UNL     1       0.911   3.066  19.404  0.00  0.00    +0.000 A 
ATOM      8  C   UNL     1       1.463   4.284  19.009  0.00  0.00    +0.000 A 
ATOM      9  C   UNL     1       2.655   4.374  18.248  0.00  0.00    +0.000 A 
ATOM     10  C   UNL     1       3.321   5.567  17.829  0.00  0.00    +0.000 A 
ENDROOT
BRANCH   1  11
ATOM     11  C   UNL     1       5.159   6.728  16.512  0.00  0.00    +0.000 C 
ATOM     12  O   UNL     1       5.074   7.137  15.368  0.00  0.00    +0.000 OA
BRANCH  11  14
ATOM     13  C   UNL     1       7.309   7.295  17.283  0.00  0.00    +0.000 C 
ATOM     14  O   UNL     1       5.896   7.311  17.486  0.00  0.00    +0.000 OA
ENDBRANCH  11  14
ENDBRANCH   1  11
BRANCH   2  15
ATOM     15  S   UNL     1       6.505   3.994  15.760  0.00  0.00    +0.000 S 
ATOM     16  C   UNL     1       5.934   3.983  14.037  0.00  0.00    +0.000 C 
ENDBRANCH   2  15
BRANCH  10  17
ATOM     17  O   UNL     1       2.794   6.821  17.994  0.00  0.00    +0.000 OA
BRANCH  17  18
ATOM     18  C   UNL     1       2.648   7.417  19.283  0.00  0.00    +0.000 C 
BRANCH  18  19
ATOM     19  C   UNL     1       1.587   8.511  19.220  0.00  0.00    +0.000 A 
ATOM     20  C   UNL     1       1.231   9.067  17.972  0.00  0.00    +0.000 A 
ATOM     21  C   UNL     1       0.297  10.097  17.867  0.00  0.00    +0.000 A 
ATOM     22  C   UNL     1      -0.301  10.602  19.012  0.00  0.00    +0.000 A 
ATOM     23  C   UNL     1       0.027  10.067  20.257  0.00  0.00    +0.000 A 
ATOM     24  C   UNL     1       0.965   9.025  20.379  0.00  0.00    +0.000 A 
ATOM     25  C   UNL     1       1.260   8.483  21.750  0.00  0.00    +0.000 C 
ENDBRANCH  18  19
ENDBRANCH  17  18
ENDBRANCH  10  17
TORSDOF 6
ENDMDL
MODEL 3
REMARK VINA RESULT:      -7.6      2.750      5.749
REMARK  Name = 
REMARK  9 active torsions:
REMARK  status: ('A' for Active; 'I' for Inactive)
REMARK    1  A    between atoms: C_1  and  O_2
REMARK    2  A    between atoms: O_2  and  C_3
REMARK    3  A    between atoms: C_3  and  C_5
REMARK    4  A    between atoms: C_6  and  S_7
REMARK    5  A    between atoms: S_7  and  C_8
REMARK    6  A    between atoms: C_16  and  O_17
REMARK    7  A    between atoms: O_17  and  C_18
REMARK    8  A    between atoms: C_18  and  C_19
REMARK    9  A    between atoms: C_24  and  C_25
REMARK                            x       y       z     vdW  Elec       q    Type
REMARK                         _______ _______ _______ _____ _____    ______ ____
ROOT
ATOM      1  C   UNL     1       4.712   5.380  17.389  0.00  0.00    +0.000 A 
ATOM      2  C   UNL     1       4.869   4.142  16.756  0.00  0.00    +0.000 A 
ATOM      3  N   UNL     1       4.040   3.102  17.013  0.00  0.00    +0.000 NA
ATOM      4  C   UNL     1       3.037   3.236  17.902  0.00  0.00    +0.000 A 
ATOM      5  C   UNL     1       2.211   2.141  18.090  0.00  0.00    +0.000 A 
ATOM      6  C   UNL     1       1.148   2.147  18.992  0.00  0.00    +0.000 A 
ATOM      7  C   UNL     1       0.873   3.305  19.699  0.00  0.00    +0.000 A 
ATOM      8  C   UNL     1       1.658   4.435  19.474  0.00  0.00    +0.000 A 
ATOM      9  C   UNL     1       2.772   4.433  18.599  0.00  0.00    +0.000 A 
ATOM     10  C   UNL     1       3.660   5.520  18.332  0.00  0.00    +0.000 A 
ENDROOT
BRANCH   1  11
ATOM     11  C   UNL     1       5.603   6.522  17.036  0.00  0.00    +0.000 C 
ATOM     12  O   UNL     1       5.452   7.246  16.069  0.00  0.00    +0.000 OA
BRANCH  11  14
ATOM     13  C   UNL     1       7.653   7.546  17.574  0.00  0.00    +0.000 C 
ATOM     14  O   UNL     1       6.619   6.625  17.924  0.00  0.00    +0.000 OA
ENDBRANCH  11  14
ENDBRANCH   1  11
BRANCH   2  15
ATOM     15  S   UNL     1       6.213   3.791  15.616  0.00  0.00    +0.000 S 
ATOM     16  C   UNL     1       5.490   4.193  14.000  0.00  0.00    +0.000 C 
ENDBRANCH   2  15
BRANCH  10  17
ATOM     17  O   UNL     1       3.452   6.792  18.797  0.00  0.00    +0.000 OA
BRANCH  17  18
ATOM     18  C   UNL     1       2.448   7.644  18.246  0.00  0.00    +0.000 C 
BRANCH  18  19
ATOM     19  C   UNL     1       1.725   8.373  19.374  0.00  0.00    +0.000 A 
ATOM     20  C   UNL     1       1.688   7.801  20.664  0.00  0.00    +0.000 A 
ATOM     21  C   UNL     1       1.005   8.408  21.717  0.00  0.00    +0.000 A 
ATOM     22  C   UNL     1       0.337   9.604  21.504  0.00  0.00    +0.000 A 
ATOM     23  C   UNL     1       0.361  10.195  20.242  0.00  0.00    +0.000 A 
ATOM     24  C   UNL     1       1.048   9.596  19.169  0.00  0.00    +0.000 A 
ATOM     25  C   UNL     1       1.050  10.296  17.838  0.00  0.00    +0.000 C 
ENDBRANCH  18  19
ENDBRANCH  17  18
ENDBRANCH  10  17
TORSDOF 6
ENDMDL
MODEL 4
REMARK VINA RESULT:      -7.5      0.350      1.393
REMARK  Name = 
REMARK  9 active torsions:
REMARK  status: ('A' for Active; 'I' for Inactive)
REMARK    1  A    between atoms: C_1  and  O_2
REMARK    2  A    between atoms: O_2  and  C_3
REMARK    3  A    between atoms: C_3  and  C_5
REMARK    4  A    between atoms: C_6  and  S_7
REMARK    5  A    between atoms: S_7  and  C_8
REMARK    6  A    between atoms: C_16  and  O_17
REMARK    7  A    between atoms: O_17  and  C_18
REMARK    8  A    between atoms: C_18  and  C_19
REMARK    9  A    between atoms: C_24  and  C_25
REMARK                            x       y       z     vdW  Elec       q    Type
REMARK                         _______ _______ _______ _____ _____    ______ ____
ROOT
ATOM      1  C   UNL     1       5.773   5.339  17.413  0.00  0.00    +0.000 A 
ATOM      2  C   UNL     1       6.966   5.987  17.075  0.00  0.00    +0.000 A 
ATOM      3  N   UNL     1       7.527   5.852  15.849  0.00  0.00    +0.000 NA
ATOM      4  C   UNL     1       6.943   5.072  14.918  0.00  0.00    +0.000 A 
ATOM      5  C   UNL     1       7.555   5.006  13.678  0.00  0.00    +0.000 A 
ATOM      6  C   UNL     1       7.060   4.224  12.636  0.00  0.00    +0.000 A 
ATOM      7  C   UNL     1       5.885   3.518  12.825  0.00  0.00    +0.000 A 
ATOM      8  C   UNL     1       5.224   3.623  14.048  0.00  0.00    +0.000 A 
ATOM      9  C   UNL     1       5.738   4.373  15.135  0.00  0.00    +0.000 A 
ATOM     10  C   UNL     1       5.162   4.511  16.435  0.00  0.00    +0.000 A 
ENDROOT
BRANCH   1  11
ATOM     11  C   UNL     1       5.151   5.561  18.750  0.00  0.00    +0.000 C 
ATOM     12  O   UNL     1       5.558   5.081  19.792  0.00  0.00    +0.000 OA
BRANCH  11  14
ATOM     13  C   UNL     1       3.194   6.367  19.779  0.00  0.00    +0.000 C 
ATOM     14  O   UNL     1       4.055   6.347  18.640  0.00  0.00    +0.000 OA
ENDBRANCH  11  14
ENDBRANCH   1  11
BRANCH   2  15
ATOM     15  S   UNL     1       7.901   6.987  18.241  0.00  0.00    +0.000 S 
ATOM     16  C   UNL     1       7.730   8.664  17.567  0.00  0.00    +0.000 C 
ENDBRANCH   2  15
BRANCH  10  17
ATOM     17  O   UNL     1       3.920   4.035  16.762  0.00  0.00    +0.000 OA
BRANCH  17  18
ATOM     18  C   UNL     1       3.736   2.758  17.374  0.00  0.00    +0.000 C 
BRANCH  18  19
ATOM     19  C   UNL     1       2.926   2.921  18.657  0.00  0.00    +0.000 A 
ATOM     20  C   UNL     1       3.442   2.431  19.876  0.00  0.00    +0.000 A 
ATOM     21  C   UNL     1       2.722   2.520  21.066  0.00  0.00    +0.000 A 
ATOM     22  C   UNL     1       1.461   3.097  21.066  0.00  0.00    +0.000 A 
ATOM     23  C   UNL     1       0.929   3.595  19.877  0.00  0.00    +0.000 A 
ATOM     24  C   UNL     1       1.645   3.516  18.668  0.00  0.00    +0.000 A 
ATOM     25  C   UNL     1       1.020   4.088  17.426  0.00  0.00    +0.000 C 
ENDBRANCH  18  19
ENDBRANCH  17  18
ENDBRANCH  10  17
TORSDOF 6
ENDMDL
MODEL 5
REMARK VINA RESULT:      -7.5      0.925      1.755
REMARK  Name = 
REMARK  9 active torsions:
REMARK  status: ('A' for Active; 'I' for Inactive)
REMARK    1  A    between atoms: C_1  and  O_2
REMARK    2  A    between atoms: O_2  and  C_3
REMARK    3  A    between atoms: C_3  and  C_5
REMARK    4  A    between atoms: C_6  and  S_7
REMARK    5  A    between atoms: S_7  and  C_8
REMARK    6  A    between atoms: C_16  and  O_17
REMARK    7  A    between atoms: O_17  and  C_18
REMARK    8  A    between atoms: C_18  and  C_19
REMARK    9  A    between atoms: C_24  and  C_25
REMARK                            x       y       z     vdW  Elec       q    Type
REMARK                         _______ _______ _______ _____ _____    ______ ____
ROOT
ATOM      1  C   UNL     1       6.017   4.735  17.464  0.00  0.00    +0.000 A 
ATOM      2  C   UNL     1       7.054   5.623  17.157  0.00  0.00    +0.000 A 
ATOM      3  N   UNL     1       7.527   5.755  15.894  0.00  0.00    +0.000 NA
ATOM      4  C   UNL     1       7.006   5.018  14.894  0.00  0.00    +0.000 A 
ATOM      5  C   UNL     1       7.517   5.230  13.624  0.00  0.00    +0.000 A 
ATOM      6  C   UNL     1       7.074   4.521  12.508  0.00  0.00    +0.000 A 
ATOM      7  C   UNL     1       6.053   3.599  12.659  0.00  0.00    +0.000 A 
ATOM      8  C   UNL     1       5.487   3.420  13.921  0.00  0.00    +0.000 A 
ATOM      9  C   UNL     1       5.956   4.095  15.074  0.00  0.00    +0.000 A 
ATOM     10  C   UNL     1       5.474   3.952  16.411  0.00  0.00    +0.000 A 
ENDROOT
BRANCH   1  11
ATOM     11  C   UNL     1       5.479   4.661  18.852  0.00  0.00    +0.000 C 
ATOM     12  O   UNL     1       4.931   5.579  19.434  0.00  0.00    +0.000 OA
BRANCH  11  14
ATOM     13  C   UNL     1       4.663   2.917  20.206  0.00  0.00    +0.000 C 
ATOM     14  O   UNL     1       5.709   3.439  19.387  0.00  0.00    +0.000 OA
ENDBRANCH  11  14
ENDBRANCH   1  11
BRANCH   2  15
ATOM     15  S   UNL     1       7.902   6.604  18.402  0.00  0.00    +0.000 S 
ATOM     16  C   UNL     1       7.876   8.274  17.691  0.00  0.00    +0.000 C 
ENDBRANCH   2  15
BRANCH  10  17
ATOM     17  O   UNL     1       4.359   3.224  16.736  0.00  0.00    +0.000 OA
BRANCH  17  18
ATOM     18  C   UNL     1       3.040   3.738  16.550  0.00  0.00    +0.000 C 
BRANCH  18  19
ATOM     19  C   UNL     1       2.240   3.561  17.837  0.00  0.00    +0.000 A 
ATOM     20  C   UNL     1       1.891   2.263  18.269  0.00  0.00    +0.000 A 
ATOM     21  C   UNL     1       1.126   2.051  19.415  0.00  0.00    +0.000 A 
ATOM     22  C   UNL     1       0.685   3.136  20.157  0.00  0.00    +0.000 A 
ATOM     23  C   UNL     1       1.019   4.430  19.757  0.00  0.00    +0.000 A 
ATOM     24  C   UNL     1       1.794   4.659  18.604  0.00  0.00    +0.000 A 
ATOM     25  C   UNL     1       2.133   6.078  18.240  0.00  0.00    +0.000 C 
ENDBRANCH  18  19
ENDBRANCH  17  18
ENDBRANCH  10  17
TORSDOF 6
ENDMDL
MODEL 6
REMARK VINA RESULT:      -7.3      2.911      6.742
REMARK  Name = 
REMARK  9 active torsions:
REMARK  status: ('A' for Active; 'I' for Inactive)
REMARK    1  A    between atoms: C_1  and  O_2
REMARK    2  A    between atoms: O_2  and  C_3
REMARK    3  A    between atoms: C_3  and  C_5
REMARK    4  A    between atoms: C_6  and  S_7
REMARK    5  A    between atoms: S_7  and  C_8
REMARK    6  A    between atoms: C_16  and  O_17
REMARK    7  A    between atoms: O_17  and  C_18
REMARK    8  A    between atoms: C_18  and  C_19
REMARK    9  A    between atoms: C_24  and  C_25
REMARK                            x       y       z     vdW  Elec       q    Type
REMARK                         _______ _______ _______ _____ _____    ______ ____
ROOT
ATOM      1  C   UNL     1       2.952   5.439  19.311  0.00  0.00    +0.000 A 
ATOM      2  C   UNL     1       2.266   5.311  20.523  0.00  0.00    +0.000 A 
ATOM      3  N   UNL     1       1.542   6.332  21.042  0.00  0.00    +0.000 NA
ATOM      4  C   UNL     1       1.473   7.512  20.396  0.00  0.00    +0.000 A 
ATOM      5  C   UNL     1       0.690   8.500  20.970  0.00  0.00    +0.000 A 
ATOM      6  C   UNL     1       0.549   9.768  20.409  0.00  0.00    +0.000 A 
ATOM      7  C   UNL     1       1.178  10.045  19.208  0.00  0.00    +0.000 A 
ATOM      8  C   UNL     1       1.920   9.042  18.587  0.00  0.00    +0.000 A 
ATOM      9  C   UNL     1       2.115   7.764  19.166  0.00  0.00    +0.000 A 
ATOM     10  C   UNL     1       2.887   6.686  18.633  0.00  0.00    +0.000 A 
ENDROOT
BRANCH   1  11
ATOM     11  C   UNL     1       3.687   4.275  18.737  0.00  0.00    +0.000 C 
ATOM     12  O   UNL     1       4.842   3.989  18.995  0.00  0.00    +0.000 OA
BRANCH  11  14
ATOM     13  C   UNL     1       3.087   2.182  17.844  0.00  0.00    +0.000 C 
ATOM     14  O   UNL     1       2.900   3.597  17.869  0.00  0.00    +0.000 OA
ENDBRANCH  11  14
ENDBRANCH   1  11
BRANCH   2  15
ATOM     15  S   UNL     1       2.339   3.828  21.536  0.00  0.00    +0.000 S 
ATOM     16  C   UNL     1       1.028   2.789  20.830  0.00  0.00    +0.000 C 
ENDBRANCH   2  15
BRANCH  10  17
ATOM     17  O   UNL     1       3.439   6.703  17.380  0.00  0.00    +0.000 OA
BRANCH  17  18
ATOM     18  C   UNL     1       4.742   7.233  17.134  0.00  0.00    +0.000 C 
BRANCH  18  19
ATOM     19  C   UNL     1       5.583   6.193  16.400  0.00  0.00    +0.000 A 
ATOM     20  C   UNL     1       5.093   5.612  15.210  0.00  0.00    +0.000 A 
ATOM     21  C   UNL     1       5.806   4.629  14.525  0.00  0.00    +0.000 A 
ATOM     22  C   UNL     1       7.027   4.197  15.018  0.00  0.00    +0.000 A 
ATOM     23  C   UNL     1       7.539   4.757  16.188  0.00  0.00    +0.000 A 
ATOM     24  C   UNL     1       6.832   5.753  16.889  0.00  0.00    +0.000 A 
ATOM     25  C   UNL     1       7.450   6.328  18.134  0.00  0.00    +0.000 C 
ENDBRANCH  18  19
ENDBRANCH  17  18
ENDBRANCH  10  17
TORSDOF 6
ENDMDL
MODEL 7
REMARK VINA RESULT:      -7.1      2.921      6.577
REMARK  Name = 
REMARK  9 active torsions:
REMARK  status: ('A' for Active; 'I' for Inactive)
REMARK    1  A    between atoms: C_1  and  O_2
REMARK    2  A    between atoms: O_2  and  C_3
REMARK    3  A    between atoms: C_3  and  C_5
REMARK    4  A    between atoms: C_6  and  S_7
REMARK    5  A    between atoms: S_7  and  C_8
REMARK    6  A    between atoms: C_16  and  O_17
REMARK    7  A    between atoms: O_17  and  C_18
REMARK    8  A    between atoms: C_18  and  C_19
REMARK    9  A    between atoms: C_24  and  C_25
REMARK                            x       y       z     vdW  Elec       q    Type
REMARK                         _______ _______ _______ _____ _____    ______ ____
ROOT
ATOM      1  C   UNL     1       2.961   5.423  19.058  0.00  0.00    +0.000 A 
ATOM      2  C   UNL     1       2.286   5.417  20.283  0.00  0.00    +0.000 A 
ATOM      3  N   UNL     1       1.636   6.513  20.743  0.00  0.00    +0.000 NA
ATOM      4  C   UNL     1       1.631   7.651  20.023  0.00  0.00    +0.000 A 
ATOM      5  C   UNL     1       0.920   8.721  20.539  0.00  0.00    +0.000 A 
ATOM      6  C   UNL     1       0.850   9.957  19.898  0.00  0.00    +0.000 A 
ATOM      7  C   UNL     1       1.477  10.116  18.675  0.00  0.00    +0.000 A 
ATOM      8  C   UNL     1       2.145   9.030  18.113  0.00  0.00    +0.000 A 
ATOM      9  C   UNL     1       2.268   7.782  18.771  0.00  0.00    +0.000 A 
ATOM     10  C   UNL     1       2.964   6.625  18.302  0.00  0.00    +0.000 A 
ENDROOT
BRANCH   1  11
ATOM     11  C   UNL     1       3.612   4.180  18.554  0.00  0.00    +0.000 C 
ATOM     12  O   UNL     1       4.626   3.691  19.018  0.00  0.00    +0.000 OA
BRANCH  11  14
ATOM     13  C   UNL     1       2.280   2.436  17.703  0.00  0.00    +0.000 C 
ATOM     14  O   UNL     1       2.936   3.687  17.490  0.00  0.00    +0.000 OA
ENDBRANCH  11  14
ENDBRANCH   1  11
BRANCH   2  15
ATOM     15  S   UNL     1       2.281   4.000  21.390  0.00  0.00    +0.000 S 
ATOM     16  C   UNL     1       0.907   2.995  20.757  0.00  0.00    +0.000 C 
ENDBRANCH   2  15
BRANCH  10  17
ATOM     17  O   UNL     1       3.497   6.526  17.044  0.00  0.00    +0.000 OA
BRANCH  17  18
ATOM     18  C   UNL     1       4.741   7.137  16.700  0.00  0.00    +0.000 C 
BRANCH  18  19
ATOM     19  C   UNL     1       5.885   6.191  17.050  0.00  0.00    +0.000 A 
ATOM     20  C   UNL     1       6.602   6.377  18.252  0.00  0.00    +0.000 A 
ATOM     21  C   UNL     1       7.682   5.565  18.596  0.00  0.00    +0.000 A 
ATOM     22  C   UNL     1       8.075   4.546  17.742  0.00  0.00    +0.000 A 
ATOM     23  C   UNL     1       7.382   4.335  16.551  0.00  0.00    +0.000 A 
ATOM     24  C   UNL     1       6.288   5.145  16.191  0.00  0.00    +0.000 A 
ATOM     25  C   UNL     1       5.573   4.851  14.901  0.00  0.00    +0.000 C 
ENDBRANCH  18  19
ENDBRANCH  17  18
ENDBRANCH  10  17
TORSDOF 6
ENDMDL
MODEL 8
REMARK VINA RESULT:      -7.0      1.140      1.960
REMARK  Name = 
REMARK  9 active torsions:
REMARK  status: ('A' for Active; 'I' for Inactive)
REMARK    1  A    between atoms: C_1  and  O_2
REMARK    2  A    between atoms: O_2  and  C_3
REMARK    3  A    between atoms: C_3  and  C_5
REMARK    4  A    between atoms: C_6  and  S_7
REMARK    5  A    between atoms: S_7  and  C_8
REMARK    6  A    between atoms: C_16  and  O_17
REMARK    7  A    between atoms: O_17  and  C_18
REMARK    8  A    between atoms: C_18  and  C_19
REMARK    9  A    between atoms: C_24  and  C_25
REMARK                            x       y       z     vdW  Elec       q    Type
REMARK                         _______ _______ _______ _____ _____    ______ ____
ROOT
ATOM      1  C   UNL     1       5.865   4.358  17.880  0.00  0.00    +0.000 A 
ATOM      2  C   UNL     1       7.019   5.114  17.644  0.00  0.00    +0.000 A 
ATOM      3  N   UNL     1       7.496   5.311  16.392  0.00  0.00    +0.000 NA
ATOM      4  C   UNL     1       6.865   4.771  15.332  0.00  0.00    +0.000 A 
ATOM      5  C   UNL     1       7.391   5.042  14.080  0.00  0.00    +0.000 A 
ATOM      6  C   UNL     1       6.840   4.531  12.906  0.00  0.00    +0.000 A 
ATOM      7  C   UNL     1       5.696   3.756  12.983  0.00  0.00    +0.000 A 
ATOM      8  C   UNL     1       5.119   3.526  14.231  0.00  0.00    +0.000 A 
ATOM      9  C   UNL     1       5.692   3.996  15.438  0.00  0.00    +0.000 A 
ATOM     10  C   UNL     1       5.204   3.781  16.764  0.00  0.00    +0.000 A 
ENDROOT
BRANCH   1  11
ATOM     11  C   UNL     1       5.333   4.213  19.265  0.00  0.00    +0.000 C 
ATOM     12  O   UNL     1       4.973   5.138  19.971  0.00  0.00    +0.000 OA
BRANCH  11  14
ATOM     13  C   UNL     1       4.299   2.534  20.551  0.00  0.00    +0.000 C 
ATOM     14  O   UNL     1       5.332   2.913  19.641  0.00  0.00    +0.000 OA
ENDBRANCH  11  14
ENDBRANCH   1  11
BRANCH   2  15
ATOM     15  S   UNL     1       8.012   5.820  18.966  0.00  0.00    +0.000 S 
ATOM     16  C   UNL     1       8.196   7.552  18.455  0.00  0.00    +0.000 C 
ENDBRANCH   2  15
BRANCH  10  17
ATOM     17  O   UNL     1       3.997   3.193  17.036  0.00  0.00    +0.000 OA
BRANCH  17  18
ATOM     18  C   UNL     1       2.758   3.847  16.760  0.00  0.00    +0.000 C 
BRANCH  18  19
ATOM     19  C   UNL     1       2.195   4.434  18.051  0.00  0.00    +0.000 A 
ATOM     20  C   UNL     1       2.440   5.788  18.367  0.00  0.00    +0.000 A 
ATOM     21  C   UNL     1       1.982   6.359  19.553  0.00  0.00    +0.000 A 
ATOM     22  C   UNL     1       1.270   5.587  20.458  0.00  0.00    +0.000 A 
ATOM     23  C   UNL     1       1.008   4.248  20.169  0.00  0.00    +0.000 A 
ATOM     24  C   UNL     1       1.461   3.658  18.974  0.00  0.00    +0.000 A 
ATOM     25  C   UNL     1       1.129   2.214  18.717  0.00  0.00    +0.000 C 
ENDBRANCH  18  19
ENDBRANCH  17  18
ENDBRANCH  10  17
TORSDOF 6
ENDMDL
MODEL 9
REMARK VINA RESULT:      -6.9      3.205      5.467
REMARK  Name = 
REMARK  9 active torsions:
REMARK  status: ('A' for Active; 'I' for Inactive)
REMARK    1  A    between atoms: C_1  and  O_2
REMARK    2  A    between atoms: O_2  and  C_3
REMARK    3  A    between atoms: C_3  and  C_5
REMARK    4  A    between atoms: C_6  and  S_7
REMARK    5  A    between atoms: S_7  and  C_8
REMARK    6  A    between atoms: C_16  and  O_17
REMARK    7  A    between atoms: O_17  and  C_18
REMARK    8  A    between atoms: C_18  and  C_19
REMARK    9  A    between atoms: C_24  and  C_25
REMARK                            x       y       z     vdW  Elec       q    Type
REMARK                         _______ _______ _______ _____ _____    ______ ____
ROOT
ATOM      1  C   UNL     1       3.215   4.602  18.965  0.00  0.00    +0.000 A 
ATOM      2  C   UNL     1       4.258   3.780  19.402  0.00  0.00    +0.000 A 
ATOM      3  N   UNL     1       5.556   4.097  19.176  0.00  0.00    +0.000 NA
ATOM      4  C   UNL     1       5.874   5.223  18.510  0.00  0.00    +0.000 A 
ATOM      5  C   UNL     1       7.221   5.499  18.345  0.00  0.00    +0.000 A 
ATOM      6  C   UNL     1       7.679   6.625  17.662  0.00  0.00    +0.000 A 
ATOM      7  C   UNL     1       6.758   7.530  17.164  0.00  0.00    +0.000 A 
ATOM      8  C   UNL     1       5.401   7.298  17.377  0.00  0.00    +0.000 A 
ATOM      9  C   UNL     1       4.914   6.136  18.025  0.00  0.00    +0.000 A 
ATOM     10  C   UNL     1       3.548   5.786  18.255  0.00  0.00    +0.000 A 
ENDROOT
BRANCH   1  11
ATOM     11  C   UNL     1       1.801   4.254  19.285  0.00  0.00    +0.000 C 
ATOM     12  O   UNL     1       1.228   4.558  20.315  0.00  0.00    +0.000 OA
BRANCH  11  14
ATOM     13  C   UNL     1       0.557   2.348  18.684  0.00  0.00    +0.000 C 
ATOM     14  O   UNL     1       1.250   3.530  18.282  0.00  0.00    +0.000 OA
ENDBRANCH  11  14
ENDBRANCH   1  11
BRANCH   2  15
ATOM     15  S   UNL     1       3.983   2.205  20.224  0.00  0.00    +0.000 S 
ATOM     16  C   UNL     1       3.887   1.035  18.839  0.00  0.00    +0.000 C 
ENDBRANCH   2  15
BRANCH  10  17
ATOM     17  O   UNL     1       2.501   6.630  17.996  0.00  0.00    +0.000 OA
BRANCH  17  18
ATOM     18  C   UNL     1       2.606   8.043  18.175  0.00  0.00    +0.000 C 
BRANCH  18  19
ATOM     19  C   UNL     1       1.697   8.479  19.320  0.00  0.00    +0.000 A 
ATOM     20  C   UNL     1       1.799   7.840  20.575  0.00  0.00    +0.000 A 
ATOM     21  C   UNL     1       0.963   8.175  21.640  0.00  0.00    +0.000 A 
ATOM     22  C   UNL     1      -0.002   9.156  21.473  0.00  0.00    +0.000 A 
ATOM     23  C   UNL     1      -0.122   9.807  20.246  0.00  0.00    +0.000 A 
ATOM     24  C   UNL     1       0.717   9.483  19.163  0.00  0.00    +0.000 A 
ATOM     25  C   UNL     1       0.546  10.237  17.874  0.00  0.00    +0.000 C 
ENDBRANCH  18  19
ENDBRANCH  17  18
ENDBRANCH  10  17
TORSDOF 6
ENDMDL
