MODEL 1
REMARK VINA RESULT:      -9.1      0.000      0.000
REMARK  Name = 
REMARK  7 active torsions:
REMARK  status: ('A' for Active; 'I' for Inactive)
REMARK    1  A    between atoms: C_1  and  C_2
REMARK    2  A    between atoms: C_5  and  C_6
REMARK    3  A    between atoms: C_6  and  C_7
REMARK    4  A    between atoms: N_11  and  C_12
REMARK    5  A    between atoms: C_12  and  C_13
REMARK    6  A    between atoms: N_15  and  N_16
REMARK    7  A    between atoms: C_17  and  C_19
REMARK                            x       y       z     vdW  Elec       q    Type
REMARK                         _______ _______ _______ _____ _____    ______ ____
ROOT
ATOM      1  C   UNL     1       3.388   5.809  17.977  0.00  0.00    +0.000 C 
ATOM      2  C   UNL     1       2.533   4.543  17.834  0.00  0.00    +0.000 C 
ATOM      3  N   UNL     1       3.952   6.139  16.680  0.00  0.00    +0.000 N 
ATOM      4  C   UNL     1       5.274   5.786  16.582  0.00  0.00    +0.000 C 
ATOM      5  O   UNL     1       5.904   5.764  15.539  0.00  0.00    +0.000 OA
ATOM      6  N   UNL     1       5.720   5.418  17.806  0.00  0.00    +0.000 N 
ATOM      7  C   UNL     1       4.695   5.421  18.712  0.00  0.00    +0.000 C 
ATOM      8  O   UNL     1       4.789   5.070  19.882  0.00  0.00    +0.000 OA
ATOM      9  H   UNL     1       3.408   6.319  15.847  0.00  0.00    +0.000 HD
ENDROOT
BRANCH   1  14
ATOM     10  C   UNL     1       0.477  10.275  20.427  0.00  0.00    +0.000 C 
ATOM     11  C   UNL     1       1.248   9.146  19.809  0.00  0.00    +0.000 A 
ATOM     12  C   UNL     1       1.674   9.206  18.482  0.00  0.00    +0.000 A 
ATOM     13  C   UNL     1       2.367   8.135  17.907  0.00  0.00    +0.000 A 
ATOM     14  C   UNL     1       2.655   6.968  18.640  0.00  0.00    +0.000 A 
ATOM     15  C   UNL     1       2.229   6.928  19.979  0.00  0.00    +0.000 A 
ATOM     16  C   UNL     1       1.536   8.000  20.555  0.00  0.00    +0.000 A 
ENDBRANCH   1  14
BRANCH   6  17
ATOM     17  C   UNL     1       7.069   4.994  18.108  0.00  0.00    +0.000 C 
BRANCH  17  18
ATOM     18  C   UNL     1       7.872   6.066  18.840  0.00  0.00    +0.000 C 
ATOM     19  O   UNL     1       8.311   5.876  19.980  0.00  0.00    +0.000 OA
ATOM     20  N   UNL     1       7.995   7.293  18.216  0.00  0.00    +0.000 N 
ATOM     21  H   UNL     1       7.358   7.610  17.484  0.00  0.00    +0.000 HD
BRANCH  20  22
ATOM     22  N   UNL     1       8.708   8.290  18.897  0.00  0.00    +0.000 N 
ATOM     23  C   UNL     1       8.629   9.600  18.473  0.00  0.00    +0.000 C 
ATOM     24  O   UNL     1       7.883   9.948  17.560  0.00  0.00    +0.000 OA
ATOM     25  H   UNL     1       9.369   7.966  19.607  0.00  0.00    +0.000 HD
BRANCH  23  26
ATOM     26  C   UNL     1       9.498  10.596  19.168  0.00  0.00    +0.000 A 
ATOM     27  C   UNL     1       9.251  10.873  20.521  0.00  0.00    +0.000 A 
ATOM     28  C   UNL     1      10.029  11.811  21.210  0.00  0.00    +0.000 A 
ATOM     29  C   UNL     1      11.064  12.480  20.556  0.00  0.00    +0.000 A 
ATOM     30  C   UNL     1      11.322  12.207  19.214  0.00  0.00    +0.000 A 
ATOM     31  C   UNL     1      10.541  11.273  18.530  0.00  0.00    +0.000 A 
ATOM     32  F   UNL     1      10.826  11.046  17.239  0.00  0.00    +0.000 F 
ENDBRANCH  23  26
ENDBRANCH  20  22
ENDBRANCH  17  18
ENDBRANCH   6  17
TORSDOF 5
ENDMDL
MODEL 2
REMARK VINA RESULT:      -8.9      0.786      1.254
REMARK  Name = 
REMARK  7 active torsions:
REMARK  status: ('A' for Active; 'I' for Inactive)
REMARK    1  A    between atoms: C_1  and  C_2
REMARK    2  A    between atoms: C_5  and  C_6
REMARK    3  A    between atoms: C_6  and  C_7
REMARK    4  A    between atoms: N_11  and  C_12
REMARK    5  A    between atoms: C_12  and  C_13
REMARK    6  A    between atoms: N_15  and  N_16
REMARK    7  A    between atoms: C_17  and  C_19
REMARK                            x       y       z     vdW  Elec       q    Type
REMARK                         _______ _______ _______ _____ _____    ______ ____
ROOT
ATOM      1  C   UNL     1       3.530   4.929  18.173  0.00  0.00    +0.000 C 
ATOM      2  C   UNL     1       2.849   3.573  17.945  0.00  0.00    +0.000 C 
ATOM      3  N   UNL     1       3.906   5.484  16.884  0.00  0.00    +0.000 N 
ATOM      4  C   UNL     1       5.247   5.345  16.628  0.00  0.00    +0.000 C 
ATOM      5  O   UNL     1       5.762   5.535  15.540  0.00  0.00    +0.000 OA
ATOM      6  N   UNL     1       5.863   4.914  17.754  0.00  0.00    +0.000 N 
ATOM      7  C   UNL     1       4.947   4.662  18.737  0.00  0.00    +0.000 C 
ATOM      8  O   UNL     1       5.209   4.201  19.841  0.00  0.00    +0.000 OA
ATOM      9  H   UNL     1       3.259   5.671  16.130  0.00  0.00    +0.000 HD
ENDROOT
BRANCH   1  14
ATOM     10  C   UNL     1       0.461   8.561  21.610  0.00  0.00    +0.000 C 
ATOM     11  C   UNL     1       1.220   7.626  20.716  0.00  0.00    +0.000 A 
ATOM     12  C   UNL     1       1.322   6.266  21.013  0.00  0.00    +0.000 A 
ATOM     13  C   UNL     1       2.056   5.409  20.187  0.00  0.00    +0.000 A 
ATOM     14  C   UNL     1       2.715   5.884  19.037  0.00  0.00    +0.000 A 
ATOM     15  C   UNL     1       2.595   7.253  18.744  0.00  0.00    +0.000 A 
ATOM     16  C   UNL     1       1.858   8.111  19.571  0.00  0.00    +0.000 A 
ENDBRANCH   1  14
BRANCH   6  17
ATOM     17  C   UNL     1       7.282   4.667  17.883  0.00  0.00    +0.000 C 
BRANCH  17  18
ATOM     18  C   UNL     1       8.000   5.759  18.670  0.00  0.00    +0.000 C 
ATOM     19  O   UNL     1       8.464   5.544  19.796  0.00  0.00    +0.000 OA
ATOM     20  N   UNL     1       8.015   7.025  18.115  0.00  0.00    +0.000 N 
ATOM     21  H   UNL     1       7.347   7.328  17.405  0.00  0.00    +0.000 HD
BRANCH  20  22
ATOM     22  N   UNL     1       8.649   8.038  18.848  0.00  0.00    +0.000 N 
ATOM     23  C   UNL     1       8.529   9.352  18.447  0.00  0.00    +0.000 C 
ATOM     24  O   UNL     1       7.810   9.686  17.507  0.00  0.00    +0.000 OA
ATOM     25  H   UNL     1       9.291   7.729  19.581  0.00  0.00    +0.000 HD
BRANCH  23  26
ATOM     26  C   UNL     1       9.318  10.372  19.200  0.00  0.00    +0.000 A 
ATOM     27  C   UNL     1       9.025  10.579  20.556  0.00  0.00    +0.000 A 
ATOM     28  C   UNL     1       9.728  11.535  21.300  0.00  0.00    +0.000 A 
ATOM     29  C   UNL     1      10.732  12.292  20.697  0.00  0.00    +0.000 A 
ATOM     30  C   UNL     1      11.036  12.090  19.353  0.00  0.00    +0.000 A 
ATOM     31  C   UNL     1      10.331  11.136  18.615  0.00  0.00    +0.000 A 
ATOM     32  F   UNL     1      10.658  10.980  17.323  0.00  0.00    +0.000 F 
ENDBRANCH  23  26
ENDBRANCH  20  22
ENDBRANCH  17  18
ENDBRANCH   6  17
TORSDOF 5
ENDMDL
MODEL 3
REMARK VINA RESULT:      -8.8      0.914      1.553
REMARK  Name = 
REMARK  7 active torsions:
REMARK  status: ('A' for Active; 'I' for Inactive)
REMARK    1  A    between atoms: C_1  and  C_2
REMARK    2  A    between atoms: C_5  and  C_6
REMARK    3  A    between atoms: C_6  and  C_7
REMARK    4  A    between atoms: N_11  and  C_12
REMARK    5  A    between atoms: C_12  and  C_13
REMARK    6  A    between atoms: N_15  and  N_16
REMARK    7  A    between atoms: C_17  and  C_19
REMARK                            x       y       z     vdW  Elec       q    Type
REMARK                         _______ _______ _______ _____ _____    ______ ____
ROOT
ATOM      1  C   UNL     1       3.279   5.966  17.989  0.00  0.00    +0.000 C 
ATOM      2  C   UNL     1       2.413   4.759  17.607  0.00  0.00    +0.000 C 
ATOM      3  N   UNL     1       3.941   6.462  16.795  0.00  0.00    +0.000 N 
ATOM      4  C   UNL     1       5.259   6.088  16.736  0.00  0.00    +0.000 C 
ATOM      5  O   UNL     1       5.961   6.198  15.746  0.00  0.00    +0.000 OA
ATOM      6  N   UNL     1       5.610   5.536  17.921  0.00  0.00    +0.000 N 
ATOM      7  C   UNL     1       4.523   5.439  18.746  0.00  0.00    +0.000 C 
ATOM      8  O   UNL     1       4.527   4.922  19.857  0.00  0.00    +0.000 OA
ATOM      9  H   UNL     1       3.460   6.775  15.962  0.00  0.00    +0.000 HD
ENDROOT
BRANCH   1  14
ATOM     10  C   UNL     1       0.457  10.086  21.068  0.00  0.00    +0.000 C 
ATOM     11  C   UNL     1       1.151   9.021  20.272  0.00  0.00    +0.000 A 
ATOM     12  C   UNL     1       1.456   7.782  20.836  0.00  0.00    +0.000 A 
ATOM     13  C   UNL     1       2.129   6.806  20.094  0.00  0.00    +0.000 A 
ATOM     14  C   UNL     1       2.523   7.039  18.762  0.00  0.00    +0.000 A 
ATOM     15  C   UNL     1       2.200   8.287  18.204  0.00  0.00    +0.000 A 
ATOM     16  C   UNL     1       1.524   9.264  18.947  0.00  0.00    +0.000 A 
ENDBRANCH   1  14
BRANCH   6  17
ATOM     17  C   UNL     1       6.925   5.035  18.249  0.00  0.00    +0.000 C 
BRANCH  17  18
ATOM     18  C   UNL     1       7.822   6.100  18.874  0.00  0.00    +0.000 C 
ATOM     19  O   UNL     1       8.353   5.929  19.978  0.00  0.00    +0.000 OA
ATOM     20  N   UNL     1       7.927   7.303  18.203  0.00  0.00    +0.000 N 
ATOM     21  H   UNL     1       7.238   7.620  17.520  0.00  0.00    +0.000 HD
BRANCH  20  22
ATOM     22  N   UNL     1       8.727   8.295  18.789  0.00  0.00    +0.000 N 
ATOM     23  C   UNL     1       8.601   9.606  18.380  0.00  0.00    +0.000 C 
ATOM     24  O   UNL     1       7.746   9.960  17.571  0.00  0.00    +0.000 OA
ATOM     25  H   UNL     1       9.472   7.967  19.406  0.00  0.00    +0.000 HD
BRANCH  23  26
ATOM     26  C   UNL     1       9.558  10.597  18.957  0.00  0.00    +0.000 A 
ATOM     27  C   UNL     1      10.535  11.154  18.119  0.00  0.00    +0.000 A 
ATOM     28  C   UNL     1      11.463  12.075  18.619  0.00  0.00    +0.000 A 
ATOM     29  C   UNL     1      11.423  12.452  19.961  0.00  0.00    +0.000 A 
ATOM     30  C   UNL     1      10.452  11.911  20.801  0.00  0.00    +0.000 A 
ATOM     31  C   UNL     1       9.530  10.990  20.298  0.00  0.00    +0.000 A 
ATOM     32  F   UNL     1       8.616  10.494  21.146  0.00  0.00    +0.000 F 
ENDBRANCH  23  26
ENDBRANCH  20  22
ENDBRANCH  17  18
ENDBRANCH   6  17
TORSDOF 5
ENDMDL
MODEL 4
REMARK VINA RESULT:      -8.3      3.643      6.943
REMARK  Name = 
REMARK  7 active torsions:
REMARK  status: ('A' for Active; 'I' for Inactive)
REMARK    1  A    between atoms: C_1  and  C_2
REMARK    2  A    between atoms: C_5  and  C_6
REMARK    3  A    between atoms: C_6  and  C_7
REMARK    4  A    between atoms: N_11  and  C_12
REMARK    5  A    between atoms: C_12  and  C_13
REMARK    6  A    between atoms: N_15  and  N_16
REMARK    7  A    between atoms: C_17  and  C_19
REMARK                            x       y       z     vdW  Elec       q    Type
REMARK                         _______ _______ _______ _____ _____    ______ ____
ROOT
ATOM      1  C   UNL     1       5.151   4.184  17.938  0.00  0.00    +0.000 C 
ATOM      2  C   UNL     1       5.042   3.491  16.574  0.00  0.00    +0.000 C 
ATOM      3  N   UNL     1       5.686   3.236  18.901  0.00  0.00    +0.000 N 
ATOM      4  C   UNL     1       4.715   2.728  19.726  0.00  0.00    +0.000 C 
ATOM      5  O   UNL     1       4.872   1.771  20.464  0.00  0.00    +0.000 OA
ATOM      6  N   UNL     1       3.569   3.422  19.532  0.00  0.00    +0.000 N 
ATOM      7  C   UNL     1       3.722   4.326  18.516  0.00  0.00    +0.000 C 
ATOM      8  O   UNL     1       2.834   5.047  18.078  0.00  0.00    +0.000 OA
ATOM      9  H   UNL     1       6.575   2.764  18.807  0.00  0.00    +0.000 HD
ENDROOT
BRANCH   1  14
ATOM     10  C   UNL     1       8.180   9.204  17.727  0.00  0.00    +0.000 C 
ATOM     11  C   UNL     1       7.392   7.930  17.807  0.00  0.00    +0.000 A 
ATOM     12  C   UNL     1       7.859   6.836  18.536  0.00  0.00    +0.000 A 
ATOM     13  C   UNL     1       7.129   5.644  18.580  0.00  0.00    +0.000 A 
ATOM     14  C   UNL     1       5.909   5.505  17.893  0.00  0.00    +0.000 A 
ATOM     15  C   UNL     1       5.445   6.618  17.172  0.00  0.00    +0.000 A 
ATOM     16  C   UNL     1       6.175   7.813  17.129  0.00  0.00    +0.000 A 
ENDBRANCH   1  14
BRANCH   6  17
ATOM     17  C   UNL     1       2.326   3.191  20.233  0.00  0.00    +0.000 C 
BRANCH  17  18
ATOM     18  C   UNL     1       1.563   4.481  20.519  0.00  0.00    +0.000 C 
ATOM     19  O   UNL     1       0.357   4.585  20.268  0.00  0.00    +0.000 OA
ATOM     20  N   UNL     1       2.301   5.558  20.971  0.00  0.00    +0.000 N 
ATOM     21  H   UNL     1       3.310   5.637  20.835  0.00  0.00    +0.000 HD
BRANCH  20  22
ATOM     22  N   UNL     1       1.609   6.755  21.208  0.00  0.00    +0.000 N 
ATOM     23  C   UNL     1       1.731   7.805  20.322  0.00  0.00    +0.000 C 
ATOM     24  O   UNL     1       2.365   7.705  19.274  0.00  0.00    +0.000 OA
ATOM     25  H   UNL     1       1.145   6.834  22.115  0.00  0.00    +0.000 HD
BRANCH  23  26
ATOM     26  C   UNL     1       1.062   9.088  20.688  0.00  0.00    +0.000 A 
ATOM     27  C   UNL     1       0.512   9.216  21.972  0.00  0.00    +0.000 A 
ATOM     28  C   UNL     1      -0.139  10.395  22.355  0.00  0.00    +0.000 A 
ATOM     29  C   UNL     1      -0.245  11.460  21.459  0.00  0.00    +0.000 A 
ATOM     30  C   UNL     1       0.303  11.346  20.184  0.00  0.00    +0.000 A 
ATOM     31  C   UNL     1       0.950  10.167  19.806  0.00  0.00    +0.000 A 
ATOM     32  F   UNL     1       1.459  10.104  18.567  0.00  0.00    +0.000 F 
ENDBRANCH  23  26
ENDBRANCH  20  22
ENDBRANCH  17  18
ENDBRANCH   6  17
TORSDOF 5
ENDMDL
MODEL 5
REMARK VINA RESULT:      -8.1      3.843      7.132
REMARK  Name = 
REMARK  7 active torsions:
REMARK  status: ('A' for Active; 'I' for Inactive)
REMARK    1  A    between atoms: C_1  and  C_2
REMARK    2  A    between atoms: C_5  and  C_6
REMARK    3  A    between atoms: C_6  and  C_7
REMARK    4  A    between atoms: N_11  and  C_12
REMARK    5  A    between atoms: C_12  and  C_13
REMARK    6  A    between atoms: N_15  and  N_16
REMARK    7  A    between atoms: C_17  and  C_19
REMARK                            x       y       z     vdW  Elec       q    Type
REMARK                         _______ _______ _______ _____ _____    ______ ____
ROOT
ATOM      1  C   UNL     1       5.089   4.172  18.033  0.00  0.00    +0.000 C 
ATOM      2  C   UNL     1       4.886   3.489  16.674  0.00  0.00    +0.000 C 
ATOM      3  N   UNL     1       5.640   3.203  18.964  0.00  0.00    +0.000 N 
ATOM      4  C   UNL     1       4.697   2.723  19.837  0.00  0.00    +0.000 C 
ATOM      5  O   UNL     1       4.861   1.759  20.563  0.00  0.00    +0.000 OA
ATOM      6  N   UNL     1       3.567   3.456  19.704  0.00  0.00    +0.000 N 
ATOM      7  C   UNL     1       3.696   4.359  18.684  0.00  0.00    +0.000 C 
ATOM      8  O   UNL     1       2.811   5.111  18.294  0.00  0.00    +0.000 OA
ATOM      9  H   UNL     1       6.507   2.703  18.823  0.00  0.00    +0.000 HD
ENDROOT
BRANCH   1  14
ATOM     10  C   UNL     1       8.271   9.089  17.688  0.00  0.00    +0.000 C 
ATOM     11  C   UNL     1       7.443   7.843  17.801  0.00  0.00    +0.000 A 
ATOM     12  C   UNL     1       7.865   6.764  18.579  0.00  0.00    +0.000 A 
ATOM     13  C   UNL     1       7.099   5.596  18.654  0.00  0.00    +0.000 A 
ATOM     14  C   UNL     1       5.886   5.468  17.951  0.00  0.00    +0.000 A 
ATOM     15  C   UNL     1       5.468   6.566  17.181  0.00  0.00    +0.000 A 
ATOM     16  C   UNL     1       6.234   7.736  17.107  0.00  0.00    +0.000 A 
ENDBRANCH   1  14
BRANCH   6  17
ATOM     17  C   UNL     1       2.355   3.263  20.467  0.00  0.00    +0.000 C 
BRANCH  17  18
ATOM     18  C   UNL     1       1.542   4.546  20.616  0.00  0.00    +0.000 C 
ATOM     19  O   UNL     1       0.353   4.599  20.278  0.00  0.00    +0.000 OA
ATOM     20  N   UNL     1       2.219   5.671  21.043  0.00  0.00    +0.000 N 
ATOM     21  H   UNL     1       3.233   5.771  20.970  0.00  0.00    +0.000 HD
BRANCH  20  22
ATOM     22  N   UNL     1       1.483   6.860  21.153  0.00  0.00    +0.000 N 
ATOM     23  C   UNL     1       1.683   7.877  20.244  0.00  0.00    +0.000 C 
ATOM     24  O   UNL     1       2.432   7.752  19.277  0.00  0.00    +0.000 OA
ATOM     25  H   UNL     1       0.919   6.964  22.000  0.00  0.00    +0.000 HD
BRANCH  23  26
ATOM     26  C   UNL     1       0.953   9.158  20.480  0.00  0.00    +0.000 A 
ATOM     27  C   UNL     1       0.498   9.885  19.370  0.00  0.00    +0.000 A 
ATOM     28  C   UNL     1      -0.178  11.100  19.540  0.00  0.00    +0.000 A 
ATOM     29  C   UNL     1      -0.408  11.599  20.823  0.00  0.00    +0.000 A 
ATOM     30  C   UNL     1       0.034  10.882  21.932  0.00  0.00    +0.000 A 
ATOM     31  C   UNL     1       0.710   9.672  21.757  0.00  0.00    +0.000 A 
ATOM     32  F   UNL     1       1.119   9.020  22.855  0.00  0.00    +0.000 F 
ENDBRANCH  23  26
ENDBRANCH  20  22
ENDBRANCH  17  18
ENDBRANCH   6  17
TORSDOF 5
ENDMDL
MODEL 6
REMARK VINA RESULT:      -8.1      3.041      6.910
REMARK  Name = 
REMARK  7 active torsions:
REMARK  status: ('A' for Active; 'I' for Inactive)
REMARK    1  A    between atoms: C_1  and  C_2
REMARK    2  A    between atoms: C_5  and  C_6
REMARK    3  A    between atoms: C_6  and  C_7
REMARK    4  A    between atoms: N_11  and  C_12
REMARK    5  A    between atoms: C_12  and  C_13
REMARK    6  A    between atoms: N_15  and  N_16
REMARK    7  A    between atoms: C_17  and  C_19
REMARK                            x       y       z     vdW  Elec       q    Type
REMARK                         _______ _______ _______ _____ _____    ______ ____
ROOT
ATOM      1  C   UNL     1       6.154   5.001  17.679  0.00  0.00    +0.000 C 
ATOM      2  C   UNL     1       6.490   4.297  16.359  0.00  0.00    +0.000 C 
ATOM      3  N   UNL     1       6.297   4.048  18.766  0.00  0.00    +0.000 N 
ATOM      4  C   UNL     1       5.087   3.581  19.213  0.00  0.00    +0.000 C 
ATOM      5  O   UNL     1       4.952   2.629  19.960  0.00  0.00    +0.000 OA
ATOM      6  N   UNL     1       4.100   4.310  18.641  0.00  0.00    +0.000 N 
ATOM      7  C   UNL     1       4.619   5.197  17.738  0.00  0.00    +0.000 C 
ATOM      8  O   UNL     1       3.958   5.941  17.024  0.00  0.00    +0.000 OA
ATOM      9  H   UNL     1       7.149   3.547  18.980  0.00  0.00    +0.000 HD
ENDROOT
BRANCH   1  14
ATOM     10  C   UNL     1       9.011  10.058  18.512  0.00  0.00    +0.000 C 
ATOM     11  C   UNL     1       8.302   8.757  18.278  0.00  0.00    +0.000 A 
ATOM     12  C   UNL     1       7.330   8.633  17.284  0.00  0.00    +0.000 A 
ATOM     13  C   UNL     1       6.655   7.423  17.094  0.00  0.00    +0.000 A 
ATOM     14  C   UNL     1       6.927   6.297  17.894  0.00  0.00    +0.000 A 
ATOM     15  C   UNL     1       7.915   6.433  18.883  0.00  0.00    +0.000 A 
ATOM     16  C   UNL     1       8.593   7.645  19.073  0.00  0.00    +0.000 A 
ENDBRANCH   1  14
BRANCH   6  17
ATOM     17  C   UNL     1       2.686   4.127  18.878  0.00  0.00    +0.000 C 
BRANCH  17  18
ATOM     18  C   UNL     1       2.088   5.228  19.750  0.00  0.00    +0.000 C 
ATOM     19  O   UNL     1       1.278   4.970  20.648  0.00  0.00    +0.000 OA
ATOM     20  N   UNL     1       2.408   6.531  19.421  0.00  0.00    +0.000 N 
ATOM     21  H   UNL     1       2.748   6.803  18.498  0.00  0.00    +0.000 HD
BRANCH  20  22
ATOM     22  N   UNL     1       1.838   7.547  20.201  0.00  0.00    +0.000 N 
ATOM     23  C   UNL     1       1.284   8.652  19.588  0.00  0.00    +0.000 C 
ATOM     24  O   UNL     1       1.193   8.745  18.366  0.00  0.00    +0.000 OA
ATOM     25  H   UNL     1       1.985   7.478  21.210  0.00  0.00    +0.000 HD
BRANCH  23  26
ATOM     26  C   UNL     1       0.795   9.751  20.473  0.00  0.00    +0.000 A 
ATOM     27  C   UNL     1       0.029   9.414  21.600  0.00  0.00    +0.000 A 
ATOM     28  C   UNL     1      -0.464  10.411  22.451  0.00  0.00    +0.000 A 
ATOM     29  C   UNL     1      -0.195  11.754  22.186  0.00  0.00    +0.000 A 
ATOM     30  C   UNL     1       0.570  12.099  21.074  0.00  0.00    +0.000 A 
ATOM     31  C   UNL     1       1.058  11.101  20.227  0.00  0.00    +0.000 A 
ATOM     32  F   UNL     1       1.786  11.482  19.168  0.00  0.00    +0.000 F 
ENDBRANCH  23  26
ENDBRANCH  20  22
ENDBRANCH  17  18
ENDBRANCH   6  17
TORSDOF 5
ENDMDL
MODEL 7
REMARK VINA RESULT:      -8.0      3.560      7.036
REMARK  Name = 
REMARK  7 active torsions:
REMARK  status: ('A' for Active; 'I' for Inactive)
REMARK    1  A    between atoms: C_1  and  C_2
REMARK    2  A    between atoms: C_5  and  C_6
REMARK    3  A    between atoms: C_6  and  C_7
REMARK    4  A    between atoms: N_11  and  C_12
REMARK    5  A    between atoms: C_12  and  C_13
REMARK    6  A    between atoms: N_15  and  N_16
REMARK    7  A    between atoms: C_17  and  C_19
REMARK                            x       y       z     vdW  Elec       q    Type
REMARK                         _______ _______ _______ _____ _____    ______ ____
ROOT
ATOM      1  C   UNL     1       5.871   4.750  17.685  0.00  0.00    +0.000 C 
ATOM      2  C   UNL     1       6.126   4.026  16.357  0.00  0.00    +0.000 C 
ATOM      3  N   UNL     1       6.079   3.813  18.775  0.00  0.00    +0.000 N 
ATOM      4  C   UNL     1       4.898   3.354  19.301  0.00  0.00    +0.000 C 
ATOM      5  O   UNL     1       4.807   2.413  20.069  0.00  0.00    +0.000 OA
ATOM      6  N   UNL     1       3.878   4.077  18.779  0.00  0.00    +0.000 N 
ATOM      7  C   UNL     1       4.343   4.950  17.833  0.00  0.00    +0.000 C 
ATOM      8  O   UNL     1       3.640   5.685  17.150  0.00  0.00    +0.000 OA
ATOM      9  H   UNL     1       6.941   3.313  18.944  0.00  0.00    +0.000 HD
ENDROOT
BRANCH   1  14
ATOM     10  C   UNL     1       8.780   9.811  18.274  0.00  0.00    +0.000 C 
ATOM     11  C   UNL     1       8.055   8.509  18.100  0.00  0.00    +0.000 A 
ATOM     12  C   UNL     1       6.996   8.387  17.200  0.00  0.00    +0.000 A 
ATOM     13  C   UNL     1       6.309   7.176  17.067  0.00  0.00    +0.000 A 
ATOM     14  C   UNL     1       6.657   6.047  17.833  0.00  0.00    +0.000 A 
ATOM     15  C   UNL     1       7.732   6.182  18.728  0.00  0.00    +0.000 A 
ATOM     16  C   UNL     1       8.421   7.394  18.859  0.00  0.00    +0.000 A 
ENDBRANCH   1  14
BRANCH   6  17
ATOM     17  C   UNL     1       2.481   3.900  19.104  0.00  0.00    +0.000 C 
BRANCH  17  18
ATOM     18  C   UNL     1       1.898   5.089  19.862  0.00  0.00    +0.000 C 
ATOM     19  O   UNL     1       0.903   4.967  20.586  0.00  0.00    +0.000 OA
ATOM     20  N   UNL     1       2.465   6.326  19.620  0.00  0.00    +0.000 N 
ATOM     21  H   UNL     1       3.010   6.533  18.783  0.00  0.00    +0.000 HD
BRANCH  20  22
ATOM     22  N   UNL     1       1.913   7.427  20.293  0.00  0.00    +0.000 N 
ATOM     23  C   UNL     1       1.389   8.478  19.571  0.00  0.00    +0.000 C 
ATOM     24  O   UNL     1       1.307   8.453  18.344  0.00  0.00    +0.000 OA
ATOM     25  H   UNL     1       2.054   7.452  21.305  0.00  0.00    +0.000 HD
BRANCH  23  26
ATOM     26  C   UNL     1       0.920   9.669  20.341  0.00  0.00    +0.000 A 
ATOM     27  C   UNL     1       1.326  10.943  19.917  0.00  0.00    +0.000 A 
ATOM     28  C   UNL     1       0.925  12.088  20.615  0.00  0.00    +0.000 A 
ATOM     29  C   UNL     1       0.112  11.972  21.743  0.00  0.00    +0.000 A 
ATOM     30  C   UNL     1      -0.302  10.712  22.169  0.00  0.00    +0.000 A 
ATOM     31  C   UNL     1       0.103   9.573  21.470  0.00  0.00    +0.000 A 
ATOM     32  F   UNL     1      -0.319   8.382  21.920  0.00  0.00    +0.000 F 
ENDBRANCH  23  26
ENDBRANCH  20  22
ENDBRANCH  17  18
ENDBRANCH   6  17
TORSDOF 5
ENDMDL
MODEL 8
REMARK VINA RESULT:      -8.0      5.251      8.455
REMARK  Name = 
REMARK  7 active torsions:
REMARK  status: ('A' for Active; 'I' for Inactive)
REMARK    1  A    between atoms: C_1  and  C_2
REMARK    2  A    between atoms: C_5  and  C_6
REMARK    3  A    between atoms: C_6  and  C_7
REMARK    4  A    between atoms: N_11  and  C_12
REMARK    5  A    between atoms: C_12  and  C_13
REMARK    6  A    between atoms: N_15  and  N_16
REMARK    7  A    between atoms: C_17  and  C_19
REMARK                            x       y       z     vdW  Elec       q    Type
REMARK                         _______ _______ _______ _____ _____    ______ ____
ROOT
ATOM      1  C   UNL     1      -2.402  11.588  17.783  0.00  0.00    +0.000 C 
ATOM      2  C   UNL     1      -2.411  11.138  16.317  0.00  0.00    +0.000 C 
ATOM      3  N   UNL     1      -1.675  12.842  17.881  0.00  0.00    +0.000 N 
ATOM      4  C   UNL     1      -0.408  12.674  18.381  0.00  0.00    +0.000 C 
ATOM      5  O   UNL     1       0.458  13.529  18.359  0.00  0.00    +0.000 OA
ATOM      6  N   UNL     1      -0.283  11.403  18.832  0.00  0.00    +0.000 N 
ATOM      7  C   UNL     1      -1.411  10.681  18.554  0.00  0.00    +0.000 C 
ATOM      8  O   UNL     1      -1.558   9.487  18.788  0.00  0.00    +0.000 OA
ATOM      9  H   UNL     1      -1.918  13.686  17.380  0.00  0.00    +0.000 HD
ENDROOT
BRANCH   1  14
ATOM     10  C   UNL     1      -7.721  11.886  20.239  0.00  0.00    +0.000 C 
ATOM     11  C   UNL     1      -6.356  11.784  19.627  0.00  0.00    +0.000 A 
ATOM     12  C   UNL     1      -5.243  12.357  20.245  0.00  0.00    +0.000 A 
ATOM     13  C   UNL     1      -3.979  12.280  19.651  0.00  0.00    +0.000 A 
ATOM     14  C   UNL     1      -3.786  11.631  18.417  0.00  0.00    +0.000 A 
ATOM     15  C   UNL     1      -4.913  11.049  17.812  0.00  0.00    +0.000 A 
ATOM     16  C   UNL     1      -6.179  11.124  18.408  0.00  0.00    +0.000 A 
ENDBRANCH   1  14
BRANCH   6  17
ATOM     17  C   UNL     1       0.904  10.851  19.444  0.00  0.00    +0.000 C 
BRANCH  17  18
ATOM     18  C   UNL     1       1.673   9.925  18.506  0.00  0.00    +0.000 C 
ATOM     19  O   UNL     1       2.122  10.330  17.427  0.00  0.00    +0.000 OA
ATOM     20  N   UNL     1       1.753   8.594  18.865  0.00  0.00    +0.000 N 
ATOM     21  H   UNL     1       1.103   8.155  19.519  0.00  0.00    +0.000 HD
BRANCH  20  22
ATOM     22  N   UNL     1       2.434   7.734  17.991  0.00  0.00    +0.000 N 
ATOM     23  C   UNL     1       3.075   6.618  18.488  0.00  0.00    +0.000 C 
ATOM     24  O   UNL     1       3.002   6.295  19.672  0.00  0.00    +0.000 OA
ATOM     25  H   UNL     1       2.535   8.059  17.027  0.00  0.00    +0.000 HD
BRANCH  23  26
ATOM     26  C   UNL     1       3.876   5.805  17.525  0.00  0.00    +0.000 A 
ATOM     27  C   UNL     1       4.771   6.467  16.671  0.00  0.00    +0.000 A 
ATOM     28  C   UNL     1       5.532   5.748  15.741  0.00  0.00    +0.000 A 
ATOM     29  C   UNL     1       5.410   4.361  15.658  0.00  0.00    +0.000 A 
ATOM     30  C   UNL     1       4.530   3.693  16.506  0.00  0.00    +0.000 A 
ATOM     31  C   UNL     1       3.771   4.415  17.430  0.00  0.00    +0.000 A 
ATOM     32  F   UNL     1       2.935   3.728  18.224  0.00  0.00    +0.000 F 
ENDBRANCH  23  26
ENDBRANCH  20  22
ENDBRANCH  17  18
ENDBRANCH   6  17
TORSDOF 5
ENDMDL
MODEL 9
REMARK VINA RESULT:      -7.9      4.979      8.311
REMARK  Name = 
REMARK  7 active torsions:
REMARK  status: ('A' for Active; 'I' for Inactive)
REMARK    1  A    between atoms: C_1  and  C_2
REMARK    2  A    between atoms: C_5  and  C_6
REMARK    3  A    between atoms: C_6  and  C_7
REMARK    4  A    between atoms: N_11  and  C_12
REMARK    5  A    between atoms: C_12  and  C_13
REMARK    6  A    between atoms: N_15  and  N_16
REMARK    7  A    between atoms: C_17  and  C_19
REMARK                            x       y       z     vdW  Elec       q    Type
REMARK                         _______ _______ _______ _____ _____    ______ ____
ROOT
ATOM      1  C   UNL     1      -2.369  11.554  17.889  0.00  0.00    +0.000 C 
ATOM      2  C   UNL     1      -2.373  11.022  16.450  0.00  0.00    +0.000 C 
ATOM      3  N   UNL     1      -1.662  12.822  17.915  0.00  0.00    +0.000 N 
ATOM      4  C   UNL     1      -0.392  12.701  18.421  0.00  0.00    +0.000 C 
ATOM      5  O   UNL     1       0.461  13.567  18.350  0.00  0.00    +0.000 OA
ATOM      6  N   UNL     1      -0.247  11.460  18.943  0.00  0.00    +0.000 N 
ATOM      7  C   UNL     1      -1.364  10.706  18.708  0.00  0.00    +0.000 C 
ATOM      8  O   UNL     1      -1.492   9.526  19.009  0.00  0.00    +0.000 OA
ATOM      9  H   UNL     1      -1.919  13.632  17.368  0.00  0.00    +0.000 HD
ENDROOT
BRANCH   1  14
ATOM     10  C   UNL     1      -7.704  11.635  20.328  0.00  0.00    +0.000 C 
ATOM     11  C   UNL     1      -6.348  11.637  19.686  0.00  0.00    +0.000 A 
ATOM     12  C   UNL     1      -6.091  10.882  18.542  0.00  0.00    +0.000 A 
ATOM     13  C   UNL     1      -4.815  10.869  17.968  0.00  0.00    +0.000 A 
ATOM     14  C   UNL     1      -3.754  11.610  18.522  0.00  0.00    +0.000 A 
ATOM     15  C   UNL     1      -4.031  12.375  19.668  0.00  0.00    +0.000 A 
ATOM     16  C   UNL     1      -5.309  12.389  20.242  0.00  0.00    +0.000 A 
ENDBRANCH   1  14
BRANCH   6  17
ATOM     17  C   UNL     1       0.949  10.961  19.583  0.00  0.00    +0.000 C 
BRANCH  17  18
ATOM     18  C   UNL     1       1.721   9.981  18.704  0.00  0.00    +0.000 C 
ATOM     19  O   UNL     1       2.299  10.354  17.676  0.00  0.00    +0.000 OA
ATOM     20  N   UNL     1       1.656   8.645  19.048  0.00  0.00    +0.000 N 
ATOM     21  H   UNL     1       0.915   8.258  19.634  0.00  0.00    +0.000 HD
BRANCH  20  22
ATOM     22  N   UNL     1       2.340   7.737  18.227  0.00  0.00    +0.000 N 
ATOM     23  C   UNL     1       2.817   6.557  18.757  0.00  0.00    +0.000 C 
ATOM     24  O   UNL     1       2.591   6.224  19.919  0.00  0.00    +0.000 OA
ATOM     25  H   UNL     1       2.572   8.066  17.287  0.00  0.00    +0.000 HD
BRANCH  23  26
ATOM     26  C   UNL     1       3.634   5.686  17.861  0.00  0.00    +0.000 A 
ATOM     27  C   UNL     1       3.197   4.374  17.620  0.00  0.00    +0.000 A 
ATOM     28  C   UNL     1       3.937   3.515  16.799  0.00  0.00    +0.000 A 
ATOM     29  C   UNL     1       5.121   3.958  16.209  0.00  0.00    +0.000 A 
ATOM     30  C   UNL     1       5.561   5.260  16.436  0.00  0.00    +0.000 A 
ATOM     31  C   UNL     1       4.820   6.113  17.257  0.00  0.00    +0.000 A 
ATOM     32  F   UNL     1       5.285   7.356  17.449  0.00  0.00    +0.000 F 
ENDBRANCH  23  26
ENDBRANCH  20  22
ENDBRANCH  17  18
ENDBRANCH   6  17
TORSDOF 5
ENDMDL
