MODEL 1
REMARK VINA RESULT:      -7.2      0.000      0.000
REMARK  Name = 
REMARK  4 active torsions:
REMARK  status: ('A' for Active; 'I' for Inactive)
REMARK    1  A    between atoms: C_1  and  C_2
REMARK    2  A    between atoms: C_5  and  C_6
REMARK    3  A    between atoms: C_6  and  O_7
REMARK    4  A    between atoms: O_7  and  C_8
REMARK                            x       y       z     vdW  Elec       q    Type
REMARK                         _______ _______ _______ _____ _____    ______ ____
ROOT
ATOM      1  C   UNL     1       4.258   4.425  17.343  0.00  0.00    +0.000 A 
ATOM      2  C   UNL     1       3.398   5.531  17.442  0.00  0.00    +0.000 A 
ATOM      3  C   UNL     1       2.476   5.630  18.492  0.00  0.00    +0.000 A 
ATOM      4  C   UNL     1       2.426   4.615  19.430  0.00  0.00    +0.000 A 
ATOM      5  S   UNL     1       1.382   4.476  20.826  0.00  0.00    +0.000 S 
ATOM      6  C   UNL     1       2.165   2.932  21.195  0.00  0.00    +0.000 A 
ATOM      7  O   UNL     1       1.837   2.261  22.165  0.00  0.00    +0.000 OA
ATOM      8  O   UNL     1       3.170   2.535  20.315  0.00  0.00    +0.000 OA
ATOM      9  C   UNL     1       3.276   3.520  19.336  0.00  0.00    +0.000 A 
ATOM     10  C   UNL     1       4.196   3.410  18.304  0.00  0.00    +0.000 A 
ENDROOT
BRANCH   1  11
ATOM     11  O   UNL     1       5.193   4.229  16.361  0.00  0.00    +0.000 OA
BRANCH  11  12
ATOM     12  C   UNL     1       6.547   4.071  16.789  0.00  0.00    +0.000 C 
BRANCH  12  17
ATOM     13  C   UNL     1       8.706   9.109  18.762  0.00  0.00    +0.000 C 
ATOM     14  C   UNL     1       8.138   7.811  18.272  0.00  0.00    +0.000 A 
ATOM     15  C   UNL     1       8.216   6.650  19.048  0.00  0.00    +0.000 A 
ATOM     16  C   UNL     1       7.687   5.446  18.576  0.00  0.00    +0.000 A 
ATOM     17  C   UNL     1       7.071   5.382  17.318  0.00  0.00    +0.000 A 
ATOM     18  C   UNL     1       6.992   6.547  16.545  0.00  0.00    +0.000 A 
ATOM     19  C   UNL     1       7.520   7.750  17.018  0.00  0.00    +0.000 A 
ENDBRANCH  12  17
ENDBRANCH  11  12
ENDBRANCH   1  11
TORSDOF 3
ENDMDL
MODEL 2
REMARK VINA RESULT:      -7.2      3.393      6.261
REMARK  Name = 
REMARK  4 active torsions:
REMARK  status: ('A' for Active; 'I' for Inactive)
REMARK    1  A    between atoms: C_1  and  C_2
REMARK    2  A    between atoms: C_5  and  C_6
REMARK    3  A    between atoms: C_6  and  O_7
REMARK    4  A    between atoms: O_7  and  C_8
REMARK                            x       y       z     vdW  Elec       q    Type
REMARK                         _______ _______ _______ _____ _____    ______ ____
ROOT
ATOM      1  C   UNL     1       4.665   5.267  18.238  0.00  0.00    +0.000 A 
ATOM      2  C   UNL     1       4.027   4.172  17.632  0.00  0.00    +0.000 A 
ATOM      3  C   UNL     1       4.452   3.695  16.386  0.00  0.00    +0.000 A 
ATOM      4  C   UNL     1       5.512   4.325  15.761  0.00  0.00    +0.000 A 
ATOM      5  S   UNL     1       6.242   3.950  14.215  0.00  0.00    +0.000 S 
ATOM      6  C   UNL     1       7.364   5.294  14.475  0.00  0.00    +0.000 A 
ATOM      7  O   UNL     1       8.222   5.582  13.651  0.00  0.00    +0.000 OA
ATOM      8  O   UNL     1       7.206   5.994  15.669  0.00  0.00    +0.000 OA
ATOM      9  C   UNL     1       6.146   5.407  16.357  0.00  0.00    +0.000 A 
ATOM     10  C   UNL     1       5.738   5.889  17.592  0.00  0.00    +0.000 A 
ENDROOT
BRANCH   1  11
ATOM     11  O   UNL     1       4.330   5.813  19.449  0.00  0.00    +0.000 OA
BRANCH  11  12
ATOM     12  C   UNL     1       2.952   5.754  19.818  0.00  0.00    +0.000 C 
BRANCH  12  17
ATOM     13  C   UNL     1       0.534  10.946  18.750  0.00  0.00    +0.000 C 
ATOM     14  C   UNL     1       1.136   9.603  19.032  0.00  0.00    +0.000 A 
ATOM     15  C   UNL     1       1.089   9.046  20.314  0.00  0.00    +0.000 A 
ATOM     16  C   UNL     1       1.661   7.795  20.564  0.00  0.00    +0.000 A 
ATOM     17  C   UNL     1       2.291   7.081  19.535  0.00  0.00    +0.000 A 
ATOM     18  C   UNL     1       2.334   7.640  18.253  0.00  0.00    +0.000 A 
ATOM     19  C   UNL     1       1.762   8.889  18.003  0.00  0.00    +0.000 A 
ENDBRANCH  12  17
ENDBRANCH  11  12
ENDBRANCH   1  11
TORSDOF 3
ENDMDL
MODEL 3
REMARK VINA RESULT:      -7.1      4.009      6.836
REMARK  Name = 
REMARK  4 active torsions:
REMARK  status: ('A' for Active; 'I' for Inactive)
REMARK    1  A    between atoms: C_1  and  C_2
REMARK    2  A    between atoms: C_5  and  C_6
REMARK    3  A    between atoms: C_6  and  O_7
REMARK    4  A    between atoms: O_7  and  C_8
REMARK                            x       y       z     vdW  Elec       q    Type
REMARK                         _______ _______ _______ _____ _____    ______ ____
ROOT
ATOM      1  C   UNL     1       3.213   5.857  18.226  0.00  0.00    +0.000 A 
ATOM      2  C   UNL     1       2.916   4.518  17.923  0.00  0.00    +0.000 A 
ATOM      3  C   UNL     1       3.717   3.789  17.035  0.00  0.00    +0.000 A 
ATOM      4  C   UNL     1       4.807   4.414  16.459  0.00  0.00    +0.000 A 
ATOM      5  S   UNL     1       5.964   3.755  15.323  0.00  0.00    +0.000 S 
ATOM      6  C   UNL     1       6.781   5.326  15.320  0.00  0.00    +0.000 A 
ATOM      7  O   UNL     1       7.777   5.530  14.639  0.00  0.00    +0.000 OA
ATOM      8  O   UNL     1       6.217   6.304  16.137  0.00  0.00    +0.000 OA
ATOM      9  C   UNL     1       5.105   5.738  16.755  0.00  0.00    +0.000 A 
ATOM     10  C   UNL     1       4.322   6.471  17.635  0.00  0.00    +0.000 A 
ENDROOT
BRANCH   1  11
ATOM     11  O   UNL     1       2.499   6.659  19.076  0.00  0.00    +0.000 OA
BRANCH  11  12
ATOM     12  C   UNL     1       2.210   7.981  18.618  0.00  0.00    +0.000 C 
BRANCH  12  17
ATOM     13  C   UNL     1      -0.839  10.813  22.696  0.00  0.00    +0.000 C 
ATOM     14  C   UNL     1      -0.042  10.102  21.643  0.00  0.00    +0.000 A 
ATOM     15  C   UNL     1       0.053  10.610  20.344  0.00  0.00    +0.000 A 
ATOM     16  C   UNL     1       0.794   9.933  19.371  0.00  0.00    +0.000 A 
ATOM     17  C   UNL     1       1.453   8.736  19.682  0.00  0.00    +0.000 A 
ATOM     18  C   UNL     1       1.358   8.231  20.984  0.00  0.00    +0.000 A 
ATOM     19  C   UNL     1       0.618   8.908  21.956  0.00  0.00    +0.000 A 
ENDBRANCH  12  17
ENDBRANCH  11  12
ENDBRANCH   1  11
TORSDOF 3
ENDMDL
MODEL 4
REMARK VINA RESULT:      -7.1      3.471      6.290
REMARK  Name = 
REMARK  4 active torsions:
REMARK  status: ('A' for Active; 'I' for Inactive)
REMARK    1  A    between atoms: C_1  and  C_2
REMARK    2  A    between atoms: C_5  and  C_6
REMARK    3  A    between atoms: C_6  and  O_7
REMARK    4  A    between atoms: O_7  and  C_8
REMARK                            x       y       z     vdW  Elec       q    Type
REMARK                         _______ _______ _______ _____ _____    ______ ____
ROOT
ATOM      1  C   UNL     1       4.288   5.290  18.412  0.00  0.00    +0.000 A 
ATOM      2  C   UNL     1       3.706   4.150  17.833  0.00  0.00    +0.000 A 
ATOM      3  C   UNL     1       4.188   3.636  16.622  0.00  0.00    +0.000 A 
ATOM      4  C   UNL     1       5.246   4.275  16.004  0.00  0.00    +0.000 A 
ATOM      5  S   UNL     1       6.038   3.862  14.499  0.00  0.00    +0.000 S 
ATOM      6  C   UNL     1       7.106   5.253  14.737  0.00  0.00    +0.000 A 
ATOM      7  O   UNL     1       7.980   5.536  13.928  0.00  0.00    +0.000 OA
ATOM      8  O   UNL     1       6.886   5.996  15.894  0.00  0.00    +0.000 OA
ATOM      9  C   UNL     1       5.825   5.403  16.573  0.00  0.00    +0.000 A 
ATOM     10  C   UNL     1       5.360   5.921  17.773  0.00  0.00    +0.000 A 
ENDROOT
BRANCH   1  11
ATOM     11  O   UNL     1       3.896   5.874  19.587  0.00  0.00    +0.000 OA
BRANCH  11  12
ATOM     12  C   UNL     1       2.490   5.985  19.809  0.00  0.00    +0.000 C 
BRANCH  12  17
ATOM     13  C   UNL     1       0.632  11.420  18.826  0.00  0.00    +0.000 C 
ATOM     14  C   UNL     1       1.131  10.027  19.073  0.00  0.00    +0.000 A 
ATOM     15  C   UNL     1       1.768   9.299  18.064  0.00  0.00    +0.000 A 
ATOM     16  C   UNL     1       2.221   7.999  18.306  0.00  0.00    +0.000 A 
ATOM     17  C   UNL     1       2.045   7.406  19.564  0.00  0.00    +0.000 A 
ATOM     18  C   UNL     1       1.409   8.138  20.573  0.00  0.00    +0.000 A 
ATOM     19  C   UNL     1       0.957   9.437  20.331  0.00  0.00    +0.000 A 
ENDBRANCH  12  17
ENDBRANCH  11  12
ENDBRANCH   1  11
TORSDOF 3
ENDMDL
MODEL 5
REMARK VINA RESULT:      -7.1      4.027      5.286
REMARK  Name = 
REMARK  4 active torsions:
REMARK  status: ('A' for Active; 'I' for Inactive)
REMARK    1  A    between atoms: C_1  and  C_2
REMARK    2  A    between atoms: C_5  and  C_6
REMARK    3  A    between atoms: C_6  and  O_7
REMARK    4  A    between atoms: O_7  and  C_8
REMARK                            x       y       z     vdW  Elec       q    Type
REMARK                         _______ _______ _______ _____ _____    ______ ____
ROOT
ATOM      1  C   UNL     1       2.260   7.134  19.105  0.00  0.00    +0.000 A 
ATOM      2  C   UNL     1       2.080   8.145  18.147  0.00  0.00    +0.000 A 
ATOM      3  C   UNL     1       1.493   9.368  18.497  0.00  0.00    +0.000 A 
ATOM      4  C   UNL     1       1.091   9.560  19.805  0.00  0.00    +0.000 A 
ATOM      5  S   UNL     1       0.333  10.969  20.514  0.00  0.00    +0.000 S 
ATOM      6  C   UNL     1       0.299  10.111  22.062  0.00  0.00    +0.000 A 
ATOM      7  O   UNL     1      -0.168  10.624  23.070  0.00  0.00    +0.000 OA
ATOM      8  O   UNL     1       0.836   8.825  22.054  0.00  0.00    +0.000 OA
ATOM      9  C   UNL     1       1.267   8.563  20.756  0.00  0.00    +0.000 A 
ATOM     10  C   UNL     1       1.850   7.349  20.425  0.00  0.00    +0.000 A 
ENDROOT
BRANCH   1  11
ATOM     11  O   UNL     1       2.820   5.906  18.871  0.00  0.00    +0.000 OA
BRANCH  11  12
ATOM     12  C   UNL     1       4.248   5.847  18.852  0.00  0.00    +0.000 C 
BRANCH  12  17
ATOM     13  C   UNL     1       6.223   4.045  13.676  0.00  0.00    +0.000 C 
ATOM     14  C   UNL     1       5.697   4.518  14.998  0.00  0.00    +0.000 A 
ATOM     15  C   UNL     1       5.443   5.873  15.231  0.00  0.00    +0.000 A 
ATOM     16  C   UNL     1       4.959   6.300  16.470  0.00  0.00    +0.000 A 
ATOM     17  C   UNL     1       4.721   5.378  17.499  0.00  0.00    +0.000 A 
ATOM     18  C   UNL     1       4.974   4.022  17.262  0.00  0.00    +0.000 A 
ATOM     19  C   UNL     1       5.457   3.595  16.023  0.00  0.00    +0.000 A 
ENDBRANCH  12  17
ENDBRANCH  11  12
ENDBRANCH   1  11
TORSDOF 3
ENDMDL
MODEL 6
REMARK VINA RESULT:      -7.0      4.125      6.949
REMARK  Name = 
REMARK  4 active torsions:
REMARK  status: ('A' for Active; 'I' for Inactive)
REMARK    1  A    between atoms: C_1  and  C_2
REMARK    2  A    between atoms: C_5  and  C_6
REMARK    3  A    between atoms: C_6  and  O_7
REMARK    4  A    between atoms: O_7  and  C_8
REMARK                            x       y       z     vdW  Elec       q    Type
REMARK                         _______ _______ _______ _____ _____    ______ ____
ROOT
ATOM      1  C   UNL     1       3.432   6.198  18.776  0.00  0.00    +0.000 A 
ATOM      2  C   UNL     1       4.165   5.348  19.622  0.00  0.00    +0.000 A 
ATOM      3  C   UNL     1       5.386   4.802  19.206  0.00  0.00    +0.000 A 
ATOM      4  C   UNL     1       5.856   5.112  17.944  0.00  0.00    +0.000 A 
ATOM      5  S   UNL     1       7.330   4.574  17.170  0.00  0.00    +0.000 S 
ATOM      6  C   UNL     1       6.872   5.524  15.748  0.00  0.00    +0.000 A 
ATOM      7  O   UNL     1       7.574   5.560  14.747  0.00  0.00    +0.000 OA
ATOM      8  O   UNL     1       5.669   6.220  15.846  0.00  0.00    +0.000 OA
ATOM      9  C   UNL     1       5.135   5.952  17.104  0.00  0.00    +0.000 A 
ATOM     10  C   UNL     1       3.927   6.503  17.504  0.00  0.00    +0.000 A 
ENDROOT
BRANCH   1  11
ATOM     11  O   UNL     1       2.232   6.783  19.081  0.00  0.00    +0.000 OA
BRANCH  11  12
ATOM     12  C   UNL     1       2.108   8.176  18.789  0.00  0.00    +0.000 C 
BRANCH  12  17
ATOM     13  C   UNL     1      -1.007  10.743  22.991  0.00  0.00    +0.000 C 
ATOM     14  C   UNL     1      -0.192  10.101  21.909  0.00  0.00    +0.000 A 
ATOM     15  C   UNL     1      -0.024  10.721  20.667  0.00  0.00    +0.000 A 
ATOM     16  C   UNL     1       0.732  10.107  19.665  0.00  0.00    +0.000 A 
ATOM     17  C   UNL     1       1.334   8.861  19.889  0.00  0.00    +0.000 A 
ATOM     18  C   UNL     1       1.166   8.243  21.134  0.00  0.00    +0.000 A 
ATOM     19  C   UNL     1       0.411   8.858  22.135  0.00  0.00    +0.000 A 
ENDBRANCH  12  17
ENDBRANCH  11  12
ENDBRANCH   1  11
TORSDOF 3
ENDMDL
MODEL 7
REMARK VINA RESULT:      -7.0      3.903      5.793
REMARK  Name = 
REMARK  4 active torsions:
REMARK  status: ('A' for Active; 'I' for Inactive)
REMARK    1  A    between atoms: C_1  and  C_2
REMARK    2  A    between atoms: C_5  and  C_6
REMARK    3  A    between atoms: C_6  and  O_7
REMARK    4  A    between atoms: O_7  and  C_8
REMARK                            x       y       z     vdW  Elec       q    Type
REMARK                         _______ _______ _______ _____ _____    ______ ____
ROOT
ATOM      1  C   UNL     1       7.862   7.012  18.268  0.00  0.00    +0.000 A 
ATOM      2  C   UNL     1       7.548   5.926  19.102  0.00  0.00    +0.000 A 
ATOM      3  C   UNL     1       6.853   4.817  18.603  0.00  0.00    +0.000 A 
ATOM      4  C   UNL     1       6.477   4.812  17.273  0.00  0.00    +0.000 A 
ATOM      5  S   UNL     1       5.606   3.576  16.393  0.00  0.00    +0.000 S 
ATOM      6  C   UNL     1       5.712   4.597  14.951  0.00  0.00    +0.000 A 
ATOM      7  O   UNL     1       5.230   4.250  13.882  0.00  0.00    +0.000 OA
ATOM      8  O   UNL     1       6.376   5.812  15.116  0.00  0.00    +0.000 OA
ATOM      9  C   UNL     1       6.786   5.884  16.444  0.00  0.00    +0.000 A 
ATOM     10  C   UNL     1       7.477   6.987  16.924  0.00  0.00    +0.000 A 
ENDROOT
BRANCH   1  11
ATOM     11  O   UNL     1       8.534   8.142  18.652  0.00  0.00    +0.000 OA
BRANCH  11  12
ATOM     12  C   UNL     1       8.236   9.339  17.932  0.00  0.00    +0.000 C 
BRANCH  12  17
ATOM     13  C   UNL     1      11.145  13.797  20.302  0.00  0.00    +0.000 C 
ATOM     14  C   UNL     1      10.382  12.650  19.709  0.00  0.00    +0.000 A 
ATOM     15  C   UNL     1      10.174  11.470  20.431  0.00  0.00    +0.000 A 
ATOM     16  C   UNL     1       9.467  10.407  19.863  0.00  0.00    +0.000 A 
ATOM     17  C   UNL     1       8.955  10.506  18.562  0.00  0.00    +0.000 A 
ATOM     18  C   UNL     1       9.163  11.689  17.842  0.00  0.00    +0.000 A 
ATOM     19  C   UNL     1       9.869  12.751  18.411  0.00  0.00    +0.000 A 
ENDBRANCH  12  17
ENDBRANCH  11  12
ENDBRANCH   1  11
TORSDOF 3
ENDMDL
MODEL 8
REMARK VINA RESULT:      -7.0      4.120      6.854
REMARK  Name = 
REMARK  4 active torsions:
REMARK  status: ('A' for Active; 'I' for Inactive)
REMARK    1  A    between atoms: C_1  and  C_2
REMARK    2  A    between atoms: C_5  and  C_6
REMARK    3  A    between atoms: C_6  and  O_7
REMARK    4  A    between atoms: O_7  and  C_8
REMARK                            x       y       z     vdW  Elec       q    Type
REMARK                         _______ _______ _______ _____ _____    ______ ____
ROOT
ATOM      1  C   UNL     1       3.453   6.188  18.743  0.00  0.00    +0.000 A 
ATOM      2  C   UNL     1       4.175   5.333  19.592  0.00  0.00    +0.000 A 
ATOM      3  C   UNL     1       5.399   4.786  19.186  0.00  0.00    +0.000 A 
ATOM      4  C   UNL     1       5.884   5.103  17.931  0.00  0.00    +0.000 A 
ATOM      5  S   UNL     1       7.365   4.567  17.170  0.00  0.00    +0.000 S 
ATOM      6  C   UNL     1       6.924   5.526  15.749  0.00  0.00    +0.000 A 
ATOM      7  O   UNL     1       7.637   5.567  14.756  0.00  0.00    +0.000 OA
ATOM      8  O   UNL     1       5.721   6.224  15.838  0.00  0.00    +0.000 OA
ATOM      9  C   UNL     1       5.174   5.950  17.089  0.00  0.00    +0.000 A 
ATOM     10  C   UNL     1       3.962   6.500  17.479  0.00  0.00    +0.000 A 
ENDROOT
BRANCH   1  11
ATOM     11  O   UNL     1       2.251   6.774  19.039  0.00  0.00    +0.000 OA
BRANCH  11  12
ATOM     12  C   UNL     1       2.129   8.167  18.745  0.00  0.00    +0.000 C 
BRANCH  12  17
ATOM     13  C   UNL     1      -0.927  10.866  22.907  0.00  0.00    +0.000 C 
ATOM     14  C   UNL     1      -0.154  10.153  21.839  0.00  0.00    +0.000 A 
ATOM     15  C   UNL     1       0.483   8.935  22.099  0.00  0.00    +0.000 A 
ATOM     16  C   UNL     1       1.207   8.286  21.095  0.00  0.00    +0.000 A 
ATOM     17  C   UNL     1       1.306   8.844  19.813  0.00  0.00    +0.000 A 
ATOM     18  C   UNL     1       0.665  10.062  19.555  0.00  0.00    +0.000 A 
ATOM     19  C   UNL     1      -0.058  10.710  20.558  0.00  0.00    +0.000 A 
ENDBRANCH  12  17
ENDBRANCH  11  12
ENDBRANCH   1  11
TORSDOF 3
ENDMDL
MODEL 9
REMARK VINA RESULT:      -7.0      4.342      5.562
REMARK  Name = 
REMARK  4 active torsions:
REMARK  status: ('A' for Active; 'I' for Inactive)
REMARK    1  A    between atoms: C_1  and  C_2
REMARK    2  A    between atoms: C_5  and  C_6
REMARK    3  A    between atoms: C_6  and  O_7
REMARK    4  A    between atoms: O_7  and  C_8
REMARK                            x       y       z     vdW  Elec       q    Type
REMARK                         _______ _______ _______ _____ _____    ______ ____
ROOT
ATOM      1  C   UNL     1       2.065   7.681  19.651  0.00  0.00    +0.000 A 
ATOM      2  C   UNL     1       1.785   8.609  18.634  0.00  0.00    +0.000 A 
ATOM      3  C   UNL     1       1.025   9.755  18.898  0.00  0.00    +0.000 A 
ATOM      4  C   UNL     1       0.552   9.956  20.181  0.00  0.00    +0.000 A 
ATOM      5  S   UNL     1      -0.417  11.281  20.788  0.00  0.00    +0.000 S 
ATOM      6  C   UNL     1      -0.391  10.506  22.379  0.00  0.00    +0.000 A 
ATOM      7  O   UNL     1      -0.961  10.999  23.343  0.00  0.00    +0.000 OA
ATOM      8  O   UNL     1       0.315   9.307  22.458  0.00  0.00    +0.000 OA
ATOM      9  C   UNL     1       0.826   9.042  21.190  0.00  0.00    +0.000 A 
ATOM     10  C   UNL     1       1.580   7.904  20.944  0.00  0.00    +0.000 A 
ENDROOT
BRANCH   1  11
ATOM     11  O   UNL     1       2.794   6.532  19.502  0.00  0.00    +0.000 OA
BRANCH  11  12
ATOM     12  C   UNL     1       2.427   5.677  18.418  0.00  0.00    +0.000 C 
BRANCH  12  17
ATOM     13  C   UNL     1       6.945   4.789  14.848  0.00  0.00    +0.000 C 
ATOM     14  C   UNL     1       5.792   5.005  15.782  0.00  0.00    +0.000 A 
ATOM     15  C   UNL     1       5.053   3.926  16.278  0.00  0.00    +0.000 A 
ATOM     16  C   UNL     1       3.977   4.142  17.142  0.00  0.00    +0.000 A 
ATOM     17  C   UNL     1       3.620   5.442  17.525  0.00  0.00    +0.000 A 
ATOM     18  C   UNL     1       4.363   6.520  17.030  0.00  0.00    +0.000 A 
ATOM     19  C   UNL     1       5.439   6.303  16.167  0.00  0.00    +0.000 A 
ENDBRANCH  12  17
ENDBRANCH  11  12
ENDBRANCH   1  11
TORSDOF 3
ENDMDL
