MODEL 1
REMARK VINA RESULT:      -9.2      0.000      0.000
REMARK  Name = 
REMARK  6 active torsions:
REMARK  status: ('A' for Active; 'I' for Inactive)
REMARK    1  A    between atoms: C_1  and  C_2
REMARK    2  A    between atoms: C_9  and  N_10
REMARK    3  A    between atoms: N_13  and  C_14
REMARK    4  A    between atoms: C_14  and  C_15
REMARK    5  A    between atoms: C_15  and  C_16
REMARK    6  A    between atoms: C_16  and  C_17
REMARK                            x       y       z     vdW  Elec       q    Type
REMARK                         _______ _______ _______ _____ _____    ______ ____
ROOT
ATOM      1  N   UNL     1       4.393   3.505  17.975  0.00  0.00    +0.000 N 
ATOM      2  C   UNL     1       3.002   3.875  17.605  0.00  0.00    +0.000 C 
ATOM      3  C   UNL     1       2.044   2.653  17.720  0.00  0.00    +0.000 C 
ATOM      4  N   UNL     1       2.034   1.924  19.016  0.00  0.00    +0.000 NA
ATOM      5  C   UNL     1       3.464   1.657  19.363  0.00  0.00    +0.000 C 
ATOM      6  C   UNL     1       4.420   2.889  19.325  0.00  0.00    +0.000 C 
ENDROOT
BRANCH   1  15
ATOM      7  C   UNL     1       5.423   3.463  12.720  0.00  0.00    +0.000 C 
ATOM      8  C   UNL     1       5.806   4.419  13.849  0.00  0.00    +0.000 C 
ATOM      9  C   UNL     1       7.307   4.671  13.828  0.00  0.00    +0.000 C 
ATOM     10  N   UNL     1       7.692   5.597  14.905  0.00  0.00    +0.000 N 
ATOM     11  C   UNL     1       7.029   5.515  16.136  0.00  0.00    +0.000 A 
ATOM     12  C   UNL     1       7.486   6.337  17.165  0.00  0.00    +0.000 A 
ATOM     13  C   UNL     1       6.919   6.239  18.448  0.00  0.00    +0.000 A 
ATOM     14  C   UNL     1       5.925   5.295  18.694  0.00  0.00    +0.000 A 
ATOM     15  C   UNL     1       5.428   4.427  17.701  0.00  0.00    +0.000 A 
ATOM     16  C   UNL     1       5.986   4.581  16.391  0.00  0.00    +0.000 A 
ATOM     17  C   UNL     1       5.440   3.802  15.210  0.00  0.00    +0.000 C 
ATOM     18  H   UNL     1       7.872   6.549  14.613  0.00  0.00    +0.000 HD
ENDBRANCH   1  15
BRANCH   4  19
ATOM     19  C   UNL     1       1.350   2.621  20.124  0.00  0.00    +0.000 C 
BRANCH  19  20
ATOM     20  C   UNL     1       1.133   4.150  20.039  0.00  0.00    +0.000 C 
BRANCH  20  21
ATOM     21  C   UNL     1       1.903   5.033  21.039  0.00  0.00    +0.000 C 
BRANCH  21  22
ATOM     22  C   UNL     1       1.720   6.505  20.743  0.00  0.00    +0.000 A 
ATOM     23  C   UNL     1       0.914   7.308  21.535  0.00  0.00    +0.000 A 
ATOM     24  N   UNL     1       1.123   8.589  21.125  0.00  0.00    +0.000 N 
ATOM     25  C   UNL     1       1.463   8.554  19.797  0.00  0.00    +0.000 A 
ATOM     26  C   UNL     1       1.281   9.505  18.790  0.00  0.00    +0.000 A 
ATOM     27  C   UNL     1       1.945   9.281  17.590  0.00  0.00    +0.000 A 
ATOM     28  C   UNL     1       2.844   8.220  17.477  0.00  0.00    +0.000 A 
ATOM     29  C   UNL     1       2.966   7.245  18.492  0.00  0.00    +0.000 A 
ATOM     30  C   UNL     1       2.153   7.350  19.641  0.00  0.00    +0.000 A 
ATOM     31  H   UNL     1       1.386   9.344  21.744  0.00  0.00    +0.000 HD
ENDBRANCH  21  22
ENDBRANCH  20  21
ENDBRANCH  19  20
ENDBRANCH   4  19
TORSDOF 5
ENDMDL
MODEL 2
REMARK VINA RESULT:      -8.9      1.094      1.931
REMARK  Name = 
REMARK  6 active torsions:
REMARK  status: ('A' for Active; 'I' for Inactive)
REMARK    1  A    between atoms: C_1  and  C_2
REMARK    2  A    between atoms: C_9  and  N_10
REMARK    3  A    between atoms: N_13  and  C_14
REMARK    4  A    between atoms: C_14  and  C_15
REMARK    5  A    between atoms: C_15  and  C_16
REMARK    6  A    between atoms: C_16  and  C_17
REMARK                            x       y       z     vdW  Elec       q    Type
REMARK                         _______ _______ _______ _____ _____    ______ ____
ROOT
ATOM      1  N   UNL     1       4.223   3.783  18.081  0.00  0.00    +0.000 N 
ATOM      2  C   UNL     1       2.860   4.334  17.862  0.00  0.00    +0.000 C 
ATOM      3  C   UNL     1       1.778   3.222  17.980  0.00  0.00    +0.000 C 
ATOM      4  N   UNL     1       1.785   2.401  19.219  0.00  0.00    +0.000 NA
ATOM      5  C   UNL     1       3.197   1.950  19.419  0.00  0.00    +0.000 C 
ATOM      6  C   UNL     1       4.285   3.066  19.379  0.00  0.00    +0.000 C 
ENDROOT
BRANCH   1  15
ATOM      7  C   UNL     1       5.172   3.561  12.816  0.00  0.00    +0.000 C 
ATOM      8  C   UNL     1       5.658   4.496  13.923  0.00  0.00    +0.000 C 
ATOM      9  C   UNL     1       7.175   4.609  13.880  0.00  0.00    +0.000 C 
ATOM     10  N   UNL     1       7.657   5.513  14.935  0.00  0.00    +0.000 N 
ATOM     11  C   UNL     1       7.007   5.512  16.176  0.00  0.00    +0.000 A 
ATOM     12  C   UNL     1       7.551   6.306  17.184  0.00  0.00    +0.000 A 
ATOM     13  C   UNL     1       6.995   6.281  18.475  0.00  0.00    +0.000 A 
ATOM     14  C   UNL     1       5.922   5.437  18.751  0.00  0.00    +0.000 A 
ATOM     15  C   UNL     1       5.335   4.602  17.779  0.00  0.00    +0.000 A 
ATOM     16  C   UNL     1       5.886   4.682  16.459  0.00  0.00    +0.000 A 
ATOM     17  C   UNL     1       5.255   3.938  15.298  0.00  0.00    +0.000 C 
ATOM     18  H   UNL     1       7.920   6.440  14.624  0.00  0.00    +0.000 HD
ENDBRANCH   1  15
BRANCH   4  19
ATOM     19  C   UNL     1       1.279   3.084  20.428  0.00  0.00    +0.000 C 
BRANCH  19  20
ATOM     20  C   UNL     1       0.901   4.581  20.351  0.00  0.00    +0.000 C 
BRANCH  20  21
ATOM     21  C   UNL     1       1.914   5.599  20.906  0.00  0.00    +0.000 C 
BRANCH  21  22
ATOM     22  C   UNL     1       1.608   7.005  20.440  0.00  0.00    +0.000 A 
ATOM     23  C   UNL     1       2.268   7.571  19.360  0.00  0.00    +0.000 A 
ATOM     24  N   UNL     1       1.629   8.741  19.086  0.00  0.00    +0.000 N 
ATOM     25  C   UNL     1       1.094   9.210  20.258  0.00  0.00    +0.000 A 
ATOM     26  C   UNL     1       0.819  10.518  20.669  0.00  0.00    +0.000 A 
ATOM     27  C   UNL     1       0.056  10.664  21.821  0.00  0.00    +0.000 A 
ATOM     28  C   UNL     1      -0.501   9.543  22.437  0.00  0.00    +0.000 A 
ATOM     29  C   UNL     1      -0.161   8.233  22.032  0.00  0.00    +0.000 A 
ATOM     30  C   UNL     1       0.769   8.062  20.983  0.00  0.00    +0.000 A 
ATOM     31  H   UNL     1       1.267   8.987  18.175  0.00  0.00    +0.000 HD
ENDBRANCH  21  22
ENDBRANCH  20  21
ENDBRANCH  19  20
ENDBRANCH   4  19
TORSDOF 5
ENDMDL
MODEL 3
REMARK VINA RESULT:      -8.6      4.228      7.722
REMARK  Name = 
REMARK  6 active torsions:
REMARK  status: ('A' for Active; 'I' for Inactive)
REMARK    1  A    between atoms: C_1  and  C_2
REMARK    2  A    between atoms: C_9  and  N_10
REMARK    3  A    between atoms: N_13  and  C_14
REMARK    4  A    between atoms: C_14  and  C_15
REMARK    5  A    between atoms: C_15  and  C_16
REMARK    6  A    between atoms: C_16  and  C_17
REMARK                            x       y       z     vdW  Elec       q    Type
REMARK                         _______ _______ _______ _____ _____    ______ ____
ROOT
ATOM      1  N   UNL     1       5.263   4.284  17.728  0.00  0.00    +0.000 N 
ATOM      2  C   UNL     1       6.206   4.788  18.760  0.00  0.00    +0.000 C 
ATOM      3  C   UNL     1       7.563   5.210  18.127  0.00  0.00    +0.000 C 
ATOM      4  N   UNL     1       7.510   6.171  16.994  0.00  0.00    +0.000 NA
ATOM      5  C   UNL     1       6.488   5.643  16.038  0.00  0.00    +0.000 C 
ATOM      6  C   UNL     1       5.097   5.288  16.648  0.00  0.00    +0.000 C 
ENDROOT
BRANCH   1  15
ATOM      7  C   UNL     1       2.143   7.856  20.214  0.00  0.00    +0.000 C 
ATOM      8  C   UNL     1       1.887   6.453  19.667  0.00  0.00    +0.000 C 
ATOM      9  C   UNL     1       1.226   5.592  20.734  0.00  0.00    +0.000 C 
ATOM     10  N   UNL     1       0.965   4.238  20.219  0.00  0.00    +0.000 N 
ATOM     11  C   UNL     1       1.895   3.655  19.350  0.00  0.00    +0.000 A 
ATOM     12  C   UNL     1       1.668   2.335  18.962  0.00  0.00    +0.000 A 
ATOM     13  C   UNL     1       2.610   1.666  18.161  0.00  0.00    +0.000 A 
ATOM     14  C   UNL     1       3.784   2.314  17.786  0.00  0.00    +0.000 A 
ATOM     15  C   UNL     1       4.079   3.642  18.155  0.00  0.00    +0.000 A 
ATOM     16  C   UNL     1       3.081   4.320  18.928  0.00  0.00    +0.000 A 
ATOM     17  C   UNL     1       3.218   5.790  19.271  0.00  0.00    +0.000 C 
ATOM     18  H   UNL     1       0.004   4.052  19.958  0.00  0.00    +0.000 HD
ENDBRANCH   1  15
BRANCH   4  19
ATOM     19  C   UNL     1       7.200   7.567  17.369  0.00  0.00    +0.000 C 
BRANCH  19  20
ATOM     20  C   UNL     1       8.246   8.391  18.155  0.00  0.00    +0.000 C 
BRANCH  20  21
ATOM     21  C   UNL     1       8.198   9.923  18.010  0.00  0.00    +0.000 C 
BRANCH  21  22
ATOM     22  C   UNL     1       9.246  10.600  18.866  0.00  0.00    +0.000 A 
ATOM     23  C   UNL     1       9.145  10.627  20.248  0.00  0.00    +0.000 A 
ATOM     24  N   UNL     1      10.323  11.125  20.712  0.00  0.00    +0.000 N 
ATOM     25  C   UNL     1      10.830  11.965  19.754  0.00  0.00    +0.000 A 
ATOM     26  C   UNL     1      11.662  13.081  19.875  0.00  0.00    +0.000 A 
ATOM     27  C   UNL     1      12.201  13.590  18.700  0.00  0.00    +0.000 A 
ATOM     28  C   UNL     1      12.006  12.918  17.493  0.00  0.00    +0.000 A 
ATOM     29  C   UNL     1      11.116  11.825  17.392  0.00  0.00    +0.000 A 
ATOM     30  C   UNL     1      10.408  11.413  18.542  0.00  0.00    +0.000 A 
ATOM     31  H   UNL     1      10.899  10.663  21.403  0.00  0.00    +0.000 HD
ENDBRANCH  21  22
ENDBRANCH  20  21
ENDBRANCH  19  20
ENDBRANCH   4  19
TORSDOF 5
ENDMDL
MODEL 4
REMARK VINA RESULT:      -8.1      4.470      6.764
REMARK  Name = 
REMARK  6 active torsions:
REMARK  status: ('A' for Active; 'I' for Inactive)
REMARK    1  A    between atoms: C_1  and  C_2
REMARK    2  A    between atoms: C_9  and  N_10
REMARK    3  A    between atoms: N_13  and  C_14
REMARK    4  A    between atoms: C_14  and  C_15
REMARK    5  A    between atoms: C_15  and  C_16
REMARK    6  A    between atoms: C_16  and  C_17
REMARK                            x       y       z     vdW  Elec       q    Type
REMARK                         _______ _______ _______ _____ _____    ______ ____
ROOT
ATOM      1  N   UNL     1       2.447   7.294  18.646  0.00  0.00    +0.000 N 
ATOM      2  C   UNL     1       1.733   7.363  19.948  0.00  0.00    +0.000 C 
ATOM      3  C   UNL     1       1.633   8.829  20.459  0.00  0.00    +0.000 C 
ATOM      4  N   UNL     1       1.055   9.832  19.525  0.00  0.00    +0.000 NA
ATOM      5  C   UNL     1       1.763   9.651  18.220  0.00  0.00    +0.000 C 
ATOM      6  C   UNL     1       1.804   8.196  17.659  0.00  0.00    +0.000 C 
ENDROOT
BRANCH   1  15
ATOM      7  C   UNL     1       7.699   7.348  17.603  0.00  0.00    +0.000 C 
ATOM      8  C   UNL     1       6.676   6.222  17.736  0.00  0.00    +0.000 C 
ATOM      9  C   UNL     1       6.758   5.300  16.528  0.00  0.00    +0.000 C 
ATOM     10  N   UNL     1       5.784   4.204  16.646  0.00  0.00    +0.000 N 
ATOM     11  C   UNL     1       4.534   4.469  17.219  0.00  0.00    +0.000 A 
ATOM     12  C   UNL     1       3.599   3.435  17.223  0.00  0.00    +0.000 A 
ATOM     13  C   UNL     1       2.298   3.665  17.705  0.00  0.00    +0.000 A 
ATOM     14  C   UNL     1       1.939   4.936  18.147  0.00  0.00    +0.000 A 
ATOM     15  C   UNL     1       2.833   6.025  18.157  0.00  0.00    +0.000 A 
ATOM     16  C   UNL     1       4.166   5.754  17.709  0.00  0.00    +0.000 A 
ATOM     17  C   UNL     1       5.254   6.805  17.800  0.00  0.00    +0.000 C 
ATOM     18  H   UNL     1       6.169   3.310  16.926  0.00  0.00    +0.000 HD
ENDBRANCH   1  15
BRANCH   4  19
ATOM     19  C   UNL     1      -0.409   9.748  19.341  0.00  0.00    +0.000 C 
BRANCH  19  20
ATOM     20  C   UNL     1      -1.113  10.753  18.400  0.00  0.00    +0.000 C 
BRANCH  20  21
ATOM     21  C   UNL     1      -2.166  11.690  19.020  0.00  0.00    +0.000 C 
BRANCH  21  22
ATOM     22  C   UNL     1      -3.488  11.608  18.292  0.00  0.00    +0.000 A 
ATOM     23  C   UNL     1      -3.551  11.366  16.928  0.00  0.00    +0.000 A 
ATOM     24  N   UNL     1      -4.862  11.158  16.631  0.00  0.00    +0.000 N 
ATOM     25  C   UNL     1      -5.613  11.867  17.532  0.00  0.00    +0.000 A 
ATOM     26  C   UNL     1      -6.889  12.426  17.408  0.00  0.00    +0.000 A 
ATOM     27  C   UNL     1      -7.487  12.885  18.575  0.00  0.00    +0.000 A 
ATOM     28  C   UNL     1      -6.873  12.664  19.809  0.00  0.00    +0.000 A 
ATOM     29  C   UNL     1      -5.562  12.147  19.898  0.00  0.00    +0.000 A 
ATOM     30  C   UNL     1      -4.860  11.855  18.708  0.00  0.00    +0.000 A 
ATOM     31  H   UNL     1      -5.208  10.343  16.143  0.00  0.00    +0.000 HD
ENDBRANCH  21  22
ENDBRANCH  20  21
ENDBRANCH  19  20
ENDBRANCH   4  19
TORSDOF 5
ENDMDL
MODEL 5
REMARK VINA RESULT:      -8.1      4.229      6.542
REMARK  Name = 
REMARK  6 active torsions:
REMARK  status: ('A' for Active; 'I' for Inactive)
REMARK    1  A    between atoms: C_1  and  C_2
REMARK    2  A    between atoms: C_9  and  N_10
REMARK    3  A    between atoms: N_13  and  C_14
REMARK    4  A    between atoms: C_14  and  C_15
REMARK    5  A    between atoms: C_15  and  C_16
REMARK    6  A    between atoms: C_16  and  C_17
REMARK                            x       y       z     vdW  Elec       q    Type
REMARK                         _______ _______ _______ _____ _____    ______ ____
ROOT
ATOM      1  N   UNL     1       2.486   7.183  18.660  0.00  0.00    +0.000 N 
ATOM      2  C   UNL     1       1.689   7.266  19.912  0.00  0.00    +0.000 C 
ATOM      3  C   UNL     1       1.669   8.719  20.471  0.00  0.00    +0.000 C 
ATOM      4  N   UNL     1       1.240   9.795  19.540  0.00  0.00    +0.000 NA
ATOM      5  C   UNL     1       2.022   9.601  18.280  0.00  0.00    +0.000 C 
ATOM      6  C   UNL     1       1.988   8.167  17.667  0.00  0.00    +0.000 C 
ENDROOT
BRANCH   1  15
ATOM      7  C   UNL     1       7.759   6.920  17.768  0.00  0.00    +0.000 C 
ATOM      8  C   UNL     1       6.662   5.859  17.843  0.00  0.00    +0.000 C 
ATOM      9  C   UNL     1       6.721   4.963  16.614  0.00  0.00    +0.000 C 
ATOM     10  N   UNL     1       5.674   3.930  16.676  0.00  0.00    +0.000 N 
ATOM     11  C   UNL     1       4.428   4.263  17.220  0.00  0.00    +0.000 A 
ATOM     12  C   UNL     1       3.428   3.292  17.172  0.00  0.00    +0.000 A 
ATOM     13  C   UNL     1       2.132   3.594  17.623  0.00  0.00    +0.000 A 
ATOM     14  C   UNL     1       1.842   4.875  18.086  0.00  0.00    +0.000 A 
ATOM     15  C   UNL     1       2.803   5.904  18.150  0.00  0.00    +0.000 A 
ATOM     16  C   UNL     1       4.129   5.557  17.732  0.00  0.00    +0.000 A 
ATOM     17  C   UNL     1       5.279   6.533  17.882  0.00  0.00    +0.000 C 
ATOM     18  H   UNL     1       5.992   3.007  16.944  0.00  0.00    +0.000 HD
ENDBRANCH   1  15
BRANCH   4  19
ATOM     19  C   UNL     1      -0.209   9.838  19.253  0.00  0.00    +0.000 C 
BRANCH  19  20
ATOM     20  C   UNL     1      -0.775  10.981  18.379  0.00  0.00    +0.000 C 
BRANCH  20  21
ATOM     21  C   UNL     1      -2.208  10.819  17.840  0.00  0.00    +0.000 C 
BRANCH  21  22
ATOM     22  C   UNL     1      -3.200  11.647  18.626  0.00  0.00    +0.000 A 
ATOM     23  C   UNL     1      -2.796  12.459  19.675  0.00  0.00    +0.000 A 
ATOM     24  N   UNL     1      -3.880  13.202  20.028  0.00  0.00    +0.000 N 
ATOM     25  C   UNL     1      -5.003  12.471  19.736  0.00  0.00    +0.000 A 
ATOM     26  C   UNL     1      -6.271  12.486  20.323  0.00  0.00    +0.000 A 
ATOM     27  C   UNL     1      -7.277  11.798  19.655  0.00  0.00    +0.000 A 
ATOM     28  C   UNL     1      -7.029  11.244  18.398  0.00  0.00    +0.000 A 
ATOM     29  C   UNL     1      -5.725  11.198  17.856  0.00  0.00    +0.000 A 
ATOM     30  C   UNL     1      -4.653  11.721  18.612  0.00  0.00    +0.000 A 
ATOM     31  H   UNL     1      -3.877  14.211  20.089  0.00  0.00    +0.000 HD
ENDBRANCH  21  22
ENDBRANCH  20  21
ENDBRANCH  19  20
ENDBRANCH   4  19
TORSDOF 5
ENDMDL
MODEL 6
REMARK VINA RESULT:      -8.0      4.408      7.719
REMARK  Name = 
REMARK  6 active torsions:
REMARK  status: ('A' for Active; 'I' for Inactive)
REMARK    1  A    between atoms: C_1  and  C_2
REMARK    2  A    between atoms: C_9  and  N_10
REMARK    3  A    between atoms: N_13  and  C_14
REMARK    4  A    between atoms: C_14  and  C_15
REMARK    5  A    between atoms: C_15  and  C_16
REMARK    6  A    between atoms: C_16  and  C_17
REMARK                            x       y       z     vdW  Elec       q    Type
REMARK                         _______ _______ _______ _____ _____    ______ ____
ROOT
ATOM      1  N   UNL     1       5.530   4.536  17.984  0.00  0.00    +0.000 N 
ATOM      2  C   UNL     1       6.301   5.105  19.121  0.00  0.00    +0.000 C 
ATOM      3  C   UNL     1       7.691   5.627  18.654  0.00  0.00    +0.000 C 
ATOM      4  N   UNL     1       7.706   6.585  17.518  0.00  0.00    +0.000 NA
ATOM      5  C   UNL     1       6.850   5.986  16.448  0.00  0.00    +0.000 C 
ATOM      6  C   UNL     1       5.425   5.529  16.886  0.00  0.00    +0.000 C 
ENDROOT
BRANCH   1  15
ATOM      7  C   UNL     1       2.002   7.784  20.367  0.00  0.00    +0.000 C 
ATOM      8  C   UNL     1       1.877   6.403  19.724  0.00  0.00    +0.000 C 
ATOM      9  C   UNL     1       1.177   5.447  20.679  0.00  0.00    +0.000 C 
ATOM     10  N   UNL     1       1.042   4.114  20.071  0.00  0.00    +0.000 N 
ATOM     11  C   UNL     1       2.077   3.633  19.259  0.00  0.00    +0.000 A 
ATOM     12  C   UNL     1       1.962   2.329  18.781  0.00  0.00    +0.000 A 
ATOM     13  C   UNL     1       3.008   1.759  18.034  0.00  0.00    +0.000 A 
ATOM     14  C   UNL     1       4.170   2.490  17.802  0.00  0.00    +0.000 A 
ATOM     15  C   UNL     1       4.353   3.808  18.268  0.00  0.00    +0.000 A 
ATOM     16  C   UNL     1       3.254   4.384  18.983  0.00  0.00    +0.000 A 
ATOM     17  C   UNL     1       3.274   5.837  19.415  0.00  0.00    +0.000 C 
ATOM     18  H   UNL     1       0.120   3.892  19.715  0.00  0.00    +0.000 HD
ENDBRANCH   1  15
BRANCH   4  19
ATOM     19  C   UNL     1       7.252   7.953  17.845  0.00  0.00    +0.000 C 
BRANCH  19  20
ATOM     20  C   UNL     1       8.146   9.159  17.471  0.00  0.00    +0.000 C 
BRANCH  20  21
ATOM     21  C   UNL     1       8.860   9.896  18.619  0.00  0.00    +0.000 C 
BRANCH  21  22
ATOM     22  C   UNL     1       9.573  11.137  18.130  0.00  0.00    +0.000 A 
ATOM     23  C   UNL     1      10.951  11.171  17.987  0.00  0.00    +0.000 A 
ATOM     24  N   UNL     1      11.246  12.338  17.352  0.00  0.00    +0.000 N 
ATOM     25  C   UNL     1      10.275  13.250  17.679  0.00  0.00    +0.000 A 
ATOM     26  C   UNL     1      10.331  14.644  17.758  0.00  0.00    +0.000 A 
ATOM     27  C   UNL     1       9.120  15.312  17.885  0.00  0.00    +0.000 A 
ATOM     28  C   UNL     1       7.920  14.606  17.802  0.00  0.00    +0.000 A 
ATOM     29  C   UNL     1       7.895  13.194  17.776  0.00  0.00    +0.000 A 
ATOM     30  C   UNL     1       9.116  12.488  17.843  0.00  0.00    +0.000 A 
ATOM     31  H   UNL     1      11.799  12.397  16.507  0.00  0.00    +0.000 HD
ENDBRANCH  21  22
ENDBRANCH  20  21
ENDBRANCH  19  20
ENDBRANCH   4  19
TORSDOF 5
ENDMDL
MODEL 7
REMARK VINA RESULT:      -8.0      4.560      7.041
REMARK  Name = 
REMARK  6 active torsions:
REMARK  status: ('A' for Active; 'I' for Inactive)
REMARK    1  A    between atoms: C_1  and  C_2
REMARK    2  A    between atoms: C_9  and  N_10
REMARK    3  A    between atoms: N_13  and  C_14
REMARK    4  A    between atoms: C_14  and  C_15
REMARK    5  A    between atoms: C_15  and  C_16
REMARK    6  A    between atoms: C_16  and  C_17
REMARK                            x       y       z     vdW  Elec       q    Type
REMARK                         _______ _______ _______ _____ _____    ______ ____
ROOT
ATOM      1  N   UNL     1       2.374   7.476  19.428  0.00  0.00    +0.000 N 
ATOM      2  C   UNL     1       1.462   8.097  20.424  0.00  0.00    +0.000 C 
ATOM      3  C   UNL     1       1.387   9.640  20.236  0.00  0.00    +0.000 C 
ATOM      4  N   UNL     1       1.048  10.139  18.877  0.00  0.00    +0.000 NA
ATOM      5  C   UNL     1       1.946   9.416  17.925  0.00  0.00    +0.000 C 
ATOM      6  C   UNL     1       1.972   7.861  18.052  0.00  0.00    +0.000 C 
ENDROOT
BRANCH   1  15
ATOM      7  C   UNL     1       7.241   6.698  17.333  0.00  0.00    +0.000 C 
ATOM      8  C   UNL     1       6.365   5.867  18.269  0.00  0.00    +0.000 C 
ATOM      9  C   UNL     1       6.248   4.443  17.743  0.00  0.00    +0.000 C 
ATOM     10  N   UNL     1       5.414   3.627  18.639  0.00  0.00    +0.000 N 
ATOM     11  C   UNL     1       4.307   4.219  19.258  0.00  0.00    +0.000 A 
ATOM     12  C   UNL     1       3.481   3.394  20.019  0.00  0.00    +0.000 A 
ATOM     13  C   UNL     1       2.307   3.911  20.594  0.00  0.00    +0.000 A 
ATOM     14  C   UNL     1       1.955   5.240  20.372  0.00  0.00    +0.000 A 
ATOM     15  C   UNL     1       2.740   6.123  19.603  0.00  0.00    +0.000 A 
ATOM     16  C   UNL     1       3.957   5.587  19.071  0.00  0.00    +0.000 A 
ATOM     17  C   UNL     1       4.952   6.470  18.343  0.00  0.00    +0.000 C 
ATOM     18  H   UNL     1       5.921   2.997  19.248  0.00  0.00    +0.000 HD
ENDBRANCH   1  15
BRANCH   4  19
ATOM     19  C   UNL     1      -0.367   9.978  18.484  0.00  0.00    +0.000 C 
BRANCH  19  20
ATOM     20  C   UNL     1      -1.186  11.223  18.069  0.00  0.00    +0.000 C 
BRANCH  20  21
ATOM     21  C   UNL     1      -2.329  11.664  19.001  0.00  0.00    +0.000 C 
BRANCH  21  22
ATOM     22  C   UNL     1      -3.669  11.629  18.301  0.00  0.00    +0.000 A 
ATOM     23  C   UNL     1      -3.765  11.440  16.931  0.00  0.00    +0.000 A 
ATOM     24  N   UNL     1      -5.086  11.263  16.657  0.00  0.00    +0.000 N 
ATOM     25  C   UNL     1      -5.806  11.949  17.601  0.00  0.00    +0.000 A 
ATOM     26  C   UNL     1      -7.075  12.531  17.527  0.00  0.00    +0.000 A 
ATOM     27  C   UNL     1      -7.639  12.954  18.724  0.00  0.00    +0.000 A 
ATOM     28  C   UNL     1      -7.001  12.678  19.934  0.00  0.00    +0.000 A 
ATOM     29  C   UNL     1      -5.697  12.138  19.974  0.00  0.00    +0.000 A 
ATOM     30  C   UNL     1      -5.026  11.881  18.758  0.00  0.00    +0.000 A 
ATOM     31  H   UNL     1      -5.456  10.472  16.146  0.00  0.00    +0.000 HD
ENDBRANCH  21  22
ENDBRANCH  20  21
ENDBRANCH  19  20
ENDBRANCH   4  19
TORSDOF 5
ENDMDL
MODEL 8
REMARK VINA RESULT:      -8.0      4.138      7.706
REMARK  Name = 
REMARK  6 active torsions:
REMARK  status: ('A' for Active; 'I' for Inactive)
REMARK    1  A    between atoms: C_1  and  C_2
REMARK    2  A    between atoms: C_9  and  N_10
REMARK    3  A    between atoms: N_13  and  C_14
REMARK    4  A    between atoms: C_14  and  C_15
REMARK    5  A    between atoms: C_15  and  C_16
REMARK    6  A    between atoms: C_16  and  C_17
REMARK                            x       y       z     vdW  Elec       q    Type
REMARK                         _______ _______ _______ _____ _____    ______ ____
ROOT
ATOM      1  N   UNL     1       5.056   4.432  17.491  0.00  0.00    +0.000 N 
ATOM      2  C   UNL     1       6.306   4.633  18.270  0.00  0.00    +0.000 C 
ATOM      3  C   UNL     1       7.449   5.184  17.369  0.00  0.00    +0.000 C 
ATOM      4  N   UNL     1       7.156   6.410  16.580  0.00  0.00    +0.000 NA
ATOM      5  C   UNL     1       5.852   6.167  15.890  0.00  0.00    +0.000 C 
ATOM      6  C   UNL     1       4.676   5.687  16.796  0.00  0.00    +0.000 C 
ENDROOT
BRANCH   1  15
ATOM      7  C   UNL     1       1.998   7.859  20.244  0.00  0.00    +0.000 C 
ATOM      8  C   UNL     1       1.792   6.416  19.785  0.00  0.00    +0.000 C 
ATOM      9  C   UNL     1       1.349   5.556  20.960  0.00  0.00    +0.000 C 
ATOM     10  N   UNL     1       1.137   4.164  20.532  0.00  0.00    +0.000 N 
ATOM     11  C   UNL     1       1.993   3.616  19.568  0.00  0.00    +0.000 A 
ATOM     12  C   UNL     1       1.828   2.267  19.260  0.00  0.00    +0.000 A 
ATOM     13  C   UNL     1       2.711   1.637  18.365  0.00  0.00    +0.000 A 
ATOM     14  C   UNL     1       3.768   2.358  17.815  0.00  0.00    +0.000 A 
ATOM     15  C   UNL     1       3.996   3.720  18.095  0.00  0.00    +0.000 A 
ATOM     16  C   UNL     1       3.054   4.352  18.969  0.00  0.00    +0.000 A 
ATOM     17  C   UNL     1       3.110   5.843  19.239  0.00  0.00    +0.000 C 
ATOM     18  H   UNL     1       0.170   3.892  20.408  0.00  0.00    +0.000 HD
ENDBRANCH   1  15
BRANCH   4  19
ATOM     19  C   UNL     1       7.107   7.663  17.362  0.00  0.00    +0.000 C 
BRANCH  19  20
ATOM     20  C   UNL     1       8.399   8.495  17.544  0.00  0.00    +0.000 C 
BRANCH  20  21
ATOM     21  C   UNL     1       8.445   9.485  18.722  0.00  0.00    +0.000 C 
BRANCH  21  22
ATOM     22  C   UNL     1       8.840  10.874  18.272  0.00  0.00    +0.000 A 
ATOM     23  C   UNL     1       8.043  11.609  17.409  0.00  0.00    +0.000 A 
ATOM     24  N   UNL     1       8.572  12.863  17.366  0.00  0.00    +0.000 N 
ATOM     25  C   UNL     1       9.919  12.756  17.599  0.00  0.00    +0.000 A 
ATOM     26  C   UNL     1      10.978  13.566  17.178  0.00  0.00    +0.000 A 
ATOM     27  C   UNL     1      12.213  13.337  17.772  0.00  0.00    +0.000 A 
ATOM     28  C   UNL     1      12.326  12.428  18.824  0.00  0.00    +0.000 A 
ATOM     29  C   UNL     1      11.252  11.586  19.190  0.00  0.00    +0.000 A 
ATOM     30  C   UNL     1      10.043  11.668  18.466  0.00  0.00    +0.000 A 
ATOM     31  H   UNL     1       8.044  13.705  17.547  0.00  0.00    +0.000 HD
ENDBRANCH  21  22
ENDBRANCH  20  21
ENDBRANCH  19  20
ENDBRANCH   4  19
TORSDOF 5
ENDMDL
MODEL 9
REMARK VINA RESULT:      -7.9      4.103      6.383
REMARK  Name = 
REMARK  6 active torsions:
REMARK  status: ('A' for Active; 'I' for Inactive)
REMARK    1  A    between atoms: C_1  and  C_2
REMARK    2  A    between atoms: C_9  and  N_10
REMARK    3  A    between atoms: N_13  and  C_14
REMARK    4  A    between atoms: C_14  and  C_15
REMARK    5  A    between atoms: C_15  and  C_16
REMARK    6  A    between atoms: C_16  and  C_17
REMARK                            x       y       z     vdW  Elec       q    Type
REMARK                         _______ _______ _______ _____ _____    ______ ____
ROOT
ATOM      1  N   UNL     1       2.413   7.141  18.799  0.00  0.00    +0.000 N 
ATOM      2  C   UNL     1       1.812   7.127  20.158  0.00  0.00    +0.000 C 
ATOM      3  C   UNL     1       1.755   8.559  20.764  0.00  0.00    +0.000 C 
ATOM      4  N   UNL     1       1.100   9.614  19.946  0.00  0.00    +0.000 NA
ATOM      5  C   UNL     1       1.695   9.516  18.577  0.00  0.00    +0.000 C 
ATOM      6  C   UNL     1       1.688   8.098  17.926  0.00  0.00    +0.000 C 
ENDROOT
BRANCH   1  15
ATOM      7  C   UNL     1       7.602   7.221  17.480  0.00  0.00    +0.000 C 
ATOM      8  C   UNL     1       6.573   6.097  17.589  0.00  0.00    +0.000 C 
ATOM      9  C   UNL     1       6.579   5.261  16.317  0.00  0.00    +0.000 C 
ATOM     10  N   UNL     1       5.598   4.168  16.411  0.00  0.00    +0.000 N 
ATOM     11  C   UNL     1       4.384   4.404  17.068  0.00  0.00    +0.000 A 
ATOM     12  C   UNL     1       3.437   3.381  17.051  0.00  0.00    +0.000 A 
ATOM     13  C   UNL     1       2.167   3.588  17.618  0.00  0.00    +0.000 A 
ATOM     14  C   UNL     1       1.848   4.828  18.165  0.00  0.00    +0.000 A 
ATOM     15  C   UNL     1       2.755   5.906  18.203  0.00  0.00    +0.000 A 
ATOM     16  C   UNL     1       4.059   5.655  17.665  0.00  0.00    +0.000 A 
ATOM     17  C   UNL     1       5.164   6.688  17.771  0.00  0.00    +0.000 C 
ATOM     18  H   UNL     1       5.985   3.254  16.607  0.00  0.00    +0.000 HD
ENDBRANCH   1  15
BRANCH   4  19
ATOM     19  C   UNL     1      -0.374   9.534  19.881  0.00  0.00    +0.000 C 
BRANCH  19  20
ATOM     20  C   UNL     1      -1.137  10.410  18.860  0.00  0.00    +0.000 C 
BRANCH  20  21
ATOM     21  C   UNL     1      -1.756   9.703  17.641  0.00  0.00    +0.000 C 
BRANCH  21  22
ATOM     22  C   UNL     1      -2.923  10.480  17.074  0.00  0.00    +0.000 A 
ATOM     23  C   UNL     1      -2.776  11.308  15.972  0.00  0.00    +0.000 A 
ATOM     24  N   UNL     1      -4.029  11.691  15.606  0.00  0.00    +0.000 N 
ATOM     25  C   UNL     1      -4.812  11.694  16.731  0.00  0.00    +0.000 A 
ATOM     26  C   UNL     1      -5.943  12.452  17.046  0.00  0.00    +0.000 A 
ATOM     27  C   UNL     1      -6.664  12.064  18.169  0.00  0.00    +0.000 A 
ATOM     28  C   UNL     1      -6.322  10.894  18.848  0.00  0.00    +0.000 A 
ATOM     29  C   UNL     1      -5.143  10.179  18.540  0.00  0.00    +0.000 A 
ATOM     30  C   UNL     1      -4.293  10.670  17.526  0.00  0.00    +0.000 A 
ATOM     31  H   UNL     1      -4.402  11.583  14.672  0.00  0.00    +0.000 HD
ENDBRANCH  21  22
ENDBRANCH  20  21
ENDBRANCH  19  20
ENDBRANCH   4  19
TORSDOF 5
ENDMDL
