MODEL 1
REMARK VINA RESULT:      -7.2      0.000      0.000
REMARK  Name = 
REMARK  5 active torsions:
REMARK  status: ('A' for Active; 'I' for Inactive)
REMARK    1  A    between atoms: C_1  and  C_2
REMARK    2  A    between atoms: C_6  and  C_7
REMARK    3  A    between atoms: N_9  and  C_10
REMARK    4  A    between atoms: C_10  and  C_11
REMARK    5  A    between atoms: C_11  and  N_12
REMARK                            x       y       z     vdW  Elec       q    Type
REMARK                         _______ _______ _______ _____ _____    ______ ____
ROOT
ATOM      1  C   UNL     1       3.578   7.283  17.719  0.00  0.00    +0.000 C 
ATOM      2  C   UNL     1       3.445   6.028  18.501  0.00  0.00    +0.000 A 
ATOM      3  O   UNL     1       2.231   5.886  19.102  0.00  0.00    +0.000 OA
ATOM      4  C   UNL     1       2.265   4.713  19.758  0.00  0.00    +0.000 A 
ATOM      5  C   UNL     1       3.471   4.075  19.597  0.00  0.00    +0.000 A 
ATOM      6  C   UNL     1       4.270   4.929  18.768  0.00  0.00    +0.000 A 
ATOM      7  C   UNL     1       3.673   2.784  20.230  0.00  0.00    +0.000 C 
ATOM      8  O   UNL     1       4.757   2.209  20.218  0.00  0.00    +0.000 OA
ATOM      9  C   UNL     1       2.426   2.131  20.821  0.00  0.00    +0.000 C 
ATOM     10  C   UNL     1       1.506   3.164  21.488  0.00  0.00    +0.000 C 
ATOM     11  C   UNL     1       1.072   4.266  20.509  0.00  0.00    +0.000 C 
ENDROOT
BRANCH   6  12
ATOM     12  C   UNL     1       5.630   4.773  18.259  0.00  0.00    +0.000 C 
ATOM     13  O   UNL     1       6.606   4.770  19.003  0.00  0.00    +0.000 OA
ATOM     14  N   UNL     1       5.773   4.595  16.901  0.00  0.00    +0.000 N 
ATOM     15  H   UNL     1       4.954   4.609  16.293  0.00  0.00    +0.000 HD
BRANCH  14  16
ATOM     16  C   UNL     1       7.064   4.425  16.249  0.00  0.00    +0.000 C 
BRANCH  16  17
ATOM     17  C   UNL     1       7.228   5.222  14.958  0.00  0.00    +0.000 C 
BRANCH  17  18
ATOM     18  N   UNL     1       6.806   4.487  13.785  0.00  0.00    +0.000 N 
ATOM     19  C   UNL     1       7.460   4.370  12.594  0.00  0.00    +0.000 A 
ATOM     20  N   UNL     1       6.731   3.656  11.767  0.00  0.00    +0.000 NA
ATOM     21  C   UNL     1       5.618   3.369  12.507  0.00  0.00    +0.000 A 
ATOM     22  N   UNL     1       5.617   3.863  13.751  0.00  0.00    +0.000 NA
ENDBRANCH  17  18
ENDBRANCH  16  17
ENDBRANCH  14  16
ENDBRANCH   6  12
TORSDOF 4
ENDMDL
MODEL 2
REMARK VINA RESULT:      -7.0      3.894      6.526
REMARK  Name = 
REMARK  5 active torsions:
REMARK  status: ('A' for Active; 'I' for Inactive)
REMARK    1  A    between atoms: C_1  and  C_2
REMARK    2  A    between atoms: C_6  and  C_7
REMARK    3  A    between atoms: N_9  and  C_10
REMARK    4  A    between atoms: C_10  and  C_11
REMARK    5  A    between atoms: C_11  and  N_12
REMARK                            x       y       z     vdW  Elec       q    Type
REMARK                         _______ _______ _______ _____ _____    ______ ____
ROOT
ATOM      1  C   UNL     1       6.874   5.790  18.953  0.00  0.00    +0.000 C 
ATOM      2  C   UNL     1       5.567   5.106  18.788  0.00  0.00    +0.000 A 
ATOM      3  O   UNL     1       5.561   3.823  19.244  0.00  0.00    +0.000 OA
ATOM      4  C   UNL     1       4.322   3.348  19.033  0.00  0.00    +0.000 A 
ATOM      5  C   UNL     1       3.508   4.291  18.451  0.00  0.00    +0.000 A 
ATOM      6  C   UNL     1       4.312   5.464  18.279  0.00  0.00    +0.000 A 
ATOM      7  C   UNL     1       2.127   3.947  18.165  0.00  0.00    +0.000 C 
ATOM      8  O   UNL     1       1.376   4.699  17.552  0.00  0.00    +0.000 OA
ATOM      9  C   UNL     1       1.630   2.634  18.766  0.00  0.00    +0.000 C 
ATOM     10  C   UNL     1       2.708   1.541  18.712  0.00  0.00    +0.000 C 
ATOM     11  C   UNL     1       3.994   1.964  19.440  0.00  0.00    +0.000 C 
ENDROOT
BRANCH   6  12
ATOM     12  C   UNL     1       3.989   6.776  17.724  0.00  0.00    +0.000 C 
ATOM     13  O   UNL     1       4.627   7.264  16.795  0.00  0.00    +0.000 OA
ATOM     14  N   UNL     1       2.911   7.437  18.268  0.00  0.00    +0.000 N 
ATOM     15  H   UNL     1       2.396   7.025  19.046  0.00  0.00    +0.000 HD
BRANCH  14  16
ATOM     16  C   UNL     1       2.468   8.750  17.818  0.00  0.00    +0.000 C 
BRANCH  16  17
ATOM     17  C   UNL     1       1.085   9.154  18.321  0.00  0.00    +0.000 C 
BRANCH  17  18
ATOM     18  N   UNL     1       1.061   9.430  19.741  0.00  0.00    +0.000 N 
ATOM     19  C   UNL     1       0.948  10.644  20.353  0.00  0.00    +0.000 A 
ATOM     20  N   UNL     1       1.010  10.480  21.655  0.00  0.00    +0.000 NA
ATOM     21  C   UNL     1       1.179   9.132  21.788  0.00  0.00    +0.000 A 
ATOM     22  N   UNL     1       1.221   8.445  20.640  0.00  0.00    +0.000 NA
ENDBRANCH  17  18
ENDBRANCH  16  17
ENDBRANCH  14  16
ENDBRANCH   6  12
TORSDOF 4
ENDMDL
MODEL 3
REMARK VINA RESULT:      -7.0      2.808      3.718
REMARK  Name = 
REMARK  5 active torsions:
REMARK  status: ('A' for Active; 'I' for Inactive)
REMARK    1  A    between atoms: C_1  and  C_2
REMARK    2  A    between atoms: C_6  and  C_7
REMARK    3  A    between atoms: N_9  and  C_10
REMARK    4  A    between atoms: C_10  and  C_11
REMARK    5  A    between atoms: C_11  and  N_12
REMARK                            x       y       z     vdW  Elec       q    Type
REMARK                         _______ _______ _______ _____ _____    ______ ____
ROOT
ATOM      1  C   UNL     1       1.776   7.840  20.789  0.00  0.00    +0.000 C 
ATOM      2  C   UNL     1       1.861   6.503  20.150  0.00  0.00    +0.000 A 
ATOM      3  O   UNL     1       1.261   5.515  20.870  0.00  0.00    +0.000 OA
ATOM      4  C   UNL     1       1.416   4.380  20.166  0.00  0.00    +0.000 A 
ATOM      5  C   UNL     1       2.100   4.599  18.994  0.00  0.00    +0.000 A 
ATOM      6  C   UNL     1       2.406   5.999  18.962  0.00  0.00    +0.000 A 
ATOM      7  C   UNL     1       2.344   3.479  18.103  0.00  0.00    +0.000 C 
ATOM      8  O   UNL     1       3.037   3.579  17.096  0.00  0.00    +0.000 OA
ATOM      9  C   UNL     1       1.596   2.189  18.436  0.00  0.00    +0.000 C 
ATOM     10  C   UNL     1       1.526   1.949  19.952  0.00  0.00    +0.000 C 
ATOM     11  C   UNL     1       0.853   3.117  20.689  0.00  0.00    +0.000 C 
ENDROOT
BRANCH   6  12
ATOM     12  C   UNL     1       3.107   6.805  17.966  0.00  0.00    +0.000 C 
ATOM     13  O   UNL     1       2.793   7.969  17.735  0.00  0.00    +0.000 OA
ATOM     14  N   UNL     1       4.164   6.213  17.313  0.00  0.00    +0.000 N 
ATOM     15  H   UNL     1       4.408   5.241  17.507  0.00  0.00    +0.000 HD
BRANCH  14  16
ATOM     16  C   UNL     1       4.957   6.891  16.297  0.00  0.00    +0.000 C 
BRANCH  16  17
ATOM     17  C   UNL     1       6.268   6.190  15.949  0.00  0.00    +0.000 C 
BRANCH  17  18
ATOM     18  N   UNL     1       7.038   5.824  17.118  0.00  0.00    +0.000 N 
ATOM     19  C   UNL     1       7.428   4.575  17.502  0.00  0.00    +0.000 A 
ATOM     20  N   UNL     1       8.073   4.655  18.643  0.00  0.00    +0.000 NA
ATOM     21  C   UNL     1       8.036   5.991  18.926  0.00  0.00    +0.000 A 
ATOM     22  N   UNL     1       7.406   6.748  18.020  0.00  0.00    +0.000 NA
ENDBRANCH  17  18
ENDBRANCH  16  17
ENDBRANCH  14  16
ENDBRANCH   6  12
TORSDOF 4
ENDMDL
MODEL 4
REMARK VINA RESULT:      -7.0      1.971      2.636
REMARK  Name = 
REMARK  5 active torsions:
REMARK  status: ('A' for Active; 'I' for Inactive)
REMARK    1  A    between atoms: C_1  and  C_2
REMARK    2  A    between atoms: C_6  and  C_7
REMARK    3  A    between atoms: N_9  and  C_10
REMARK    4  A    between atoms: C_10  and  C_11
REMARK    5  A    between atoms: C_11  and  N_12
REMARK                            x       y       z     vdW  Elec       q    Type
REMARK                         _______ _______ _______ _____ _____    ______ ____
ROOT
ATOM      1  C   UNL     1       1.789   7.703  20.707  0.00  0.00    +0.000 C 
ATOM      2  C   UNL     1       2.009   6.409  20.013  0.00  0.00    +0.000 A 
ATOM      3  O   UNL     1       1.256   5.389  20.512  0.00  0.00    +0.000 OA
ATOM      4  C   UNL     1       1.561   4.300  19.784  0.00  0.00    +0.000 A 
ATOM      5  C   UNL     1       2.493   4.581  18.814  0.00  0.00    +0.000 A 
ATOM      6  C   UNL     1       2.805   5.973  18.947  0.00  0.00    +0.000 A 
ATOM      7  C   UNL     1       2.926   3.517  17.926  0.00  0.00    +0.000 C 
ATOM      8  O   UNL     1       3.829   3.669  17.110  0.00  0.00    +0.000 OA
ATOM      9  C   UNL     1       2.116   2.223  17.993  0.00  0.00    +0.000 C 
ATOM     10  C   UNL     1       1.704   1.886  19.434  0.00  0.00    +0.000 C 
ATOM     11  C   UNL     1       0.888   3.016  20.080  0.00  0.00    +0.000 C 
ENDROOT
BRANCH   6  12
ATOM     12  C   UNL     1       3.716   6.829  18.192  0.00  0.00    +0.000 C 
ATOM     13  O   UNL     1       3.327   7.833  17.604  0.00  0.00    +0.000 OA
ATOM     14  N   UNL     1       5.048   6.479  18.193  0.00  0.00    +0.000 N 
ATOM     15  H   UNL     1       5.357   5.636  18.677  0.00  0.00    +0.000 HD
BRANCH  14  16
ATOM     16  C   UNL     1       6.074   7.235  17.486  0.00  0.00    +0.000 C 
BRANCH  16  17
ATOM     17  C   UNL     1       7.161   6.376  16.847  0.00  0.00    +0.000 C 
BRANCH  17  18
ATOM     18  N   UNL     1       6.637   5.424  15.892  0.00  0.00    +0.000 N 
ATOM     19  C   UNL     1       7.023   4.128  15.709  0.00  0.00    +0.000 A 
ATOM     20  N   UNL     1       6.338   3.609  14.715  0.00  0.00    +0.000 NA
ATOM     21  C   UNL     1       5.548   4.647  14.310  0.00  0.00    +0.000 A 
ATOM     22  N   UNL     1       5.700   5.784  14.999  0.00  0.00    +0.000 NA
ENDBRANCH  17  18
ENDBRANCH  16  17
ENDBRANCH  14  16
ENDBRANCH   6  12
TORSDOF 4
ENDMDL
MODEL 5
REMARK VINA RESULT:      -7.0      2.233      3.278
REMARK  Name = 
REMARK  5 active torsions:
REMARK  status: ('A' for Active; 'I' for Inactive)
REMARK    1  A    between atoms: C_1  and  C_2
REMARK    2  A    between atoms: C_6  and  C_7
REMARK    3  A    between atoms: N_9  and  C_10
REMARK    4  A    between atoms: C_10  and  C_11
REMARK    5  A    between atoms: C_11  and  N_12
REMARK                            x       y       z     vdW  Elec       q    Type
REMARK                         _______ _______ _______ _____ _____    ______ ____
ROOT
ATOM      1  C   UNL     1       2.037   8.225  19.061  0.00  0.00    +0.000 C 
ATOM      2  C   UNL     1       2.394   6.791  19.213  0.00  0.00    +0.000 A 
ATOM      3  O   UNL     1       1.753   6.177  20.245  0.00  0.00    +0.000 OA
ATOM      4  C   UNL     1       2.172   4.899  20.248  0.00  0.00    +0.000 A 
ATOM      5  C   UNL     1       3.071   4.657  19.238  0.00  0.00    +0.000 A 
ATOM      6  C   UNL     1       3.234   5.897  18.539  0.00  0.00    +0.000 A 
ATOM      7  C   UNL     1       3.615   3.319  19.088  0.00  0.00    +0.000 C 
ATOM      8  O   UNL     1       4.500   3.057  18.278  0.00  0.00    +0.000 OA
ATOM      9  C   UNL     1       2.946   2.231  19.924  0.00  0.00    +0.000 C 
ATOM     10  C   UNL     1       2.570   2.741  21.323  0.00  0.00    +0.000 C 
ATOM     11  C   UNL     1       1.637   3.961  21.259  0.00  0.00    +0.000 C 
ENDROOT
BRANCH   6  12
ATOM     12  C   UNL     1       4.052   6.245  17.380  0.00  0.00    +0.000 C 
ATOM     13  O   UNL     1       4.331   7.409  17.107  0.00  0.00    +0.000 OA
ATOM     14  N   UNL     1       4.529   5.203  16.615  0.00  0.00    +0.000 N 
ATOM     15  H   UNL     1       4.281   4.241  16.848  0.00  0.00    +0.000 HD
BRANCH  14  16
ATOM     16  C   UNL     1       5.356   5.393  15.432  0.00  0.00    +0.000 C 
BRANCH  16  17
ATOM     17  C   UNL     1       6.838   5.096  15.644  0.00  0.00    +0.000 C 
BRANCH  17  18
ATOM     18  N   UNL     1       7.342   5.616  16.897  0.00  0.00    +0.000 N 
ATOM     19  C   UNL     1       7.582   4.927  18.050  0.00  0.00    +0.000 A 
ATOM     20  N   UNL     1       7.994   5.764  18.976  0.00  0.00    +0.000 NA
ATOM     21  C   UNL     1       7.973   6.969  18.333  0.00  0.00    +0.000 A 
ATOM     22  N   UNL     1       7.574   6.929  17.056  0.00  0.00    +0.000 NA
ENDBRANCH  17  18
ENDBRANCH  16  17
ENDBRANCH  14  16
ENDBRANCH   6  12
TORSDOF 4
ENDMDL
MODEL 6
REMARK VINA RESULT:      -6.9      2.527      3.465
REMARK  Name = 
REMARK  5 active torsions:
REMARK  status: ('A' for Active; 'I' for Inactive)
REMARK    1  A    between atoms: C_1  and  C_2
REMARK    2  A    between atoms: C_6  and  C_7
REMARK    3  A    between atoms: N_9  and  C_10
REMARK    4  A    between atoms: C_10  and  C_11
REMARK    5  A    between atoms: C_11  and  N_12
REMARK                            x       y       z     vdW  Elec       q    Type
REMARK                         _______ _______ _______ _____ _____    ______ ____
ROOT
ATOM      1  C   UNL     1       2.070   8.035  19.863  0.00  0.00    +0.000 C 
ATOM      2  C   UNL     1       2.231   6.574  19.650  0.00  0.00    +0.000 A 
ATOM      3  O   UNL     1       1.549   5.813  20.550  0.00  0.00    +0.000 OA
ATOM      4  C   UNL     1       1.788   4.531  20.224  0.00  0.00    +0.000 A 
ATOM      5  C   UNL     1       2.608   4.430  19.126  0.00  0.00    +0.000 A 
ATOM      6  C   UNL     1       2.915   5.772  18.729  0.00  0.00    +0.000 A 
ATOM      7  C   UNL     1       2.958   3.111  18.629  0.00  0.00    +0.000 C 
ATOM      8  O   UNL     1       3.768   2.944  17.722  0.00  0.00    +0.000 OA
ATOM      9  C   UNL     1       2.176   1.945  19.229  0.00  0.00    +0.000 C 
ATOM     10  C   UNL     1       1.924   2.145  20.731  0.00  0.00    +0.000 C 
ATOM     11  C   UNL     1       1.166   3.450  21.020  0.00  0.00    +0.000 C 
ENDROOT
BRANCH   6  12
ATOM     12  C   UNL     1       3.730   6.285  17.631  0.00  0.00    +0.000 C 
ATOM     13  O   UNL     1       3.844   7.488  17.412  0.00  0.00    +0.000 OA
ATOM     14  N   UNL     1       4.399   5.359  16.862  0.00  0.00    +0.000 N 
ATOM     15  H   UNL     1       4.288   4.361  17.048  0.00  0.00    +0.000 HD
BRANCH  14  16
ATOM     16  C   UNL     1       5.250   5.719  15.735  0.00  0.00    +0.000 C 
BRANCH  16  17
ATOM     17  C   UNL     1       6.720   5.350  15.913  0.00  0.00    +0.000 C 
BRANCH  17  18
ATOM     18  N   UNL     1       7.249   5.752  17.198  0.00  0.00    +0.000 N 
ATOM     19  C   UNL     1       7.667   6.994  17.576  0.00  0.00    +0.000 A 
ATOM     20  N   UNL     1       8.122   6.942  18.807  0.00  0.00    +0.000 NA
ATOM     21  C   UNL     1       7.972   5.624  19.135  0.00  0.00    +0.000 A 
ATOM     22  N   UNL     1       7.445   4.854  18.177  0.00  0.00    +0.000 NA
ENDBRANCH  17  18
ENDBRANCH  16  17
ENDBRANCH  14  16
ENDBRANCH   6  12
TORSDOF 4
ENDMDL
MODEL 7
REMARK VINA RESULT:      -6.9      4.027      6.599
REMARK  Name = 
REMARK  5 active torsions:
REMARK  status: ('A' for Active; 'I' for Inactive)
REMARK    1  A    between atoms: C_1  and  C_2
REMARK    2  A    between atoms: C_6  and  C_7
REMARK    3  A    between atoms: N_9  and  C_10
REMARK    4  A    between atoms: C_10  and  C_11
REMARK    5  A    between atoms: C_11  and  N_12
REMARK                            x       y       z     vdW  Elec       q    Type
REMARK                         _______ _______ _______ _____ _____    ______ ____
ROOT
ATOM      1  C   UNL     1       4.887   4.498  15.955  0.00  0.00    +0.000 C 
ATOM      2  C   UNL     1       4.048   4.428  17.178  0.00  0.00    +0.000 A 
ATOM      3  O   UNL     1       3.777   3.156  17.581  0.00  0.00    +0.000 OA
ATOM      4  C   UNL     1       3.023   3.260  18.690  0.00  0.00    +0.000 A 
ATOM      5  C   UNL     1       2.797   4.572  19.030  0.00  0.00    +0.000 A 
ATOM      6  C   UNL     1       3.466   5.365  18.041  0.00  0.00    +0.000 A 
ATOM      7  C   UNL     1       2.009   4.865  20.214  0.00  0.00    +0.000 C 
ATOM      8  O   UNL     1       1.678   6.007  20.517  0.00  0.00    +0.000 OA
ATOM      9  C   UNL     1       1.706   3.676  21.123  0.00  0.00    +0.000 C 
ATOM     10  C   UNL     1       1.409   2.404  20.313  0.00  0.00    +0.000 C 
ATOM     11  C   UNL     1       2.572   2.032  19.380  0.00  0.00    +0.000 C 
ENDROOT
BRANCH   6  12
ATOM     12  C   UNL     1       3.581   6.813  17.890  0.00  0.00    +0.000 C 
ATOM     13  O   UNL     1       4.652   7.357  17.636  0.00  0.00    +0.000 OA
ATOM     14  N   UNL     1       2.424   7.548  18.012  0.00  0.00    +0.000 N 
ATOM     15  H   UNL     1       1.542   7.085  18.233  0.00  0.00    +0.000 HD
BRANCH  14  16
ATOM     16  C   UNL     1       2.381   8.999  17.885  0.00  0.00    +0.000 C 
BRANCH  16  17
ATOM     17  C   UNL     1       1.027   9.621  18.214  0.00  0.00    +0.000 C 
BRANCH  17  18
ATOM     18  N   UNL     1       0.914  10.023  19.599  0.00  0.00    +0.000 N 
ATOM     19  C   UNL     1       0.880  11.291  20.099  0.00  0.00    +0.000 A 
ATOM     20  N   UNL     1       0.816  11.238  21.411  0.00  0.00    +0.000 NA
ATOM     21  C   UNL     1       0.828   9.896  21.666  0.00  0.00    +0.000 A 
ATOM     22  N   UNL     1       0.893   9.110  20.585  0.00  0.00    +0.000 NA
ENDBRANCH  17  18
ENDBRANCH  16  17
ENDBRANCH  14  16
ENDBRANCH   6  12
TORSDOF 4
ENDMDL
MODEL 8
REMARK VINA RESULT:      -6.8      2.193      3.129
REMARK  Name = 
REMARK  5 active torsions:
REMARK  status: ('A' for Active; 'I' for Inactive)
REMARK    1  A    between atoms: C_1  and  C_2
REMARK    2  A    between atoms: C_6  and  C_7
REMARK    3  A    between atoms: N_9  and  C_10
REMARK    4  A    between atoms: C_10  and  C_11
REMARK    5  A    between atoms: C_11  and  N_12
REMARK                            x       y       z     vdW  Elec       q    Type
REMARK                         _______ _______ _______ _____ _____    ______ ____
ROOT
ATOM      1  C   UNL     1       3.155   7.489  17.749  0.00  0.00    +0.000 C 
ATOM      2  C   UNL     1       2.899   6.117  18.256  0.00  0.00    +0.000 A 
ATOM      3  O   UNL     1       2.058   6.080  19.327  0.00  0.00    +0.000 OA
ATOM      4  C   UNL     1       1.923   4.785  19.662  0.00  0.00    +0.000 A 
ATOM      5  C   UNL     1       2.652   3.967  18.832  0.00  0.00    +0.000 A 
ATOM      6  C   UNL     1       3.307   4.828  17.893  0.00  0.00    +0.000 A 
ATOM      7  C   UNL     1       2.608   2.531  19.045  0.00  0.00    +0.000 C 
ATOM      8  O   UNL     1       3.313   1.751  18.413  0.00  0.00    +0.000 OA
ATOM      9  C   UNL     1       1.551   2.037  20.030  0.00  0.00    +0.000 C 
ATOM     10  C   UNL     1       1.407   2.984  21.231  0.00  0.00    +0.000 C 
ATOM     11  C   UNL     1       1.050   4.414  20.796  0.00  0.00    +0.000 C 
ENDROOT
BRANCH   6  12
ATOM     12  C   UNL     1       4.201   4.528  16.777  0.00  0.00    +0.000 C 
ATOM     13  O   UNL     1       4.390   3.379  16.387  0.00  0.00    +0.000 OA
ATOM     14  N   UNL     1       4.805   5.597  16.154  0.00  0.00    +0.000 N 
ATOM     15  H   UNL     1       4.647   6.545  16.496  0.00  0.00    +0.000 HD
BRANCH  14  16
ATOM     16  C   UNL     1       5.719   5.454  15.029  0.00  0.00    +0.000 C 
BRANCH  16  17
ATOM     17  C   UNL     1       7.135   5.039  15.417  0.00  0.00    +0.000 C 
BRANCH  17  18
ATOM     18  N   UNL     1       7.488   5.430  16.764  0.00  0.00    +0.000 N 
ATOM     19  C   UNL     1       7.701   4.618  17.839  0.00  0.00    +0.000 A 
ATOM     20  N   UNL     1       7.957   5.356  18.896  0.00  0.00    +0.000 NA
ATOM     21  C   UNL     1       7.871   6.630  18.409  0.00  0.00    +0.000 A 
ATOM     22  N   UNL     1       7.579   6.725  17.107  0.00  0.00    +0.000 NA
ENDBRANCH  17  18
ENDBRANCH  16  17
ENDBRANCH  14  16
ENDBRANCH   6  12
TORSDOF 4
ENDMDL
MODEL 9
REMARK VINA RESULT:      -6.8      4.962      7.778
REMARK  Name = 
REMARK  5 active torsions:
REMARK  status: ('A' for Active; 'I' for Inactive)
REMARK    1  A    between atoms: C_1  and  C_2
REMARK    2  A    between atoms: C_6  and  C_7
REMARK    3  A    between atoms: N_9  and  C_10
REMARK    4  A    between atoms: C_10  and  C_11
REMARK    5  A    between atoms: C_11  and  N_12
REMARK                            x       y       z     vdW  Elec       q    Type
REMARK                         _______ _______ _______ _____ _____    ______ ____
ROOT
ATOM      1  C   UNL     1       5.152   6.520  16.991  0.00  0.00    +0.000 C 
ATOM      2  C   UNL     1       4.222   5.657  17.764  0.00  0.00    +0.000 A 
ATOM      3  O   UNL     1       4.546   4.334  17.725  0.00  0.00    +0.000 OA
ATOM      4  C   UNL     1       3.626   3.694  18.468  0.00  0.00    +0.000 A 
ATOM      5  C   UNL     1       2.706   4.566  19.000  0.00  0.00    +0.000 A 
ATOM      6  C   UNL     1       3.081   5.873  18.547  0.00  0.00    +0.000 A 
ATOM      7  C   UNL     1       1.647   4.041  19.842  0.00  0.00    +0.000 C 
ATOM      8  O   UNL     1       0.733   4.743  20.263  0.00  0.00    +0.000 OA
ATOM      9  C   UNL     1       1.795   2.581  20.265  0.00  0.00    +0.000 C 
ATOM     10  C   UNL     1       2.355   1.715  19.127  0.00  0.00    +0.000 C 
ATOM     11  C   UNL     1       3.716   2.227  18.630  0.00  0.00    +0.000 C 
ENDROOT
BRANCH   6  12
ATOM     12  C   UNL     1       2.485   7.182  18.795  0.00  0.00    +0.000 C 
ATOM     13  O   UNL     1       2.317   8.001  17.897  0.00  0.00    +0.000 OA
ATOM     14  N   UNL     1       2.085   7.453  20.085  0.00  0.00    +0.000 N 
ATOM     15  H   UNL     1       2.240   6.767  20.825  0.00  0.00    +0.000 HD
BRANCH  14  16
ATOM     16  C   UNL     1       1.474   8.713  20.485  0.00  0.00    +0.000 C 
BRANCH  16  17
ATOM     17  C   UNL     1       1.279   8.869  21.990  0.00  0.00    +0.000 C 
BRANCH  17  18
ATOM     18  N   UNL     1       0.394   9.961  22.333  0.00  0.00    +0.000 N 
ATOM     19  C   UNL     1      -0.618   9.959  23.247  0.00  0.00    +0.000 A 
ATOM     20  N   UNL     1      -1.215  11.129  23.235  0.00  0.00    +0.000 NA
ATOM     21  C   UNL     1      -0.530  11.814  22.272  0.00  0.00    +0.000 A 
ATOM     22  N   UNL     1       0.464  11.136  21.686  0.00  0.00    +0.000 NA
ENDBRANCH  17  18
ENDBRANCH  16  17
ENDBRANCH  14  16
ENDBRANCH   6  12
TORSDOF 4
ENDMDL
