MODEL 1
REMARK VINA RESULT:      -7.3      0.000      0.000
REMARK  Name = 
REMARK  9 active torsions:
REMARK  status: ('A' for Active; 'I' for Inactive)
REMARK    1  A    between atoms: C_1  and  C_2
REMARK    2  A    between atoms: C_2  and  O_3
REMARK    3  A    between atoms: O_3  and  C_4
REMARK    4  A    between atoms: C_4  and  C_6
REMARK    5  A    between atoms: C_12  and  O_13
REMARK    6  A    between atoms: O_13  and  C_14
REMARK    7  A    between atoms: C_17  and  N_18
REMARK    8  A    between atoms: N_18  and  C_19
REMARK    9  A    between atoms: C_19  and  C_20
REMARK                            x       y       z     vdW  Elec       q    Type
REMARK                         _______ _______ _______ _____ _____    ______ ____
ROOT
ATOM      1  C   UNL     1       5.824   5.418  17.217  0.00  0.00    +0.000 A 
ATOM      2  C   UNL     1       7.017   6.041  16.871  0.00  0.00    +0.000 A 
ATOM      3  N   UNL     1       7.603   5.931  15.658  0.00  0.00    +0.000 NA
ATOM      4  C   UNL     1       7.001   5.158  14.740  0.00  0.00    +0.000 A 
ATOM      5  C   UNL     1       7.615   5.024  13.498  0.00  0.00    +0.000 A 
ATOM      6  C   UNL     1       7.086   4.223  12.483  0.00  0.00    +0.000 A 
ATOM      7  C   UNL     1       5.913   3.524  12.712  0.00  0.00    +0.000 A 
ATOM      8  C   UNL     1       5.294   3.638  13.955  0.00  0.00    +0.000 A 
ATOM      9  C   UNL     1       5.785   4.473  14.990  0.00  0.00    +0.000 A 
ATOM     10  C   UNL     1       5.169   4.607  16.265  0.00  0.00    +0.000 A 
ENDROOT
BRANCH   1  11
ATOM     11  C   UNL     1       5.246   5.647  18.557  0.00  0.00    +0.000 C 
ATOM     12  O   UNL     1       5.715   5.196  19.591  0.00  0.00    +0.000 OA
BRANCH  11  13
ATOM     13  O   UNL     1       4.055   6.286  18.431  0.00  0.00    +0.000 OA
BRANCH  13  15
ATOM     14  C   UNL     1       2.180   7.313  19.502  0.00  0.00    +0.000 C 
ATOM     15  C   UNL     1       3.166   6.157  19.552  0.00  0.00    +0.000 C 
ENDBRANCH  13  15
ENDBRANCH  11  13
ENDBRANCH   1  11
BRANCH   7  16
ATOM     16  O   UNL     1       5.267   2.691  11.844  0.00  0.00    +0.000 OA
ATOM     17  C   UNL     1       4.074   3.171  11.249  0.00  0.00    +0.000 C 
ENDBRANCH   7  16
BRANCH  10  18
ATOM     18  N   UNL     1       3.940   4.010  16.583  0.00  0.00    +0.000 N 
ATOM     19  H   UNL     1       3.170   4.216  15.945  0.00  0.00    +0.000 HD
BRANCH  18  20
ATOM     20  C   UNL     1       3.804   2.787  17.374  0.00  0.00    +0.000 C 
BRANCH  20  21
ATOM     21  C   UNL     1       2.773   2.786  18.476  0.00  0.00    +0.000 A 
ATOM     22  C   UNL     1       1.414   3.029  18.441  0.00  0.00    +0.000 A 
ATOM     23  C   UNL     1       0.811   2.953  19.731  0.00  0.00    +0.000 A 
ATOM     24  C   UNL     1       1.725   2.643  20.713  0.00  0.00    +0.000 A 
ATOM     25  S   UNL     1       3.299   2.447  20.081  0.00  0.00    +0.000 S 
ENDBRANCH  20  21
ENDBRANCH  18  20
ENDBRANCH  10  18
TORSDOF 7
ENDMDL
MODEL 2
REMARK VINA RESULT:      -7.3      3.529      7.037
REMARK  Name = 
REMARK  9 active torsions:
REMARK  status: ('A' for Active; 'I' for Inactive)
REMARK    1  A    between atoms: C_1  and  C_2
REMARK    2  A    between atoms: C_2  and  O_3
REMARK    3  A    between atoms: O_3  and  C_4
REMARK    4  A    between atoms: C_4  and  C_6
REMARK    5  A    between atoms: C_12  and  O_13
REMARK    6  A    between atoms: O_13  and  C_14
REMARK    7  A    between atoms: C_17  and  N_18
REMARK    8  A    between atoms: N_18  and  C_19
REMARK    9  A    between atoms: C_19  and  C_20
REMARK                            x       y       z     vdW  Elec       q    Type
REMARK                         _______ _______ _______ _____ _____    ______ ____
ROOT
ATOM      1  C   UNL     1       3.319   6.895  18.251  0.00  0.00    +0.000 A 
ATOM      2  C   UNL     1       3.039   7.931  17.368  0.00  0.00    +0.000 A 
ATOM      3  N   UNL     1       2.191   8.948  17.639  0.00  0.00    +0.000 NA
ATOM      4  C   UNL     1       1.571   8.945  18.830  0.00  0.00    +0.000 A 
ATOM      5  C   UNL     1       0.680   9.978  19.103  0.00  0.00    +0.000 A 
ATOM      6  C   UNL     1      -0.037  10.054  20.300  0.00  0.00    +0.000 A 
ATOM      7  C   UNL     1       0.131   9.065  21.255  0.00  0.00    +0.000 A 
ATOM      8  C   UNL     1       1.011   8.017  20.990  0.00  0.00    +0.000 A 
ATOM      9  C   UNL     1       1.780   7.934  19.803  0.00  0.00    +0.000 A 
ATOM     10  C   UNL     1       2.686   6.876  19.513  0.00  0.00    +0.000 A 
ENDROOT
BRANCH   1  11
ATOM     11  C   UNL     1       4.302   5.860  17.871  0.00  0.00    +0.000 C 
ATOM     12  O   UNL     1       4.159   5.095  16.928  0.00  0.00    +0.000 OA
BRANCH  11  13
ATOM     13  O   UNL     1       5.279   5.798  18.811  0.00  0.00    +0.000 OA
BRANCH  13  15
ATOM     14  C   UNL     1       7.220   6.684  17.734  0.00  0.00    +0.000 C 
ATOM     15  C   UNL     1       6.581   5.437  18.322  0.00  0.00    +0.000 C 
ENDBRANCH  13  15
ENDBRANCH  11  13
ENDBRANCH   1  11
BRANCH   7  16
ATOM     16  O   UNL     1      -0.493   8.974  22.466  0.00  0.00    +0.000 OA
ATOM     17  C   UNL     1      -0.798  10.188  23.132  0.00  0.00    +0.000 C 
ENDBRANCH   7  16
BRANCH  10  18
ATOM     18  N   UNL     1       2.994   5.865  20.434  0.00  0.00    +0.000 N 
ATOM     19  H   UNL     1       3.527   6.159  21.254  0.00  0.00    +0.000 HD
BRANCH  18  20
ATOM     20  C   UNL     1       2.222   4.631  20.585  0.00  0.00    +0.000 C 
BRANCH  20  21
ATOM     21  C   UNL     1       2.472   3.530  19.584  0.00  0.00    +0.000 A 
ATOM     22  C   UNL     1       1.751   3.140  18.472  0.00  0.00    +0.000 A 
ATOM     23  C   UNL     1       2.332   2.018  17.810  0.00  0.00    +0.000 A 
ATOM     24  C   UNL     1       3.485   1.590  18.428  0.00  0.00    +0.000 A 
ATOM     25  S   UNL     1       3.863   2.536  19.798  0.00  0.00    +0.000 S 
ENDBRANCH  20  21
ENDBRANCH  18  20
ENDBRANCH  10  18
TORSDOF 7
ENDMDL
MODEL 3
REMARK VINA RESULT:      -7.2      2.778      7.014
REMARK  Name = 
REMARK  9 active torsions:
REMARK  status: ('A' for Active; 'I' for Inactive)
REMARK    1  A    between atoms: C_1  and  C_2
REMARK    2  A    between atoms: C_2  and  O_3
REMARK    3  A    between atoms: O_3  and  C_4
REMARK    4  A    between atoms: C_4  and  C_6
REMARK    5  A    between atoms: C_12  and  O_13
REMARK    6  A    between atoms: O_13  and  C_14
REMARK    7  A    between atoms: C_17  and  N_18
REMARK    8  A    between atoms: N_18  and  C_19
REMARK    9  A    between atoms: C_19  and  C_20
REMARK                            x       y       z     vdW  Elec       q    Type
REMARK                         _______ _______ _______ _____ _____    ______ ____
ROOT
ATOM      1  C   UNL     1       3.386   6.826  18.325  0.00  0.00    +0.000 A 
ATOM      2  C   UNL     1       3.153   7.862  17.428  0.00  0.00    +0.000 A 
ATOM      3  N   UNL     1       2.305   8.888  17.661  0.00  0.00    +0.000 NA
ATOM      4  C   UNL     1       1.636   8.895  18.825  0.00  0.00    +0.000 A 
ATOM      5  C   UNL     1       0.745   9.937  19.058  0.00  0.00    +0.000 A 
ATOM      6  C   UNL     1      -0.021  10.024  20.224  0.00  0.00    +0.000 A 
ATOM      7  C   UNL     1       0.098   9.036  21.188  0.00  0.00    +0.000 A 
ATOM      8  C   UNL     1       0.977   7.979  20.963  0.00  0.00    +0.000 A 
ATOM      9  C   UNL     1       1.794   7.885  19.809  0.00  0.00    +0.000 A 
ATOM     10  C   UNL     1       2.701   6.817  19.559  0.00  0.00    +0.000 A 
ENDROOT
BRANCH   1  11
ATOM     11  C   UNL     1       4.374   5.781  17.989  0.00  0.00    +0.000 C 
ATOM     12  O   UNL     1       5.432   5.624  18.580  0.00  0.00    +0.000 OA
BRANCH  11  13
ATOM     13  O   UNL     1       3.993   5.150  16.849  0.00  0.00    +0.000 OA
BRANCH  13  15
ATOM     14  C   UNL     1       5.604   5.207  15.083  0.00  0.00    +0.000 C 
ATOM     15  C   UNL     1       5.015   4.370  16.207  0.00  0.00    +0.000 C 
ENDBRANCH  13  15
ENDBRANCH  11  13
ENDBRANCH   1  11
BRANCH   7  16
ATOM     16  O   UNL     1      -0.577   8.956  22.372  0.00  0.00    +0.000 OA
ATOM     17  C   UNL     1      -0.771  10.160  23.093  0.00  0.00    +0.000 C 
ENDBRANCH   7  16
BRANCH  10  18
ATOM     18  N   UNL     1       2.960   5.806  20.495  0.00  0.00    +0.000 N 
ATOM     19  H   UNL     1       3.451   6.100  21.341  0.00  0.00    +0.000 HD
BRANCH  18  20
ATOM     20  C   UNL     1       2.180   4.574  20.608  0.00  0.00    +0.000 C 
BRANCH  20  21
ATOM     21  C   UNL     1       2.446   3.490  19.591  0.00  0.00    +0.000 A 
ATOM     22  C   UNL     1       1.730   3.102  18.476  0.00  0.00    +0.000 A 
ATOM     23  C   UNL     1       2.328   1.999  17.798  0.00  0.00    +0.000 A 
ATOM     24  C   UNL     1       3.490   1.583  18.409  0.00  0.00    +0.000 A 
ATOM     25  S   UNL     1       3.854   2.516  19.791  0.00  0.00    +0.000 S 
ENDBRANCH  20  21
ENDBRANCH  18  20
ENDBRANCH  10  18
TORSDOF 7
ENDMDL
MODEL 4
REMARK VINA RESULT:      -7.0      2.049      5.678
REMARK  Name = 
REMARK  9 active torsions:
REMARK  status: ('A' for Active; 'I' for Inactive)
REMARK    1  A    between atoms: C_1  and  C_2
REMARK    2  A    between atoms: C_2  and  O_3
REMARK    3  A    between atoms: O_3  and  C_4
REMARK    4  A    between atoms: C_4  and  C_6
REMARK    5  A    between atoms: C_12  and  O_13
REMARK    6  A    between atoms: O_13  and  C_14
REMARK    7  A    between atoms: C_17  and  N_18
REMARK    8  A    between atoms: N_18  and  C_19
REMARK    9  A    between atoms: C_19  and  C_20
REMARK                            x       y       z     vdW  Elec       q    Type
REMARK                         _______ _______ _______ _____ _____    ______ ____
ROOT
ATOM      1  C   UNL     1       5.450   5.459  16.851  0.00  0.00    +0.000 A 
ATOM      2  C   UNL     1       5.127   6.479  15.965  0.00  0.00    +0.000 A 
ATOM      3  N   UNL     1       4.216   7.444  16.221  0.00  0.00    +0.000 NA
ATOM      4  C   UNL     1       3.574   7.401  17.399  0.00  0.00    +0.000 A 
ATOM      5  C   UNL     1       2.619   8.380  17.656  0.00  0.00    +0.000 A 
ATOM      6  C   UNL     1       1.875   8.410  18.839  0.00  0.00    +0.000 A 
ATOM      7  C   UNL     1       2.082   7.430  19.796  0.00  0.00    +0.000 A 
ATOM      8  C   UNL     1       3.027   6.437  19.546  0.00  0.00    +0.000 A 
ATOM      9  C   UNL     1       3.823   6.402  18.374  0.00  0.00    +0.000 A 
ATOM     10  C   UNL     1       4.795   5.400  18.100  0.00  0.00    +0.000 A 
ENDROOT
BRANCH   1  11
ATOM     11  C   UNL     1       6.499   4.485  16.489  0.00  0.00    +0.000 C 
ATOM     12  O   UNL     1       7.617   4.468  16.983  0.00  0.00    +0.000 OA
BRANCH  11  13
ATOM     13  O   UNL     1       6.079   3.741  15.434  0.00  0.00    +0.000 OA
BRANCH  13  15
ATOM     14  C   UNL     1       5.693   3.621  13.078  0.00  0.00    +0.000 C 
ATOM     15  C   UNL     1       6.642   4.103  14.163  0.00  0.00    +0.000 C 
ENDBRANCH  13  15
ENDBRANCH  11  13
ENDBRANCH   1  11
BRANCH   7  16
ATOM     16  O   UNL     1       1.441   7.300  20.994  0.00  0.00    +0.000 OA
ATOM     17  C   UNL     1       0.995   8.488  21.624  0.00  0.00    +0.000 C 
ENDBRANCH   7  16
BRANCH  10  18
ATOM     18  N   UNL     1       5.144   4.406  19.026  0.00  0.00    +0.000 N 
ATOM     19  H   UNL     1       5.566   4.737  19.894  0.00  0.00    +0.000 HD
BRANCH  18  20
ATOM     20  C   UNL     1       4.515   3.086  19.086  0.00  0.00    +0.000 C 
BRANCH  20  21
ATOM     21  C   UNL     1       3.127   3.006  19.672  0.00  0.00    +0.000 A 
ATOM     22  C   UNL     1       2.700   2.995  20.985  0.00  0.00    +0.000 A 
ATOM     23  C   UNL     1       1.283   2.877  21.099  0.00  0.00    +0.000 A 
ATOM     24  C   UNL     1       0.667   2.813  19.870  0.00  0.00    +0.000 A 
ATOM     25  S   UNL     1       1.792   2.893  18.588  0.00  0.00    +0.000 S 
ENDBRANCH  20  21
ENDBRANCH  18  20
ENDBRANCH  10  18
TORSDOF 7
ENDMDL
MODEL 5
REMARK VINA RESULT:      -6.8      3.113      5.957
REMARK  Name = 
REMARK  9 active torsions:
REMARK  status: ('A' for Active; 'I' for Inactive)
REMARK    1  A    between atoms: C_1  and  C_2
REMARK    2  A    between atoms: C_2  and  O_3
REMARK    3  A    between atoms: O_3  and  C_4
REMARK    4  A    between atoms: C_4  and  C_6
REMARK    5  A    between atoms: C_12  and  O_13
REMARK    6  A    between atoms: O_13  and  C_14
REMARK    7  A    between atoms: C_17  and  N_18
REMARK    8  A    between atoms: N_18  and  C_19
REMARK    9  A    between atoms: C_19  and  C_20
REMARK                            x       y       z     vdW  Elec       q    Type
REMARK                         _______ _______ _______ _____ _____    ______ ____
ROOT
ATOM      1  C   UNL     1       4.981   5.300  16.653  0.00  0.00    +0.000 A 
ATOM      2  C   UNL     1       5.171   4.052  16.072  0.00  0.00    +0.000 A 
ATOM      3  N   UNL     1       4.518   2.932  16.455  0.00  0.00    +0.000 NA
ATOM      4  C   UNL     1       3.645   3.033  17.470  0.00  0.00    +0.000 A 
ATOM      5  C   UNL     1       2.989   1.878  17.881  0.00  0.00    +0.000 A 
ATOM      6  C   UNL     1       2.082   1.868  18.945  0.00  0.00    +0.000 A 
ATOM      7  C   UNL     1       1.825   3.045  19.628  0.00  0.00    +0.000 A 
ATOM      8  C   UNL     1       2.485   4.208  19.235  0.00  0.00    +0.000 A 
ATOM      9  C   UNL     1       3.379   4.257  18.137  0.00  0.00    +0.000 A 
ATOM     10  C   UNL     1       4.062   5.432  17.716  0.00  0.00    +0.000 A 
ENDROOT
BRANCH   1  11
ATOM     11  C   UNL     1       5.712   6.469  16.122  0.00  0.00    +0.000 C 
ATOM     12  O   UNL     1       5.207   7.327  15.415  0.00  0.00    +0.000 OA
BRANCH  11  13
ATOM     13  O   UNL     1       7.033   6.344  16.409  0.00  0.00    +0.000 OA
BRANCH  13  15
ATOM     14  C   UNL     1       7.832   8.253  17.605  0.00  0.00    +0.000 C 
ATOM     15  C   UNL     1       7.423   6.793  17.717  0.00  0.00    +0.000 C 
ENDBRANCH  13  15
ENDBRANCH  11  13
ENDBRANCH   1  11
BRANCH   7  16
ATOM     16  O   UNL     1       0.985   3.215  20.691  0.00  0.00    +0.000 OA
ATOM     17  C   UNL     1       1.482   2.870  21.973  0.00  0.00    +0.000 C 
ENDBRANCH   7  16
BRANCH  10  18
ATOM     18  N   UNL     1       3.823   6.693  18.281  0.00  0.00    +0.000 N 
ATOM     19  H   UNL     1       4.644   7.176  18.651  0.00  0.00    +0.000 HD
BRANCH  18  20
ATOM     20  C   UNL     1       2.686   7.545  17.932  0.00  0.00    +0.000 C 
BRANCH  20  21
ATOM     21  C   UNL     1       1.936   8.199  19.068  0.00  0.00    +0.000 A 
ATOM     22  C   UNL     1       1.736   7.789  20.372  0.00  0.00    +0.000 A 
ATOM     23  C   UNL     1       0.932   8.703  21.115  0.00  0.00    +0.000 A 
ATOM     24  C   UNL     1       0.551   9.790  20.361  0.00  0.00    +0.000 A 
ATOM     25  S   UNL     1       1.158   9.706  18.768  0.00  0.00    +0.000 S 
ENDBRANCH  20  21
ENDBRANCH  18  20
ENDBRANCH  10  18
TORSDOF 7
ENDMDL
MODEL 6
REMARK VINA RESULT:      -6.7      0.911      1.084
REMARK  Name = 
REMARK  9 active torsions:
REMARK  status: ('A' for Active; 'I' for Inactive)
REMARK    1  A    between atoms: C_1  and  C_2
REMARK    2  A    between atoms: C_2  and  O_3
REMARK    3  A    between atoms: O_3  and  C_4
REMARK    4  A    between atoms: C_4  and  C_6
REMARK    5  A    between atoms: C_12  and  O_13
REMARK    6  A    between atoms: O_13  and  C_14
REMARK    7  A    between atoms: C_17  and  N_18
REMARK    8  A    between atoms: N_18  and  C_19
REMARK    9  A    between atoms: C_19  and  C_20
REMARK                            x       y       z     vdW  Elec       q    Type
REMARK                         _______ _______ _______ _____ _____    ______ ____
ROOT
ATOM      1  C   UNL     1       5.280   5.532  17.453  0.00  0.00    +0.000 A 
ATOM      2  C   UNL     1       6.426   6.283  17.218  0.00  0.00    +0.000 A 
ATOM      3  N   UNL     1       7.144   6.230  16.074  0.00  0.00    +0.000 NA
ATOM      4  C   UNL     1       6.732   5.385  15.116  0.00  0.00    +0.000 A 
ATOM      5  C   UNL     1       7.483   5.311  13.947  0.00  0.00    +0.000 A 
ATOM      6  C   UNL     1       7.157   4.445  12.899  0.00  0.00    +0.000 A 
ATOM      7  C   UNL     1       6.052   3.619  13.021  0.00  0.00    +0.000 A 
ATOM      8  C   UNL     1       5.298   3.674  14.191  0.00  0.00    +0.000 A 
ATOM      9  C   UNL     1       5.580   4.569  15.253  0.00  0.00    +0.000 A 
ATOM     10  C   UNL     1       4.823   4.644  16.455  0.00  0.00    +0.000 A 
ENDROOT
BRANCH   1  11
ATOM     11  C   UNL     1       4.543   5.707  18.721  0.00  0.00    +0.000 C 
ATOM     12  O   UNL     1       5.018   5.484  19.824  0.00  0.00    +0.000 OA
BRANCH  11  13
ATOM     13  O   UNL     1       3.243   5.990  18.451  0.00  0.00    +0.000 OA
BRANCH  13  15
ATOM     14  C   UNL     1       2.463   8.143  17.766  0.00  0.00    +0.000 C 
ATOM     15  C   UNL     1       2.771   7.250  18.956  0.00  0.00    +0.000 C 
ENDBRANCH  13  15
ENDBRANCH  11  13
ENDBRANCH   1  11
BRANCH   7  16
ATOM     16  O   UNL     1       5.598   2.711  12.109  0.00  0.00    +0.000 OA
ATOM     17  C   UNL     1       4.405   3.029  11.412  0.00  0.00    +0.000 C 
ENDBRANCH   7  16
BRANCH  10  18
ATOM     18  N   UNL     1       3.643   3.914  16.657  0.00  0.00    +0.000 N 
ATOM     19  H   UNL     1       2.909   4.056  15.961  0.00  0.00    +0.000 HD
BRANCH  18  20
ATOM     20  C   UNL     1       3.572   2.662  17.410  0.00  0.00    +0.000 C 
BRANCH  20  21
ATOM     21  C   UNL     1       2.858   2.692  18.740  0.00  0.00    +0.000 A 
ATOM     22  C   UNL     1       3.334   2.516  20.024  0.00  0.00    +0.000 A 
ATOM     23  C   UNL     1       2.303   2.597  21.005  0.00  0.00    +0.000 A 
ATOM     24  C   UNL     1       1.070   2.844  20.444  0.00  0.00    +0.000 A 
ATOM     25  S   UNL     1       1.159   2.975  18.744  0.00  0.00    +0.000 S 
ENDBRANCH  20  21
ENDBRANCH  18  20
ENDBRANCH  10  18
TORSDOF 7
ENDMDL
MODEL 7
REMARK VINA RESULT:      -6.7      4.055      5.434
REMARK  Name = 
REMARK  9 active torsions:
REMARK  status: ('A' for Active; 'I' for Inactive)
REMARK    1  A    between atoms: C_1  and  C_2
REMARK    2  A    between atoms: C_2  and  O_3
REMARK    3  A    between atoms: O_3  and  C_4
REMARK    4  A    between atoms: C_4  and  C_6
REMARK    5  A    between atoms: C_12  and  O_13
REMARK    6  A    between atoms: O_13  and  C_14
REMARK    7  A    between atoms: C_17  and  N_18
REMARK    8  A    between atoms: N_18  and  C_19
REMARK    9  A    between atoms: C_19  and  C_20
REMARK                            x       y       z     vdW  Elec       q    Type
REMARK                         _______ _______ _______ _____ _____    ______ ____
ROOT
ATOM      1  C   UNL     1       3.184   4.355  18.625  0.00  0.00    +0.000 A 
ATOM      2  C   UNL     1       4.105   3.456  19.151  0.00  0.00    +0.000 A 
ATOM      3  N   UNL     1       5.436   3.683  19.206  0.00  0.00    +0.000 NA
ATOM      4  C   UNL     1       5.895   4.841  18.705  0.00  0.00    +0.000 A 
ATOM      5  C   UNL     1       7.267   5.067  18.739  0.00  0.00    +0.000 A 
ATOM      6  C   UNL     1       7.850   6.227  18.221  0.00  0.00    +0.000 A 
ATOM      7  C   UNL     1       7.041   7.191  17.642  0.00  0.00    +0.000 A 
ATOM      8  C   UNL     1       5.666   6.973  17.589  0.00  0.00    +0.000 A 
ATOM      9  C   UNL     1       5.043   5.826  18.141  0.00  0.00    +0.000 A 
ATOM     10  C   UNL     1       3.642   5.583  18.102  0.00  0.00    +0.000 A 
ENDROOT
BRANCH   1  11
ATOM     11  C   UNL     1       1.744   4.026  18.662  0.00  0.00    +0.000 C 
ATOM     12  O   UNL     1       1.121   3.578  17.711  0.00  0.00    +0.000 OA
BRANCH  11  13
ATOM     13  O   UNL     1       1.215   4.444  19.840  0.00  0.00    +0.000 OA
BRANCH  13  15
ATOM     14  C   UNL     1       1.263   2.791  21.566  0.00  0.00    +0.000 C 
ATOM     15  C   UNL     1       1.935   4.039  21.015  0.00  0.00    +0.000 C 
ENDBRANCH  13  15
ENDBRANCH  11  13
ENDBRANCH   1  11
BRANCH   7  16
ATOM     16  O   UNL     1       7.439   8.370  17.078  0.00  0.00    +0.000 OA
ATOM     17  C   UNL     1       8.213   9.245  17.881  0.00  0.00    +0.000 C 
ENDBRANCH   7  16
BRANCH  10  18
ATOM     18  N   UNL     1       2.722   6.520  17.612  0.00  0.00    +0.000 N 
ATOM     19  H   UNL     1       1.822   6.143  17.310  0.00  0.00    +0.000 HD
BRANCH  18  20
ATOM     20  C   UNL     1       2.729   7.940  17.968  0.00  0.00    +0.000 C 
BRANCH  20  21
ATOM     21  C   UNL     1       1.907   8.358  19.163  0.00  0.00    +0.000 A 
ATOM     22  C   UNL     1       1.735   7.759  20.395  0.00  0.00    +0.000 A 
ATOM     23  C   UNL     1       0.837   8.482  21.235  0.00  0.00    +0.000 A 
ATOM     24  C   UNL     1       0.359   9.620  20.625  0.00  0.00    +0.000 A 
ATOM     25  S   UNL     1       0.988   9.812  19.049  0.00  0.00    +0.000 S 
ENDBRANCH  20  21
ENDBRANCH  18  20
ENDBRANCH  10  18
TORSDOF 7
ENDMDL
MODEL 8
REMARK VINA RESULT:      -6.6      1.046      1.151
REMARK  Name = 
REMARK  9 active torsions:
REMARK  status: ('A' for Active; 'I' for Inactive)
REMARK    1  A    between atoms: C_1  and  C_2
REMARK    2  A    between atoms: C_2  and  O_3
REMARK    3  A    between atoms: O_3  and  C_4
REMARK    4  A    between atoms: C_4  and  C_6
REMARK    5  A    between atoms: C_12  and  O_13
REMARK    6  A    between atoms: O_13  and  C_14
REMARK    7  A    between atoms: C_17  and  N_18
REMARK    8  A    between atoms: N_18  and  C_19
REMARK    9  A    between atoms: C_19  and  C_20
REMARK                            x       y       z     vdW  Elec       q    Type
REMARK                         _______ _______ _______ _____ _____    ______ ____
ROOT
ATOM      1  C   UNL     1       6.224   4.863  17.402  0.00  0.00    +0.000 A 
ATOM      2  C   UNL     1       7.158   5.819  17.020  0.00  0.00    +0.000 A 
ATOM      3  N   UNL     1       7.589   5.991  15.750  0.00  0.00    +0.000 NA
ATOM      4  C   UNL     1       7.093   5.175  14.806  0.00  0.00    +0.000 A 
ATOM      5  C   UNL     1       7.552   5.334  13.502  0.00  0.00    +0.000 A 
ATOM      6  C   UNL     1       7.120   4.521  12.450  0.00  0.00    +0.000 A 
ATOM      7  C   UNL     1       6.209   3.510  12.705  0.00  0.00    +0.000 A 
ATOM      8  C   UNL     1       5.751   3.330  14.009  0.00  0.00    +0.000 A 
ATOM      9  C   UNL     1       6.139   4.164  15.087  0.00  0.00    +0.000 A 
ATOM     10  C   UNL     1       5.682   4.001  16.424  0.00  0.00    +0.000 A 
ENDROOT
BRANCH   1  11
ATOM     11  C   UNL     1       5.787   4.796  18.811  0.00  0.00    +0.000 C 
ATOM     12  O   UNL     1       5.741   3.764  19.464  0.00  0.00    +0.000 OA
BRANCH  11  13
ATOM     13  O   UNL     1       5.307   6.007  19.194  0.00  0.00    +0.000 OA
BRANCH  13  15
ATOM     14  C   UNL     1       3.457   6.886  17.961  0.00  0.00    +0.000 C 
ATOM     15  C   UNL     1       3.875   6.124  19.208  0.00  0.00    +0.000 C 
ENDBRANCH  13  15
ENDBRANCH  11  13
ENDBRANCH   1  11
BRANCH   7  16
ATOM     16  O   UNL     1       5.693   2.620  11.807  0.00  0.00    +0.000 OA
ATOM     17  C   UNL     1       4.400   2.891  11.293  0.00  0.00    +0.000 C 
ENDBRANCH   7  16
BRANCH  10  18
ATOM     18  N   UNL     1       4.703   3.064  16.785  0.00  0.00    +0.000 N 
ATOM     19  H   UNL     1       5.015   2.312  17.401  0.00  0.00    +0.000 HD
BRANCH  18  20
ATOM     20  C   UNL     1       3.267   3.343  16.796  0.00  0.00    +0.000 C 
BRANCH  20  21
ATOM     21  C   UNL     1       2.512   3.035  18.066  0.00  0.00    +0.000 A 
ATOM     22  C   UNL     1       2.746   2.095  19.051  0.00  0.00    +0.000 A 
ATOM     23  C   UNL     1       1.758   2.122  20.079  0.00  0.00    +0.000 A 
ATOM     24  C   UNL     1       0.804   3.089  19.856  0.00  0.00    +0.000 A 
ATOM     25  S   UNL     1       1.098   3.956  18.416  0.00  0.00    +0.000 S 
ENDBRANCH  20  21
ENDBRANCH  18  20
ENDBRANCH  10  18
TORSDOF 7
ENDMDL
MODEL 9
REMARK VINA RESULT:      -6.6      1.341      1.859
REMARK  Name = 
REMARK  9 active torsions:
REMARK  status: ('A' for Active; 'I' for Inactive)
REMARK    1  A    between atoms: C_1  and  C_2
REMARK    2  A    between atoms: C_2  and  O_3
REMARK    3  A    between atoms: O_3  and  C_4
REMARK    4  A    between atoms: C_4  and  C_6
REMARK    5  A    between atoms: C_12  and  O_13
REMARK    6  A    between atoms: O_13  and  C_14
REMARK    7  A    between atoms: C_17  and  N_18
REMARK    8  A    between atoms: N_18  and  C_19
REMARK    9  A    between atoms: C_19  and  C_20
REMARK                            x       y       z     vdW  Elec       q    Type
REMARK                         _______ _______ _______ _____ _____    ______ ____
ROOT
ATOM      1  C   UNL     1       6.074   4.783  17.514  0.00  0.00    +0.000 A 
ATOM      2  C   UNL     1       7.112   5.643  17.178  0.00  0.00    +0.000 A 
ATOM      3  N   UNL     1       7.587   5.803  15.923  0.00  0.00    +0.000 NA
ATOM      4  C   UNL     1       7.030   5.069  14.946  0.00  0.00    +0.000 A 
ATOM      5  C   UNL     1       7.533   5.214  13.656  0.00  0.00    +0.000 A 
ATOM      6  C   UNL     1       7.043   4.478  12.573  0.00  0.00    +0.000 A 
ATOM      7  C   UNL     1       6.025   3.563  12.780  0.00  0.00    +0.000 A 
ATOM      8  C   UNL     1       5.521   3.398  14.069  0.00  0.00    +0.000 A 
ATOM      9  C   UNL     1       5.970   4.157  15.178  0.00  0.00    +0.000 A 
ATOM     10  C   UNL     1       5.468   4.008  16.501  0.00  0.00    +0.000 A 
ENDROOT
BRANCH   1  11
ATOM     11  C   UNL     1       5.600   4.724  18.911  0.00  0.00    +0.000 C 
ATOM     12  O   UNL     1       5.378   5.710  19.599  0.00  0.00    +0.000 OA
BRANCH  11  13
ATOM     13  O   UNL     1       5.608   3.436  19.338  0.00  0.00    +0.000 OA
BRANCH  13  15
ATOM     14  C   UNL     1       4.643   1.605  20.533  0.00  0.00    +0.000 C 
ATOM     15  C   UNL     1       4.627   3.112  20.335  0.00  0.00    +0.000 C 
ENDBRANCH  13  15
ENDBRANCH  11  13
ENDBRANCH   1  11
BRANCH   7  16
ATOM     16  O   UNL     1       5.440   2.756  11.847  0.00  0.00    +0.000 OA
ATOM     17  C   UNL     1       4.190   3.171  11.323  0.00  0.00    +0.000 C 
ENDBRANCH   7  16
BRANCH  10  18
ATOM     18  N   UNL     1       4.388   3.171  16.815  0.00  0.00    +0.000 N 
ATOM     19  H   UNL     1       4.592   2.406  17.460  0.00  0.00    +0.000 HD
BRANCH  18  20
ATOM     20  C   UNL     1       2.985   3.577  16.734  0.00  0.00    +0.000 C 
BRANCH  20  21
ATOM     21  C   UNL     1       2.155   3.455  17.989  0.00  0.00    +0.000 A 
ATOM     22  C   UNL     1       1.523   2.364  18.551  0.00  0.00    +0.000 A 
ATOM     23  C   UNL     1       0.811   2.696  19.742  0.00  0.00    +0.000 A 
ATOM     24  C   UNL     1       0.930   4.030  20.061  0.00  0.00    +0.000 A 
ATOM     25  S   UNL     1       1.892   4.874  18.931  0.00  0.00    +0.000 S 
ENDBRANCH  20  21
ENDBRANCH  18  20
ENDBRANCH  10  18
TORSDOF 7
ENDMDL
