MODEL 1
REMARK VINA RESULT:     -10.6      0.000      0.000
REMARK  Name = 
REMARK  6 active torsions:
REMARK  status: ('A' for Active; 'I' for Inactive)
REMARK    1  A    between atoms: C_1  and  C_2
REMARK    2  A    between atoms: C_4  and  C_5
REMARK    3  A    between atoms: N_8  and  S_9
REMARK    4  A    between atoms: S_9  and  C_12
REMARK    5  A    between atoms: C_15  and  N_16
REMARK    6  A    between atoms: C_17  and  C_19
REMARK                            x       y       z     vdW  Elec       q    Type
REMARK                         _______ _______ _______ _____ _____    ______ ____
ROOT
ATOM      1  C   UNL     1       0.260  11.907  18.701  0.00  0.00    +0.000 A 
ATOM      2  C   UNL     1       1.642  11.808  18.540  0.00  0.00    +0.000 A 
ATOM      3  C   UNL     1       2.215  10.579  18.187  0.00  0.00    +0.000 A 
ATOM      4  C   UNL     1       1.424   9.436  18.020  0.00  0.00    +0.000 A 
ATOM      5  C   UNL     1       0.035   9.554  18.181  0.00  0.00    +0.000 A 
ATOM      6  C   UNL     1      -0.547  10.781  18.529  0.00  0.00    +0.000 A 
ENDROOT
BRANCH   4   7
ATOM      7  N   UNL     1       1.948   8.151  17.727  0.00  0.00    +0.000 N 
ATOM      8  C   UNL     1       2.485   7.249  18.631  0.00  0.00    +0.000 C 
ATOM      9  O   UNL     1       2.588   7.418  19.841  0.00  0.00    +0.000 OA
ATOM     10  H   UNL     1       1.844   7.843  16.768  0.00  0.00    +0.000 HD
BRANCH   8  11
ATOM     11  C   UNL     1       2.900   5.924  18.089  0.00  0.00    +0.000 A 
ATOM     12  C   UNL     1       2.342   4.669  18.507  0.00  0.00    +0.000 A 
ATOM     13  C   UNL     1       1.484   4.379  19.601  0.00  0.00    +0.000 A 
ATOM     14  C   UNL     1       0.999   3.083  19.817  0.00  0.00    +0.000 A 
ATOM     15  C   UNL     1       1.231   2.099  18.868  0.00  0.00    +0.000 A 
ATOM     16  C   UNL     1       2.114   2.352  17.834  0.00  0.00    +0.000 A 
ATOM     17  C   UNL     1       2.779   3.563  17.765  0.00  0.00    +0.000 A 
ATOM     18  N   UNL     1       3.940   3.575  17.125  0.00  0.00    +0.000 NA
ATOM     19  C   UNL     1       4.665   4.689  17.225  0.00  0.00    +0.000 A 
ATOM     20  C   UNL     1       5.964   4.638  17.696  0.00  0.00    +0.000 A 
ATOM     21  C   UNL     1       6.688   5.809  17.921  0.00  0.00    +0.000 A 
ATOM     22  C   UNL     1       6.194   7.005  17.427  0.00  0.00    +0.000 A 
ATOM     23  C   UNL     1       4.871   7.055  17.013  0.00  0.00    +0.000 A 
ATOM     24  C   UNL     1       4.074   5.931  17.297  0.00  0.00    +0.000 A 
ENDBRANCH   8  11
ENDBRANCH   4   7
BRANCH   1  25
ATOM     25  S   UNL     1      -0.440  13.443  19.280  0.00  0.00    +0.000 S 
ATOM     26  O   UNL     1      -1.855  13.231  19.414  0.00  0.00    +0.000 OA
ATOM     27  O   UNL     1       0.078  14.500  18.436  0.00  0.00    +0.000 OA
BRANCH  25  35
ATOM     28  C   UNL     1      -3.397  12.387  23.707  0.00  0.00    +0.000 C 
ATOM     29  C   UNL     1      -2.051  12.055  23.112  0.00  0.00    +0.000 A 
ATOM     30  C   UNL     1      -1.466  10.808  23.299  0.00  0.00    +0.000 A 
ATOM     31  C   UNL     1      -0.273  10.578  22.639  0.00  0.00    +0.000 A 
ATOM     32  C   UNL     1       0.459   9.277  22.777  0.00  0.00    +0.000 C 
ATOM     33  N   UNL     1       0.289  11.513  21.840  0.00  0.00    +0.000 NA
ATOM     34  C   UNL     1      -0.352  12.667  21.742  0.00  0.00    +0.000 A 
ATOM     35  N   UNL     1       0.155  13.607  20.852  0.00  0.00    +0.000 N 
ATOM     36  N   UNL     1      -1.485  13.006  22.346  0.00  0.00    +0.000 NA
ATOM     37  H   UNL     1      -0.032  14.544  21.192  0.00  0.00    +0.000 HD
ENDBRANCH  25  35
ENDBRANCH   1  25
TORSDOF 4
ENDMDL
MODEL 2
REMARK VINA RESULT:     -10.6      1.961      4.210
REMARK  Name = 
REMARK  6 active torsions:
REMARK  status: ('A' for Active; 'I' for Inactive)
REMARK    1  A    between atoms: C_1  and  C_2
REMARK    2  A    between atoms: C_4  and  C_5
REMARK    3  A    between atoms: N_8  and  S_9
REMARK    4  A    between atoms: S_9  and  C_12
REMARK    5  A    between atoms: C_15  and  N_16
REMARK    6  A    between atoms: C_17  and  C_19
REMARK                            x       y       z     vdW  Elec       q    Type
REMARK                         _______ _______ _______ _____ _____    ______ ____
ROOT
ATOM      1  C   UNL     1      -0.399  10.740  21.239  0.00  0.00    +0.000 A 
ATOM      2  C   UNL     1       0.228  10.648  19.996  0.00  0.00    +0.000 A 
ATOM      3  C   UNL     1       1.062   9.558  19.716  0.00  0.00    +0.000 A 
ATOM      4  C   UNL     1       1.300   8.567  20.675  0.00  0.00    +0.000 A 
ATOM      5  C   UNL     1       0.657   8.670  21.918  0.00  0.00    +0.000 A 
ATOM      6  C   UNL     1      -0.183   9.756  22.205  0.00  0.00    +0.000 A 
ENDROOT
BRANCH   4   7
ATOM      7  N   UNL     1       2.183   7.474  20.477  0.00  0.00    +0.000 N 
ATOM      8  C   UNL     1       2.366   6.757  19.306  0.00  0.00    +0.000 C 
ATOM      9  O   UNL     1       1.792   6.960  18.242  0.00  0.00    +0.000 OA
ATOM     10  H   UNL     1       2.789   7.254  21.257  0.00  0.00    +0.000 HD
BRANCH   8  11
ATOM     11  C   UNL     1       3.413   5.697  19.327  0.00  0.00    +0.000 A 
ATOM     12  C   UNL     1       4.610   5.727  18.534  0.00  0.00    +0.000 A 
ATOM     13  C   UNL     1       4.965   6.591  17.463  0.00  0.00    +0.000 A 
ATOM     14  C   UNL     1       6.216   6.496  16.841  0.00  0.00    +0.000 A 
ATOM     15  C   UNL     1       7.182   5.655  17.373  0.00  0.00    +0.000 A 
ATOM     16  C   UNL     1       6.829   4.766  18.373  0.00  0.00    +0.000 A 
ATOM     17  C   UNL     1       5.521   4.700  18.817  0.00  0.00    +0.000 A 
ATOM     18  N   UNL     1       5.124   3.552  19.347  0.00  0.00    +0.000 NA
ATOM     19  C   UNL     1       3.820   3.428  19.596  0.00  0.00    +0.000 A 
ATOM     20  C   UNL     1       3.103   2.377  19.056  0.00  0.00    +0.000 A 
ATOM     21  C   UNL     1       1.718   2.306  19.207  0.00  0.00    +0.000 A 
ATOM     22  C   UNL     1       1.101   3.151  20.116  0.00  0.00    +0.000 A 
ATOM     23  C   UNL     1       1.817   4.235  20.604  0.00  0.00    +0.000 A 
ATOM     24  C   UNL     1       3.056   4.502  19.997  0.00  0.00    +0.000 A 
ENDBRANCH   8  11
ENDBRANCH   4   7
BRANCH   1  25
ATOM     25  S   UNL     1      -1.349  12.198  21.628  0.00  0.00    +0.000 S 
ATOM     26  O   UNL     1      -2.336  12.342  20.593  0.00  0.00    +0.000 OA
ATOM     27  O   UNL     1      -0.410  13.263  21.915  0.00  0.00    +0.000 OA
BRANCH  25  35
ATOM     28  C   UNL     1      -3.597  15.858  24.947  0.00  0.00    +0.000 C 
ATOM     29  C   UNL     1      -3.957  14.591  24.214  0.00  0.00    +0.000 A 
ATOM     30  C   UNL     1      -5.231  14.395  23.692  0.00  0.00    +0.000 A 
ATOM     31  C   UNL     1      -5.431  13.237  22.963  0.00  0.00    +0.000 A 
ATOM     32  C   UNL     1      -6.766  12.910  22.365  0.00  0.00    +0.000 C 
ATOM     33  N   UNL     1      -4.434  12.346  22.755  0.00  0.00    +0.000 NA
ATOM     34  C   UNL     1      -3.265  12.632  23.306  0.00  0.00    +0.000 A 
ATOM     35  N   UNL     1      -2.201  11.781  23.026  0.00  0.00    +0.000 N 
ATOM     36  N   UNL     1      -2.966  13.696  24.042  0.00  0.00    +0.000 NA
ATOM     37  H   UNL     1      -1.567  11.748  23.816  0.00  0.00    +0.000 HD
ENDBRANCH  25  35
ENDBRANCH   1  25
TORSDOF 4
ENDMDL
MODEL 3
REMARK VINA RESULT:     -10.3      2.385      4.461
REMARK  Name = 
REMARK  6 active torsions:
REMARK  status: ('A' for Active; 'I' for Inactive)
REMARK    1  A    between atoms: C_1  and  C_2
REMARK    2  A    between atoms: C_4  and  C_5
REMARK    3  A    between atoms: N_8  and  S_9
REMARK    4  A    between atoms: S_9  and  C_12
REMARK    5  A    between atoms: C_15  and  N_16
REMARK    6  A    between atoms: C_17  and  C_19
REMARK                            x       y       z     vdW  Elec       q    Type
REMARK                         _______ _______ _______ _____ _____    ______ ____
ROOT
ATOM      1  C   UNL     1      -0.306  10.791  21.673  0.00  0.00    +0.000 A 
ATOM      2  C   UNL     1       0.653  10.953  20.673  0.00  0.00    +0.000 A 
ATOM      3  C   UNL     1       1.458   9.868  20.299  0.00  0.00    +0.000 A 
ATOM      4  C   UNL     1       1.334   8.626  20.932  0.00  0.00    +0.000 A 
ATOM      5  C   UNL     1       0.361   8.479  21.932  0.00  0.00    +0.000 A 
ATOM      6  C   UNL     1      -0.451   9.558  22.310  0.00  0.00    +0.000 A 
ENDROOT
BRANCH   4   7
ATOM      7  N   UNL     1       2.161   7.509  20.645  0.00  0.00    +0.000 N 
ATOM      8  C   UNL     1       2.362   6.923  19.406  0.00  0.00    +0.000 C 
ATOM      9  O   UNL     1       1.858   7.285  18.349  0.00  0.00    +0.000 OA
ATOM     10  H   UNL     1       2.711   7.162  21.420  0.00  0.00    +0.000 HD
BRANCH   8  11
ATOM     11  C   UNL     1       3.343   5.802  19.347  0.00  0.00    +0.000 A 
ATOM     12  C   UNL     1       4.531   5.809  18.540  0.00  0.00    +0.000 A 
ATOM     13  C   UNL     1       4.925   6.713  17.518  0.00  0.00    +0.000 A 
ATOM     14  C   UNL     1       6.161   6.581  16.873  0.00  0.00    +0.000 A 
ATOM     15  C   UNL     1       7.080   5.652  17.338  0.00  0.00    +0.000 A 
ATOM     16  C   UNL     1       6.684   4.727  18.288  0.00  0.00    +0.000 A 
ATOM     17  C   UNL     1       5.380   4.714  18.747  0.00  0.00    +0.000 A 
ATOM     18  N   UNL     1       4.919   3.561  19.213  0.00  0.00    +0.000 NA
ATOM     19  C   UNL     1       3.613   3.501  19.473  0.00  0.00    +0.000 A 
ATOM     20  C   UNL     1       2.827   2.530  18.882  0.00  0.00    +0.000 A 
ATOM     21  C   UNL     1       1.442   2.533  19.049  0.00  0.00    +0.000 A 
ATOM     22  C   UNL     1       0.888   3.357  20.017  0.00  0.00    +0.000 A 
ATOM     23  C   UNL     1       1.674   4.364  20.558  0.00  0.00    +0.000 A 
ATOM     24  C   UNL     1       2.921   4.592  19.950  0.00  0.00    +0.000 A 
ENDBRANCH   8  11
ENDBRANCH   4   7
BRANCH   1  25
ATOM     25  S   UNL     1      -1.228  12.213  22.231  0.00  0.00    +0.000 S 
ATOM     26  O   UNL     1      -0.343  12.985  23.060  0.00  0.00    +0.000 OA
ATOM     27  O   UNL     1      -2.496  11.733  22.741  0.00  0.00    +0.000 OA
BRANCH  25  35
ATOM     28  C   UNL     1      -3.224  10.144  17.628  0.00  0.00    +0.000 C 
ATOM     29  C   UNL     1      -3.448  11.305  18.562  0.00  0.00    +0.000 A 
ATOM     30  C   UNL     1      -4.723  11.807  18.799  0.00  0.00    +0.000 A 
ATOM     31  C   UNL     1      -4.826  12.816  19.739  0.00  0.00    +0.000 A 
ATOM     32  C   UNL     1      -6.146  13.446  20.068  0.00  0.00    +0.000 C 
ATOM     33  N   UNL     1      -3.745  13.281  20.406  0.00  0.00    +0.000 NA
ATOM     34  C   UNL     1      -2.581  12.734  20.094  0.00  0.00    +0.000 A 
ATOM     35  N   UNL     1      -1.471  13.128  20.833  0.00  0.00    +0.000 N 
ATOM     36  N   UNL     1      -2.360  11.783  19.195  0.00  0.00    +0.000 NA
ATOM     37  H   UNL     1      -0.639  13.095  20.254  0.00  0.00    +0.000 HD
ENDBRANCH  25  35
ENDBRANCH   1  25
TORSDOF 4
ENDMDL
MODEL 4
REMARK VINA RESULT:     -10.1      2.089      4.549
REMARK  Name = 
REMARK  6 active torsions:
REMARK  status: ('A' for Active; 'I' for Inactive)
REMARK    1  A    between atoms: C_1  and  C_2
REMARK    2  A    between atoms: C_4  and  C_5
REMARK    3  A    between atoms: N_8  and  S_9
REMARK    4  A    between atoms: S_9  and  C_12
REMARK    5  A    between atoms: C_15  and  N_16
REMARK    6  A    between atoms: C_17  and  C_19
REMARK                            x       y       z     vdW  Elec       q    Type
REMARK                         _______ _______ _______ _____ _____    ______ ____
ROOT
ATOM      1  C   UNL     1      -0.414  10.721  21.170  0.00  0.00    +0.000 A 
ATOM      2  C   UNL     1       0.053  10.503  19.874  0.00  0.00    +0.000 A 
ATOM      3  C   UNL     1       0.897   9.415  19.611  0.00  0.00    +0.000 A 
ATOM      4  C   UNL     1       1.303   8.554  20.636  0.00  0.00    +0.000 A 
ATOM      5  C   UNL     1       0.819   8.783  21.934  0.00  0.00    +0.000 A 
ATOM      6  C   UNL     1      -0.029   9.867  22.204  0.00  0.00    +0.000 A 
ENDROOT
BRANCH   4   7
ATOM      7  N   UNL     1       2.205   7.475  20.449  0.00  0.00    +0.000 N 
ATOM      8  C   UNL     1       2.391   6.741  19.290  0.00  0.00    +0.000 C 
ATOM      9  O   UNL     1       1.802   6.913  18.228  0.00  0.00    +0.000 OA
ATOM     10  H   UNL     1       2.824   7.282  21.227  0.00  0.00    +0.000 HD
BRANCH   8  11
ATOM     11  C   UNL     1       3.460   5.702  19.318  0.00  0.00    +0.000 A 
ATOM     12  C   UNL     1       4.661   5.757  18.534  0.00  0.00    +0.000 A 
ATOM     13  C   UNL     1       5.005   6.626  17.464  0.00  0.00    +0.000 A 
ATOM     14  C   UNL     1       6.261   6.556  16.851  0.00  0.00    +0.000 A 
ATOM     15  C   UNL     1       7.241   5.735  17.390  0.00  0.00    +0.000 A 
ATOM     16  C   UNL     1       6.900   4.841  18.388  0.00  0.00    +0.000 A 
ATOM     17  C   UNL     1       5.590   4.749  18.824  0.00  0.00    +0.000 A 
ATOM     18  N   UNL     1       5.213   3.592  19.353  0.00  0.00    +0.000 NA
ATOM     19  C   UNL     1       3.910   3.443  19.593  0.00  0.00    +0.000 A 
ATOM     20  C   UNL     1       3.218   2.377  19.050  0.00  0.00    +0.000 A 
ATOM     21  C   UNL     1       1.834   2.277  19.191  0.00  0.00    +0.000 A 
ATOM     22  C   UNL     1       1.194   3.110  20.096  0.00  0.00    +0.000 A 
ATOM     23  C   UNL     1       1.884   4.209  20.587  0.00  0.00    +0.000 A 
ATOM     24  C   UNL     1       3.122   4.501  19.988  0.00  0.00    +0.000 A 
ENDBRANCH   8  11
ENDBRANCH   4   7
BRANCH   1  25
ATOM     25  S   UNL     1      -1.377  12.183  21.513  0.00  0.00    +0.000 S 
ATOM     26  O   UNL     1      -2.142  11.909  22.698  0.00  0.00    +0.000 OA
ATOM     27  O   UNL     1      -2.027  12.572  20.280  0.00  0.00    +0.000 OA
BRANCH  25  35
ATOM     28  C   UNL     1       2.623  13.830  18.235  0.00  0.00    +0.000 C 
ATOM     29  C   UNL     1       1.536  14.405  19.108  0.00  0.00    +0.000 A 
ATOM     30  C   UNL     1       0.871  15.575  18.757  0.00  0.00    +0.000 A 
ATOM     31  C   UNL     1      -0.167  15.968  19.582  0.00  0.00    +0.000 A 
ATOM     32  C   UNL     1      -0.947  17.220  19.315  0.00  0.00    +0.000 C 
ATOM     33  N   UNL     1      -0.527  15.244  20.666  0.00  0.00    +0.000 NA
ATOM     34  C   UNL     1       0.181  14.152  20.907  0.00  0.00    +0.000 A 
ATOM     35  N   UNL     1      -0.232  13.341  21.959  0.00  0.00    +0.000 N 
ATOM     36  N   UNL     1       1.208  13.694  20.202  0.00  0.00    +0.000 NA
ATOM     37  H   UNL     1       0.570  12.885  22.380  0.00  0.00    +0.000 HD
ENDBRANCH  25  35
ENDBRANCH   1  25
TORSDOF 4
ENDMDL
MODEL 5
REMARK VINA RESULT:     -10.0      1.981      4.182
REMARK  Name = 
REMARK  6 active torsions:
REMARK  status: ('A' for Active; 'I' for Inactive)
REMARK    1  A    between atoms: C_1  and  C_2
REMARK    2  A    between atoms: C_4  and  C_5
REMARK    3  A    between atoms: N_8  and  S_9
REMARK    4  A    between atoms: S_9  and  C_12
REMARK    5  A    between atoms: C_15  and  N_16
REMARK    6  A    between atoms: C_17  and  C_19
REMARK                            x       y       z     vdW  Elec       q    Type
REMARK                         _______ _______ _______ _____ _____    ______ ____
ROOT
ATOM      1  C   UNL     1      -0.092  11.007  20.973  0.00  0.00    +0.000 A 
ATOM      2  C   UNL     1       0.408  10.759  19.695  0.00  0.00    +0.000 A 
ATOM      3  C   UNL     1       1.168   9.607  19.456  0.00  0.00    +0.000 A 
ATOM      4  C   UNL     1       1.460   8.708  20.488  0.00  0.00    +0.000 A 
ATOM      5  C   UNL     1       0.945   8.969  21.768  0.00  0.00    +0.000 A 
ATOM      6  C   UNL     1       0.180  10.118  22.015  0.00  0.00    +0.000 A 
ENDROOT
BRANCH   4   7
ATOM      7  N   UNL     1       2.276   7.559  20.327  0.00  0.00    +0.000 N 
ATOM      8  C   UNL     1       2.430   6.807  19.175  0.00  0.00    +0.000 C 
ATOM      9  O   UNL     1       1.883   7.020  18.098  0.00  0.00    +0.000 OA
ATOM     10  H   UNL     1       2.858   7.321  21.120  0.00  0.00    +0.000 HD
BRANCH   8  11
ATOM     11  C   UNL     1       3.410   5.685  19.233  0.00  0.00    +0.000 A 
ATOM     12  C   UNL     1       4.639   5.646  18.492  0.00  0.00    +0.000 A 
ATOM     13  C   UNL     1       5.090   6.490  17.441  0.00  0.00    +0.000 A 
ATOM     14  C   UNL     1       6.358   6.322  16.872  0.00  0.00    +0.000 A 
ATOM     15  C   UNL     1       7.249   5.423  17.439  0.00  0.00    +0.000 A 
ATOM     16  C   UNL     1       6.801   4.554  18.418  0.00  0.00    +0.000 A 
ATOM     17  C   UNL     1       5.474   4.565  18.806  0.00  0.00    +0.000 A 
ATOM     18  N   UNL     1       4.986   3.441  19.312  0.00  0.00    +0.000 NA
ATOM     19  C   UNL     1       3.668   3.395  19.505  0.00  0.00    +0.000 A 
ATOM     20  C   UNL     1       2.912   2.391  18.930  0.00  0.00    +0.000 A 
ATOM     21  C   UNL     1       1.520   2.402  19.022  0.00  0.00    +0.000 A 
ATOM     22  C   UNL     1       0.918   3.280  19.910  0.00  0.00    +0.000 A 
ATOM     23  C   UNL     1       1.676   4.317  20.433  0.00  0.00    +0.000 A 
ATOM     24  C   UNL     1       2.954   4.511  19.880  0.00  0.00    +0.000 A 
ENDBRANCH   8  11
ENDBRANCH   4   7
BRANCH   1  25
ATOM     25  S   UNL     1      -0.943  12.542  21.292  0.00  0.00    +0.000 S 
ATOM     26  O   UNL     1      -0.459  13.494  20.330  0.00  0.00    +0.000 OA
ATOM     27  O   UNL     1      -0.844  12.804  22.713  0.00  0.00    +0.000 OA
BRANCH  25  35
ATOM     28  C   UNL     1      -4.991  12.335  24.901  0.00  0.00    +0.000 C 
ATOM     29  C   UNL     1      -4.652  12.986  23.584  0.00  0.00    +0.000 A 
ATOM     30  C   UNL     1      -5.095  14.268  23.276  0.00  0.00    +0.000 A 
ATOM     31  C   UNL     1      -4.656  14.804  22.079  0.00  0.00    +0.000 A 
ATOM     32  C   UNL     1      -5.078  16.171  21.633  0.00  0.00    +0.000 C 
ATOM     33  N   UNL     1      -3.825  14.123  21.257  0.00  0.00    +0.000 NA
ATOM     34  C   UNL     1      -3.474  12.908  21.648  0.00  0.00    +0.000 A 
ATOM     35  N   UNL     1      -2.546  12.228  20.867  0.00  0.00    +0.000 N 
ATOM     36  N   UNL     1      -3.852  12.285  22.758  0.00  0.00    +0.000 NA
ATOM     37  H   UNL     1      -2.722  11.230  20.911  0.00  0.00    +0.000 HD
ENDBRANCH  25  35
ENDBRANCH   1  25
TORSDOF 4
ENDMDL
MODEL 6
REMARK VINA RESULT:      -9.9      2.395      4.448
REMARK  Name = 
REMARK  6 active torsions:
REMARK  status: ('A' for Active; 'I' for Inactive)
REMARK    1  A    between atoms: C_1  and  C_2
REMARK    2  A    between atoms: C_4  and  C_5
REMARK    3  A    between atoms: N_8  and  S_9
REMARK    4  A    between atoms: S_9  and  C_12
REMARK    5  A    between atoms: C_15  and  N_16
REMARK    6  A    between atoms: C_17  and  C_19
REMARK                            x       y       z     vdW  Elec       q    Type
REMARK                         _______ _______ _______ _____ _____    ______ ____
ROOT
ATOM      1  C   UNL     1      -0.419  10.699  21.542  0.00  0.00    +0.000 A 
ATOM      2  C   UNL     1       0.147  10.626  20.269  0.00  0.00    +0.000 A 
ATOM      3  C   UNL     1       0.974   9.546  19.936  0.00  0.00    +0.000 A 
ATOM      4  C   UNL     1       1.267   8.546  20.871  0.00  0.00    +0.000 A 
ATOM      5  C   UNL     1       0.686   8.631  22.145  0.00  0.00    +0.000 A 
ATOM      6  C   UNL     1      -0.147   9.707  22.486  0.00  0.00    +0.000 A 
ENDROOT
BRANCH   4   7
ATOM      7  N   UNL     1       2.148   7.463  20.617  0.00  0.00    +0.000 N 
ATOM      8  C   UNL     1       2.344   6.820  19.407  0.00  0.00    +0.000 C 
ATOM      9  O   UNL     1       1.786   7.092  18.349  0.00  0.00    +0.000 OA
ATOM     10  H   UNL     1       2.742   7.192  21.391  0.00  0.00    +0.000 HD
BRANCH   8  11
ATOM     11  C   UNL     1       3.386   5.755  19.376  0.00  0.00    +0.000 A 
ATOM     12  C   UNL     1       4.563   5.799  18.554  0.00  0.00    +0.000 A 
ATOM     13  C   UNL     1       4.895   6.686  17.495  0.00  0.00    +0.000 A 
ATOM     14  C   UNL     1       6.129   6.600  16.840  0.00  0.00    +0.000 A 
ATOM     15  C   UNL     1       7.104   5.742  17.327  0.00  0.00    +0.000 A 
ATOM     16  C   UNL     1       6.772   4.832  18.314  0.00  0.00    +0.000 A 
ATOM     17  C   UNL     1       5.475   4.761  18.789  0.00  0.00    +0.000 A 
ATOM     18  N   UNL     1       5.085   3.602  19.302  0.00  0.00    +0.000 NA
ATOM     19  C   UNL     1       3.788   3.478  19.580  0.00  0.00    +0.000 A 
ATOM     20  C   UNL     1       3.051   2.444  19.034  0.00  0.00    +0.000 A 
ATOM     21  C   UNL     1       1.670   2.375  19.218  0.00  0.00    +0.000 A 
ATOM     22  C   UNL     1       1.081   3.201  20.162  0.00  0.00    +0.000 A 
ATOM     23  C   UNL     1       1.814   4.270  20.658  0.00  0.00    +0.000 A 
ATOM     24  C   UNL     1       3.040   4.545  20.026  0.00  0.00    +0.000 A 
ENDBRANCH   8  11
ENDBRANCH   4   7
BRANCH   1  25
ATOM     25  S   UNL     1      -1.360  12.146  21.995  0.00  0.00    +0.000 S 
ATOM     26  O   UNL     1      -0.415  13.210  22.196  0.00  0.00    +0.000 OA
ATOM     27  O   UNL     1      -2.277  11.755  23.045  0.00  0.00    +0.000 OA
BRANCH  25  35
ATOM     28  C   UNL     1      -6.772  12.507  21.811  0.00  0.00    +0.000 C 
ATOM     29  C   UNL     1      -5.549  13.300  21.426  0.00  0.00    +0.000 A 
ATOM     30  C   UNL     1      -5.536  14.689  21.500  0.00  0.00    +0.000 A 
ATOM     31  C   UNL     1      -4.337  15.313  21.206  0.00  0.00    +0.000 A 
ATOM     32  C   UNL     1      -4.205  16.806  21.237  0.00  0.00    +0.000 C 
ATOM     33  N   UNL     1      -3.230  14.609  20.879  0.00  0.00    +0.000 NA
ATOM     34  C   UNL     1      -3.361  13.293  20.833  0.00  0.00    +0.000 A 
ATOM     35  N   UNL     1      -2.214  12.544  20.593  0.00  0.00    +0.000 N 
ATOM     36  N   UNL     1      -4.463  12.590  21.069  0.00  0.00    +0.000 NA
ATOM     37  H   UNL     1      -2.452  11.699  20.086  0.00  0.00    +0.000 HD
ENDBRANCH  25  35
ENDBRANCH   1  25
TORSDOF 4
ENDMDL
MODEL 7
REMARK VINA RESULT:      -9.9      3.290      4.879
REMARK  Name = 
REMARK  6 active torsions:
REMARK  status: ('A' for Active; 'I' for Inactive)
REMARK    1  A    between atoms: C_1  and  C_2
REMARK    2  A    between atoms: C_4  and  C_5
REMARK    3  A    between atoms: N_8  and  S_9
REMARK    4  A    between atoms: S_9  and  C_12
REMARK    5  A    between atoms: C_15  and  N_16
REMARK    6  A    between atoms: C_17  and  C_19
REMARK                            x       y       z     vdW  Elec       q    Type
REMARK                         _______ _______ _______ _____ _____    ______ ____
ROOT
ATOM      1  C   UNL     1      -0.620  10.637  18.953  0.00  0.00    +0.000 A 
ATOM      2  C   UNL     1      -0.343  10.142  20.228  0.00  0.00    +0.000 A 
ATOM      3  C   UNL     1       0.653   9.170  20.396  0.00  0.00    +0.000 A 
ATOM      4  C   UNL     1       1.360   8.665  19.299  0.00  0.00    +0.000 A 
ATOM      5  C   UNL     1       1.074   9.178  18.025  0.00  0.00    +0.000 A 
ATOM      6  C   UNL     1       0.082  10.153  17.848  0.00  0.00    +0.000 A 
ENDROOT
BRANCH   4   7
ATOM      7  N   UNL     1       2.333   7.637  19.394  0.00  0.00    +0.000 N 
ATOM      8  C   UNL     1       2.381   6.470  18.649  0.00  0.00    +0.000 C 
ATOM      9  O   UNL     1       1.585   6.141  17.777  0.00  0.00    +0.000 OA
ATOM     10  H   UNL     1       3.106   7.822  20.020  0.00  0.00    +0.000 HD
BRANCH   8  11
ATOM     11  C   UNL     1       3.552   5.577  18.879  0.00  0.00    +0.000 A 
ATOM     12  C   UNL     1       4.714   5.534  18.037  0.00  0.00    +0.000 A 
ATOM     13  C   UNL     1       4.930   6.122  16.762  0.00  0.00    +0.000 A 
ATOM     14  C   UNL     1       6.165   6.009  16.113  0.00  0.00    +0.000 A 
ATOM     15  C   UNL     1       7.242   5.450  16.785  0.00  0.00    +0.000 A 
ATOM     16  C   UNL     1       7.029   4.820  17.998  0.00  0.00    +0.000 A 
ATOM     17  C   UNL     1       5.752   4.725  18.519  0.00  0.00    +0.000 A 
ATOM     18  N   UNL     1       5.514   3.717  19.348  0.00  0.00    +0.000 NA
ATOM     19  C   UNL     1       4.243   3.517  19.696  0.00  0.00    +0.000 A 
ATOM     20  C   UNL     1       3.646   2.288  19.486  0.00  0.00    +0.000 A 
ATOM     21  C   UNL     1       2.285   2.103  19.730  0.00  0.00    +0.000 A 
ATOM     22  C   UNL     1       1.594   3.081  20.427  0.00  0.00    +0.000 A 
ATOM     23  C   UNL     1       2.183   4.328  20.579  0.00  0.00    +0.000 A 
ATOM     24  C   UNL     1       3.363   4.565  19.853  0.00  0.00    +0.000 A 
ENDBRANCH   8  11
ENDBRANCH   4   7
BRANCH   1  25
ATOM     25  S   UNL     1      -1.979  11.772  18.737  0.00  0.00    +0.000 S 
ATOM     26  O   UNL     1      -1.424  12.991  18.214  0.00  0.00    +0.000 OA
ATOM     27  O   UNL     1      -2.744  11.771  19.967  0.00  0.00    +0.000 OA
BRANCH  25  35
ATOM     28  C   UNL     1      -6.856   9.511  19.482  0.00  0.00    +0.000 C 
ATOM     29  C   UNL     1      -6.178  10.526  18.597  0.00  0.00    +0.000 A 
ATOM     30  C   UNL     1      -6.855  11.651  18.137  0.00  0.00    +0.000 A 
ATOM     31  C   UNL     1      -6.116  12.561  17.404  0.00  0.00    +0.000 A 
ATOM     32  C   UNL     1      -6.741  13.803  16.843  0.00  0.00    +0.000 C 
ATOM     33  N   UNL     1      -4.799  12.376  17.159  0.00  0.00    +0.000 NA
ATOM     34  C   UNL     1      -4.261  11.266  17.640  0.00  0.00    +0.000 A 
ATOM     35  N   UNL     1      -2.889  11.101  17.484  0.00  0.00    +0.000 N 
ATOM     36  N   UNL     1      -4.876  10.315  18.332  0.00  0.00    +0.000 NA
ATOM     37  H   UNL     1      -2.667  10.116  17.389  0.00  0.00    +0.000 HD
ENDBRANCH  25  35
ENDBRANCH   1  25
TORSDOF 4
ENDMDL
MODEL 8
REMARK VINA RESULT:      -9.8      2.239      4.410
REMARK  Name = 
REMARK  6 active torsions:
REMARK  status: ('A' for Active; 'I' for Inactive)
REMARK    1  A    between atoms: C_1  and  C_2
REMARK    2  A    between atoms: C_4  and  C_5
REMARK    3  A    between atoms: N_8  and  S_9
REMARK    4  A    between atoms: S_9  and  C_12
REMARK    5  A    between atoms: C_15  and  N_16
REMARK    6  A    between atoms: C_17  and  C_19
REMARK                            x       y       z     vdW  Elec       q    Type
REMARK                         _______ _______ _______ _____ _____    ______ ____
ROOT
ATOM      1  C   UNL     1      -0.399  11.017  19.772  0.00  0.00    +0.000 A 
ATOM      2  C   UNL     1       0.210  10.641  18.575  0.00  0.00    +0.000 A 
ATOM      3  C   UNL     1       1.061   9.528  18.547  0.00  0.00    +0.000 A 
ATOM      4  C   UNL     1       1.333   8.799  19.710  0.00  0.00    +0.000 A 
ATOM      5  C   UNL     1       0.708   9.187  20.905  0.00  0.00    +0.000 A 
ATOM      6  C   UNL     1      -0.148  10.297  20.941  0.00  0.00    +0.000 A 
ENDROOT
BRANCH   4   7
ATOM      7  N   UNL     1       2.234   7.704  19.762  0.00  0.00    +0.000 N 
ATOM      8  C   UNL     1       2.358   6.688  18.829  0.00  0.00    +0.000 C 
ATOM      9  O   UNL     1       1.706   6.575  17.797  0.00  0.00    +0.000 OA
ATOM     10  H   UNL     1       2.900   7.721  20.525  0.00  0.00    +0.000 HD
BRANCH   8  11
ATOM     11  C   UNL     1       3.438   5.688  19.068  0.00  0.00    +0.000 A 
ATOM     12  C   UNL     1       4.739   5.742  18.465  0.00  0.00    +0.000 A 
ATOM     13  C   UNL     1       5.214   6.568  17.411  0.00  0.00    +0.000 A 
ATOM     14  C   UNL     1       6.548   6.510  16.990  0.00  0.00    +0.000 A 
ATOM     15  C   UNL     1       7.459   5.749  17.709  0.00  0.00    +0.000 A 
ATOM     16  C   UNL     1       6.998   4.895  18.694  0.00  0.00    +0.000 A 
ATOM     17  C   UNL     1       5.641   4.781  18.940  0.00  0.00    +0.000 A 
ATOM     18  N   UNL     1       5.220   3.641  19.470  0.00  0.00    +0.000 NA
ATOM     19  C   UNL     1       3.901   3.460  19.526  0.00  0.00    +0.000 A 
ATOM     20  C   UNL     1       3.323   2.346  18.947  0.00  0.00    +0.000 A 
ATOM     21  C   UNL     1       1.936   2.208  18.892  0.00  0.00    +0.000 A 
ATOM     22  C   UNL     1       1.150   3.064  19.648  0.00  0.00    +0.000 A 
ATOM     23  C   UNL     1       1.732   4.208  20.174  0.00  0.00    +0.000 A 
ATOM     24  C   UNL     1       3.037   4.510  19.745  0.00  0.00    +0.000 A 
ENDBRANCH   8  11
ENDBRANCH   4   7
BRANCH   1  25
ATOM     25  S   UNL     1      -1.371  12.512  19.820  0.00  0.00    +0.000 S 
ATOM     26  O   UNL     1      -0.891  13.285  20.933  0.00  0.00    +0.000 OA
ATOM     27  O   UNL     1      -2.764  12.126  19.728  0.00  0.00    +0.000 OA
BRANCH  25  35
ATOM     28  C   UNL     1      -0.088  17.786  19.840  0.00  0.00    +0.000 C 
ATOM     29  C   UNL     1       0.460  16.467  19.355  0.00  0.00    +0.000 A 
ATOM     30  C   UNL     1       1.827  16.213  19.342  0.00  0.00    +0.000 A 
ATOM     31  C   UNL     1       2.217  14.942  18.961  0.00  0.00    +0.000 A 
ATOM     32  C   UNL     1       3.664  14.556  18.894  0.00  0.00    +0.000 C 
ATOM     33  N   UNL     1       1.315  13.990  18.633  0.00  0.00    +0.000 NA
ATOM     34  C   UNL     1       0.041  14.346  18.674  0.00  0.00    +0.000 A 
ATOM     35  N   UNL     1      -0.908  13.357  18.434  0.00  0.00    +0.000 N 
ATOM     36  N   UNL     1      -0.446  15.537  18.999  0.00  0.00    +0.000 NA
ATOM     37  H   UNL     1      -1.725  13.761  17.991  0.00  0.00    +0.000 HD
ENDBRANCH  25  35
ENDBRANCH   1  25
TORSDOF 4
ENDMDL
MODEL 9
REMARK VINA RESULT:      -9.8      2.076      4.171
REMARK  Name = 
REMARK  6 active torsions:
REMARK  status: ('A' for Active; 'I' for Inactive)
REMARK    1  A    between atoms: C_1  and  C_2
REMARK    2  A    between atoms: C_4  and  C_5
REMARK    3  A    between atoms: N_8  and  S_9
REMARK    4  A    between atoms: S_9  and  C_12
REMARK    5  A    between atoms: C_15  and  N_16
REMARK    6  A    between atoms: C_17  and  C_19
REMARK                            x       y       z     vdW  Elec       q    Type
REMARK                         _______ _______ _______ _____ _____    ______ ____
ROOT
ATOM      1  C   UNL     1      -0.451  10.924  20.241  0.00  0.00    +0.000 A 
ATOM      2  C   UNL     1      -0.386  10.080  21.350  0.00  0.00    +0.000 A 
ATOM      3  C   UNL     1       0.509   9.002  21.353  0.00  0.00    +0.000 A 
ATOM      4  C   UNL     1       1.325   8.739  20.247  0.00  0.00    +0.000 A 
ATOM      5  C   UNL     1       1.252   9.601  19.142  0.00  0.00    +0.000 A 
ATOM      6  C   UNL     1       0.362  10.684  19.132  0.00  0.00    +0.000 A 
ENDROOT
BRANCH   4   7
ATOM      7  N   UNL     1       2.204   7.629  20.161  0.00  0.00    +0.000 N 
ATOM      8  C   UNL     1       2.376   6.789  19.073  0.00  0.00    +0.000 C 
ATOM      9  O   UNL     1       1.793   6.878  17.998  0.00  0.00    +0.000 OA
ATOM     10  H   UNL     1       2.816   7.493  20.956  0.00  0.00    +0.000 HD
BRANCH   8  11
ATOM     11  C   UNL     1       3.421   5.734  19.200  0.00  0.00    +0.000 A 
ATOM     12  C   UNL     1       4.661   5.734  18.477  0.00  0.00    +0.000 A 
ATOM     13  C   UNL     1       5.077   6.552  17.392  0.00  0.00    +0.000 A 
ATOM     14  C   UNL     1       6.361   6.434  16.848  0.00  0.00    +0.000 A 
ATOM     15  C   UNL     1       7.296   5.620  17.470  0.00  0.00    +0.000 A 
ATOM     16  C   UNL     1       6.886   4.774  18.485  0.00  0.00    +0.000 A 
ATOM     17  C   UNL     1       5.555   4.723  18.856  0.00  0.00    +0.000 A 
ATOM     18  N   UNL     1       5.128   3.597  19.411  0.00  0.00    +0.000 NA
ATOM     19  C   UNL     1       3.813   3.480  19.589  0.00  0.00    +0.000 A 
ATOM     20  C   UNL     1       3.128   2.405  19.055  0.00  0.00    +0.000 A 
ATOM     21  C   UNL     1       1.737   2.336  19.129  0.00  0.00    +0.000 A 
ATOM     22  C   UNL     1       1.068   3.217  19.964  0.00  0.00    +0.000 A 
ATOM     23  C   UNL     1       1.754   4.323  20.445  0.00  0.00    +0.000 A 
ATOM     24  C   UNL     1       3.026   4.568  19.899  0.00  0.00    +0.000 A 
ENDBRANCH   8  11
ENDBRANCH   4   7
BRANCH   1  25
ATOM     25  S   UNL     1      -1.687  12.209  20.197  0.00  0.00    +0.000 S 
ATOM     26  O   UNL     1      -2.769  11.719  19.388  0.00  0.00    +0.000 OA
ATOM     27  O   UNL     1      -1.013  13.448  19.868  0.00  0.00    +0.000 OA
BRANCH  25  35
ATOM     28  C   UNL     1      -4.300  16.511  22.227  0.00  0.00    +0.000 C 
ATOM     29  C   UNL     1      -4.459  15.017  22.106  0.00  0.00    +0.000 A 
ATOM     30  C   UNL     1      -5.710  14.435  21.935  0.00  0.00    +0.000 A 
ATOM     31  C   UNL     1      -5.735  13.065  21.748  0.00  0.00    +0.000 A 
ATOM     32  C   UNL     1      -7.026  12.324  21.568  0.00  0.00    +0.000 C 
ATOM     33  N   UNL     1      -4.600  12.330  21.718  0.00  0.00    +0.000 NA
ATOM     34  C   UNL     1      -3.467  12.989  21.899  0.00  0.00    +0.000 A 
ATOM     35  N   UNL     1      -2.282  12.271  21.777  0.00  0.00    +0.000 N 
ATOM     36  N   UNL     1      -3.325  14.292  22.111  0.00  0.00    +0.000 NA
ATOM     37  H   UNL     1      -1.576  12.658  22.393  0.00  0.00    +0.000 HD
ENDBRANCH  25  35
ENDBRANCH   1  25
TORSDOF 4
ENDMDL
