MODEL 1
REMARK VINA RESULT:      -7.3      0.000      0.000
REMARK  Name = 
REMARK  5 active torsions:
REMARK  status: ('A' for Active; 'I' for Inactive)
REMARK    1  A    between atoms: C_1  and  C_2
REMARK    2  A    between atoms: C_2  and  C_3
REMARK    3  A    between atoms: N_7  and  C_8
REMARK    4  A    between atoms: C_8  and  C_9
REMARK    5  A    between atoms: C_15  and  C_16
REMARK                            x       y       z     vdW  Elec       q    Type
REMARK                         _______ _______ _______ _____ _____    ______ ____
ROOT
ATOM      1  C   UNL     1       3.568   6.181  18.171  0.00  0.00    +0.000 C 
ATOM      2  O   UNL     1       3.522   7.281  18.734  0.00  0.00    +0.000 OA
ATOM      3  N   UNL     1       4.785   5.608  17.811  0.00  0.00    +0.000 N 
ATOM      4  C   UNL     1       6.025   6.234  18.273  0.00  0.00    +0.000 C 
ATOM      5  C   UNL     1       6.711   6.952  17.119  0.00  0.00    +0.000 C 
ATOM      6  C   UNL     1       6.956   5.982  15.962  0.00  0.00    +0.000 C 
ATOM      7  C   UNL     1       5.660   5.266  15.536  0.00  0.00    +0.000 C 
ATOM      8  C   UNL     1       4.961   4.624  16.742  0.00  0.00    +0.000 C 
ENDROOT
BRANCH   7   9
ATOM      9  C   UNL     1       5.913   4.229  14.449  0.00  0.00    +0.000 C 
ATOM     10  F   UNL     1       4.859   4.100  13.612  0.00  0.00    +0.000 F 
ATOM     11  F   UNL     1       6.990   4.528  13.693  0.00  0.00    +0.000 F 
ATOM     12  F   UNL     1       6.134   3.014  15.002  0.00  0.00    +0.000 F 
ENDBRANCH   7   9
BRANCH   1  13
ATOM     13  C   UNL     1       2.278   5.393  17.923  0.00  0.00    +0.000 C 
BRANCH  13  20
ATOM     14  C   UNL     1       1.313   2.441  21.681  0.00  0.00    +0.000 C 
ATOM     15  C   UNL     1       2.311   2.717  20.568  0.00  0.00    +0.000 C 
ATOM     16  C   UNL     1       3.731   2.327  20.975  0.00  0.00    +0.000 C 
ATOM     17  N   UNL     1       1.947   2.077  19.329  0.00  0.00    +0.000 N 
ATOM     18  C   UNL     1       2.023   2.959  18.271  0.00  0.00    +0.000 C 
ATOM     19  O   UNL     1       2.059   2.607  17.103  0.00  0.00    +0.000 OA
ATOM     20  N   UNL     1       2.082   4.224  18.757  0.00  0.00    +0.000 N 
ATOM     21  C   UNL     1       2.292   4.191  20.113  0.00  0.00    +0.000 C 
ATOM     22  O   UNL     1       2.511   5.147  20.843  0.00  0.00    +0.000 OA
ATOM     23  H   UNL     1       2.002   1.081  19.151  0.00  0.00    +0.000 HD
ENDBRANCH  13  20
ENDBRANCH   1  13
TORSDOF 3
ENDMDL
MODEL 2
REMARK VINA RESULT:      -7.3      3.220      5.290
REMARK  Name = 
REMARK  5 active torsions:
REMARK  status: ('A' for Active; 'I' for Inactive)
REMARK    1  A    between atoms: C_1  and  C_2
REMARK    2  A    between atoms: C_2  and  C_3
REMARK    3  A    between atoms: N_7  and  C_8
REMARK    4  A    between atoms: C_8  and  C_9
REMARK    5  A    between atoms: C_15  and  C_16
REMARK                            x       y       z     vdW  Elec       q    Type
REMARK                         _______ _______ _______ _____ _____    ______ ____
ROOT
ATOM      1  C   UNL     1       2.165   5.731  19.620  0.00  0.00    +0.000 C 
ATOM      2  O   UNL     1       1.526   5.249  20.563  0.00  0.00    +0.000 OA
ATOM      3  N   UNL     1       2.367   5.010  18.446  0.00  0.00    +0.000 N 
ATOM      4  C   UNL     1       1.655   3.745  18.262  0.00  0.00    +0.000 C 
ATOM      5  C   UNL     1       2.613   2.574  18.430  0.00  0.00    +0.000 C 
ATOM      6  C   UNL     1       3.792   2.712  17.467  0.00  0.00    +0.000 C 
ATOM      7  C   UNL     1       4.487   4.079  17.610  0.00  0.00    +0.000 C 
ATOM      8  C   UNL     1       3.473   5.227  17.512  0.00  0.00    +0.000 C 
ENDROOT
BRANCH   7   9
ATOM      9  C   UNL     1       5.602   4.261  16.587  0.00  0.00    +0.000 C 
ATOM     10  F   UNL     1       5.732   3.186  15.778  0.00  0.00    +0.000 F 
ATOM     11  F   UNL     1       5.405   5.335  15.796  0.00  0.00    +0.000 F 
ATOM     12  F   UNL     1       6.789   4.435  17.214  0.00  0.00    +0.000 F 
ENDBRANCH   7   9
BRANCH   1  13
ATOM     13  C   UNL     1       2.691   7.167  19.705  0.00  0.00    +0.000 C 
BRANCH  13  20
ATOM     14  C   UNL     1      -0.655  10.291  18.026  0.00  0.00    +0.000 C 
ATOM     15  C   UNL     1       0.590  10.182  18.892  0.00  0.00    +0.000 C 
ATOM     16  C   UNL     1       1.417  11.467  18.855  0.00  0.00    +0.000 C 
ATOM     17  N   UNL     1       0.287   9.815  20.251  0.00  0.00    +0.000 N 
ATOM     18  C   UNL     1       1.099   8.786  20.684  0.00  0.00    +0.000 C 
ATOM     19  O   UNL     1       1.252   8.498  21.859  0.00  0.00    +0.000 OA
ATOM     20  N   UNL     1       1.690   8.211  19.607  0.00  0.00    +0.000 N 
ATOM     21  C   UNL     1       1.480   8.986  18.494  0.00  0.00    +0.000 C 
ATOM     22  O   UNL     1       1.971   8.823  17.385  0.00  0.00    +0.000 OA
ATOM     23  H   UNL     1      -0.151  10.422  20.935  0.00  0.00    +0.000 HD
ENDBRANCH  13  20
ENDBRANCH   1  13
TORSDOF 3
ENDMDL
MODEL 3
REMARK VINA RESULT:      -7.0      2.369      3.542
REMARK  Name = 
REMARK  5 active torsions:
REMARK  status: ('A' for Active; 'I' for Inactive)
REMARK    1  A    between atoms: C_1  and  C_2
REMARK    2  A    between atoms: C_2  and  C_3
REMARK    3  A    between atoms: N_7  and  C_8
REMARK    4  A    between atoms: C_8  and  C_9
REMARK    5  A    between atoms: C_15  and  C_16
REMARK                            x       y       z     vdW  Elec       q    Type
REMARK                         _______ _______ _______ _____ _____    ______ ____
ROOT
ATOM      1  C   UNL     1       5.959   5.640  15.837  0.00  0.00    +0.000 C 
ATOM      2  O   UNL     1       6.646   6.629  16.121  0.00  0.00    +0.000 OA
ATOM      3  N   UNL     1       6.409   4.691  14.922  0.00  0.00    +0.000 N 
ATOM      4  C   UNL     1       7.787   4.775  14.438  0.00  0.00    +0.000 C 
ATOM      5  C   UNL     1       7.810   5.283  13.003  0.00  0.00    +0.000 C 
ATOM      6  C   UNL     1       6.943   4.392  12.112  0.00  0.00    +0.000 C 
ATOM      7  C   UNL     1       5.515   4.244  12.673  0.00  0.00    +0.000 C 
ATOM      8  C   UNL     1       5.542   3.806  14.143  0.00  0.00    +0.000 C 
ENDROOT
BRANCH   7   9
ATOM      9  C   UNL     1       4.675   3.281  11.843  0.00  0.00    +0.000 C 
ATOM     10  F   UNL     1       3.523   2.944  12.465  0.00  0.00    +0.000 F 
ATOM     11  F   UNL     1       4.344   3.793  10.639  0.00  0.00    +0.000 F 
ATOM     12  F   UNL     1       5.358   2.135  11.620  0.00  0.00    +0.000 F 
ENDBRANCH   7   9
BRANCH   1  13
ATOM     13  C   UNL     1       4.621   5.408  16.545  0.00  0.00    +0.000 C 
BRANCH  13  20
ATOM     14  C   UNL     1       3.671   1.097  18.615  0.00  0.00    +0.000 C 
ATOM     15  C   UNL     1       3.714   2.594  18.874  0.00  0.00    +0.000 C 
ATOM     16  C   UNL     1       2.672   3.017  19.909  0.00  0.00    +0.000 C 
ATOM     17  N   UNL     1       5.024   3.052  19.260  0.00  0.00    +0.000 N 
ATOM     18  C   UNL     1       5.397   4.166  18.537  0.00  0.00    +0.000 C 
ATOM     19  O   UNL     1       6.305   4.911  18.869  0.00  0.00    +0.000 OA
ATOM     20  N   UNL     1       4.579   4.286  17.461  0.00  0.00    +0.000 N 
ATOM     21  C   UNL     1       3.522   3.420  17.584  0.00  0.00    +0.000 C 
ATOM     22  O   UNL     1       2.543   3.353  16.855  0.00  0.00    +0.000 OA
ATOM     23  H   UNL     1       5.463   2.870  20.156  0.00  0.00    +0.000 HD
ENDBRANCH  13  20
ENDBRANCH   1  13
TORSDOF 3
ENDMDL
MODEL 4
REMARK VINA RESULT:      -6.9      1.952      2.588
REMARK  Name = 
REMARK  5 active torsions:
REMARK  status: ('A' for Active; 'I' for Inactive)
REMARK    1  A    between atoms: C_1  and  C_2
REMARK    2  A    between atoms: C_2  and  C_3
REMARK    3  A    between atoms: N_7  and  C_8
REMARK    4  A    between atoms: C_8  and  C_9
REMARK    5  A    between atoms: C_15  and  C_16
REMARK                            x       y       z     vdW  Elec       q    Type
REMARK                         _______ _______ _______ _____ _____    ______ ____
ROOT
ATOM      1  C   UNL     1       5.205   4.086  17.259  0.00  0.00    +0.000 C 
ATOM      2  O   UNL     1       5.237   5.014  18.076  0.00  0.00    +0.000 OA
ATOM      3  N   UNL     1       6.199   3.944  16.295  0.00  0.00    +0.000 N 
ATOM      4  C   UNL     1       7.388   4.793  16.374  0.00  0.00    +0.000 C 
ATOM      5  C   UNL     1       7.340   5.865  15.295  0.00  0.00    +0.000 C 
ATOM      6  C   UNL     1       7.188   5.222  13.916  0.00  0.00    +0.000 C 
ATOM      7  C   UNL     1       5.981   4.266  13.864  0.00  0.00    +0.000 C 
ATOM      8  C   UNL     1       6.029   3.253  15.015  0.00  0.00    +0.000 C 
ENDROOT
BRANCH   7   9
ATOM      9  C   UNL     1       5.879   3.549  12.523  0.00  0.00    +0.000 C 
ATOM     10  F   UNL     1       6.115   2.222  12.636  0.00  0.00    +0.000 F 
ATOM     11  F   UNL     1       4.665   3.692  11.953  0.00  0.00    +0.000 F 
ATOM     12  F   UNL     1       6.793   4.044  11.657  0.00  0.00    +0.000 F 
ENDBRANCH   7   9
BRANCH   1  13
ATOM     13  C   UNL     1       4.096   3.032  17.339  0.00  0.00    +0.000 C 
BRANCH  13  20
ATOM     14  C   UNL     1       0.458   3.201  20.581  0.00  0.00    +0.000 C 
ATOM     15  C   UNL     1       1.855   3.721  20.283  0.00  0.00    +0.000 C 
ATOM     16  C   UNL     1       2.068   5.123  20.854  0.00  0.00    +0.000 C 
ATOM     17  N   UNL     1       2.887   2.826  20.742  0.00  0.00    +0.000 N 
ATOM     18  C   UNL     1       3.831   2.607  19.761  0.00  0.00    +0.000 C 
ATOM     19  O   UNL     1       4.938   2.143  19.982  0.00  0.00    +0.000 OA
ATOM     20  N   UNL     1       3.329   3.018  18.569  0.00  0.00    +0.000 N 
ATOM     21  C   UNL     1       2.172   3.727  18.773  0.00  0.00    +0.000 C 
ATOM     22  O   UNL     1       1.529   4.336  17.930  0.00  0.00    +0.000 OA
ATOM     23  H   UNL     1       3.135   2.674  21.713  0.00  0.00    +0.000 HD
ENDBRANCH  13  20
ENDBRANCH   1  13
TORSDOF 3
ENDMDL
MODEL 5
REMARK VINA RESULT:      -6.9      2.410      5.071
REMARK  Name = 
REMARK  5 active torsions:
REMARK  status: ('A' for Active; 'I' for Inactive)
REMARK    1  A    between atoms: C_1  and  C_2
REMARK    2  A    between atoms: C_2  and  C_3
REMARK    3  A    between atoms: N_7  and  C_8
REMARK    4  A    between atoms: C_8  and  C_9
REMARK    5  A    between atoms: C_15  and  C_16
REMARK                            x       y       z     vdW  Elec       q    Type
REMARK                         _______ _______ _______ _____ _____    ______ ____
ROOT
ATOM      1  C   UNL     1       2.693   6.463  19.065  0.00  0.00    +0.000 C 
ATOM      2  O   UNL     1       2.706   7.174  20.077  0.00  0.00    +0.000 OA
ATOM      3  N   UNL     1       2.074   5.216  19.071  0.00  0.00    +0.000 N 
ATOM      4  C   UNL     1       1.272   4.831  20.232  0.00  0.00    +0.000 C 
ATOM      5  C   UNL     1       2.014   3.792  21.061  0.00  0.00    +0.000 C 
ATOM      6  C   UNL     1       2.382   2.587  20.195  0.00  0.00    +0.000 C 
ATOM      7  C   UNL     1       3.156   3.010  18.932  0.00  0.00    +0.000 C 
ATOM      8  C   UNL     1       2.410   4.112  18.170  0.00  0.00    +0.000 C 
ENDROOT
BRANCH   7   9
ATOM      9  C   UNL     1       3.442   1.825  18.016  0.00  0.00    +0.000 C 
ATOM     10  F   UNL     1       2.357   1.465  17.295  0.00  0.00    +0.000 F 
ATOM     11  F   UNL     1       4.437   2.080  17.141  0.00  0.00    +0.000 F 
ATOM     12  F   UNL     1       3.812   0.748  18.745  0.00  0.00    +0.000 F 
ENDBRANCH   7   9
BRANCH   1  13
ATOM     13  C   UNL     1       3.306   6.979  17.759  0.00  0.00    +0.000 C 
BRANCH  13  20
ATOM     14  C   UNL     1       7.490   4.478  17.813  0.00  0.00    +0.000 C 
ATOM     15  C   UNL     1       6.899   5.868  17.641  0.00  0.00    +0.000 C 
ATOM     16  C   UNL     1       7.854   6.952  18.139  0.00  0.00    +0.000 C 
ATOM     17  N   UNL     1       6.498   6.133  16.283  0.00  0.00    +0.000 N 
ATOM     18  C   UNL     1       5.225   6.663  16.233  0.00  0.00    +0.000 C 
ATOM     19  O   UNL     1       4.774   7.242  15.258  0.00  0.00    +0.000 OA
ATOM     20  N   UNL     1       4.616   6.455  17.427  0.00  0.00    +0.000 N 
ATOM     21  C   UNL     1       5.536   6.019  18.347  0.00  0.00    +0.000 C 
ATOM     22  O   UNL     1       5.350   5.850  19.544  0.00  0.00    +0.000 OA
ATOM     23  H   UNL     1       7.133   6.292  15.509  0.00  0.00    +0.000 HD
ENDBRANCH  13  20
ENDBRANCH   1  13
TORSDOF 3
ENDMDL
MODEL 6
REMARK VINA RESULT:      -6.8      4.335      6.210
REMARK  Name = 
REMARK  5 active torsions:
REMARK  status: ('A' for Active; 'I' for Inactive)
REMARK    1  A    between atoms: C_1  and  C_2
REMARK    2  A    between atoms: C_2  and  C_3
REMARK    3  A    between atoms: N_7  and  C_8
REMARK    4  A    between atoms: C_8  and  C_9
REMARK    5  A    between atoms: C_15  and  C_16
REMARK                            x       y       z     vdW  Elec       q    Type
REMARK                         _______ _______ _______ _____ _____    ______ ____
ROOT
ATOM      1  C   UNL     1       2.131   6.099  20.030  0.00  0.00    +0.000 C 
ATOM      2  O   UNL     1       1.815   5.308  20.927  0.00  0.00    +0.000 OA
ATOM      3  N   UNL     1       2.042   7.475  20.221  0.00  0.00    +0.000 N 
ATOM      4  C   UNL     1       1.748   7.985  21.561  0.00  0.00    +0.000 C 
ATOM      5  C   UNL     1       0.315   8.493  21.628  0.00  0.00    +0.000 C 
ATOM      6  C   UNL     1       0.078   9.550  20.549  0.00  0.00    +0.000 C 
ATOM      7  C   UNL     1       0.466   9.033  19.150  0.00  0.00    +0.000 C 
ATOM      8  C   UNL     1       1.889   8.460  19.149  0.00  0.00    +0.000 C 
ENDROOT
BRANCH   7   9
ATOM      9  C   UNL     1       0.322  10.113  18.084  0.00  0.00    +0.000 C 
ATOM     10  F   UNL     1      -0.704   9.863  17.240  0.00  0.00    +0.000 F 
ATOM     11  F   UNL     1       0.115  11.336  18.614  0.00  0.00    +0.000 F 
ATOM     12  F   UNL     1       1.447  10.183  17.335  0.00  0.00    +0.000 F 
ENDBRANCH   7   9
BRANCH   1  13
ATOM     13  C   UNL     1       2.695   5.571  18.707  0.00  0.00    +0.000 C 
BRANCH  13  20
ATOM     14  C   UNL     1       7.562   5.797  18.531  0.00  0.00    +0.000 C 
ATOM     15  C   UNL     1       6.354   5.040  18.005  0.00  0.00    +0.000 C 
ATOM     16  C   UNL     1       6.597   4.499  16.596  0.00  0.00    +0.000 C 
ATOM     17  N   UNL     1       5.938   3.980  18.888  0.00  0.00    +0.000 N 
ATOM     18  C   UNL     1       4.577   4.020  19.110  0.00  0.00    +0.000 C 
ATOM     19  O   UNL     1       3.941   3.083  19.564  0.00  0.00    +0.000 OA
ATOM     20  N   UNL     1       4.103   5.228  18.715  0.00  0.00    +0.000 N 
ATOM     21  C   UNL     1       5.072   5.899  18.012  0.00  0.00    +0.000 C 
ATOM     22  O   UNL     1       4.941   6.958  17.415  0.00  0.00    +0.000 OA
ATOM     23  H   UNL     1       6.440   3.110  19.029  0.00  0.00    +0.000 HD
ENDBRANCH  13  20
ENDBRANCH   1  13
TORSDOF 3
ENDMDL
MODEL 7
REMARK VINA RESULT:      -6.8      3.089      5.962
REMARK  Name = 
REMARK  5 active torsions:
REMARK  status: ('A' for Active; 'I' for Inactive)
REMARK    1  A    between atoms: C_1  and  C_2
REMARK    2  A    between atoms: C_2  and  C_3
REMARK    3  A    between atoms: N_7  and  C_8
REMARK    4  A    between atoms: C_8  and  C_9
REMARK    5  A    between atoms: C_15  and  C_16
REMARK                            x       y       z     vdW  Elec       q    Type
REMARK                         _______ _______ _______ _____ _____    ______ ____
ROOT
ATOM      1  C   UNL     1       4.123   6.379  17.930  0.00  0.00    +0.000 C 
ATOM      2  O   UNL     1       3.411   7.386  17.833  0.00  0.00    +0.000 OA
ATOM      3  N   UNL     1       3.566   5.103  17.926  0.00  0.00    +0.000 N 
ATOM      4  C   UNL     1       2.144   4.953  17.615  0.00  0.00    +0.000 C 
ATOM      5  C   UNL     1       1.362   4.632  18.880  0.00  0.00    +0.000 C 
ATOM      6  C   UNL     1       1.934   3.385  19.555  0.00  0.00    +0.000 C 
ATOM      7  C   UNL     1       3.448   3.518  19.805  0.00  0.00    +0.000 C 
ATOM      8  C   UNL     1       4.187   3.919  18.522  0.00  0.00    +0.000 C 
ENDROOT
BRANCH   7   9
ATOM      9  C   UNL     1       4.043   2.243  20.390  0.00  0.00    +0.000 C 
ATOM     10  F   UNL     1       3.845   1.173  19.587  0.00  0.00    +0.000 F 
ATOM     11  F   UNL     1       5.372   2.344  20.601  0.00  0.00    +0.000 F 
ATOM     12  F   UNL     1       3.466   1.959  21.580  0.00  0.00    +0.000 F 
ENDBRANCH   7   9
BRANCH   1  13
ATOM     13  C   UNL     1       5.647   6.522  17.990  0.00  0.00    +0.000 C 
BRANCH  13  20
ATOM     14  C   UNL     1       7.616   5.399  13.673  0.00  0.00    +0.000 C 
ATOM     15  C   UNL     1       6.844   4.825  14.851  0.00  0.00    +0.000 C 
ATOM     16  C   UNL     1       5.914   3.693  14.418  0.00  0.00    +0.000 C 
ATOM     17  N   UNL     1       7.708   4.390  15.918  0.00  0.00    +0.000 N 
ATOM     18  C   UNL     1       7.275   4.867  17.138  0.00  0.00    +0.000 C 
ATOM     19  O   UNL     1       7.642   4.411  18.208  0.00  0.00    +0.000 OA
ATOM     20  N   UNL     1       6.383   5.867  16.926  0.00  0.00    +0.000 N 
ATOM     21  C   UNL     1       6.031   5.901  15.600  0.00  0.00    +0.000 C 
ATOM     22  O   UNL     1       5.165   6.599  15.091  0.00  0.00    +0.000 OA
ATOM     23  H   UNL     1       8.301   3.568  15.888  0.00  0.00    +0.000 HD
ENDBRANCH  13  20
ENDBRANCH   1  13
TORSDOF 3
ENDMDL
MODEL 8
REMARK VINA RESULT:      -6.8      5.067      6.675
REMARK  Name = 
REMARK  5 active torsions:
REMARK  status: ('A' for Active; 'I' for Inactive)
REMARK    1  A    between atoms: C_1  and  C_2
REMARK    2  A    between atoms: C_2  and  C_3
REMARK    3  A    between atoms: N_7  and  C_8
REMARK    4  A    between atoms: C_8  and  C_9
REMARK    5  A    between atoms: C_15  and  C_16
REMARK                            x       y       z     vdW  Elec       q    Type
REMARK                         _______ _______ _______ _____ _____    ______ ____
ROOT
ATOM      1  C   UNL     1       2.228   7.775  18.957  0.00  0.00    +0.000 C 
ATOM      2  O   UNL     1       2.625   8.498  18.035  0.00  0.00    +0.000 OA
ATOM      3  N   UNL     1       2.819   6.540  19.208  0.00  0.00    +0.000 N 
ATOM      4  C   UNL     1       4.042   6.183  18.488  0.00  0.00    +0.000 C 
ATOM      5  C   UNL     1       3.738   5.141  17.422  0.00  0.00    +0.000 C 
ATOM      6  C   UNL     1       3.066   3.919  18.050  0.00  0.00    +0.000 C 
ATOM      7  C   UNL     1       1.825   4.313  18.873  0.00  0.00    +0.000 C 
ATOM      8  C   UNL     1       2.160   5.420  19.882  0.00  0.00    +0.000 C 
ENDROOT
BRANCH   7   9
ATOM      9  C   UNL     1       1.206   3.113  19.581  0.00  0.00    +0.000 C 
ATOM     10  F   UNL     1       0.660   3.449  20.771  0.00  0.00    +0.000 F 
ATOM     11  F   UNL     1       0.238   2.527  18.848  0.00  0.00    +0.000 F 
ATOM     12  F   UNL     1       2.151   2.176  19.826  0.00  0.00    +0.000 F 
ENDBRANCH   7   9
BRANCH   1  13
ATOM     13  C   UNL     1       1.114   8.265  19.887  0.00  0.00    +0.000 C 
BRANCH  13  20
ATOM     14  C   UNL     1       1.205  13.050  20.816  0.00  0.00    +0.000 C 
ATOM     15  C   UNL     1       0.279  11.864  20.607  0.00  0.00    +0.000 C 
ATOM     16  C   UNL     1      -1.010  12.005  21.415  0.00  0.00    +0.000 C 
ATOM     17  N   UNL     1      -0.019  11.634  19.216  0.00  0.00    +0.000 N 
ATOM     18  C   UNL     1       0.142  10.305  18.883  0.00  0.00    +0.000 C 
ATOM     19  O   UNL     1      -0.323   9.802  17.874  0.00  0.00    +0.000 OA
ATOM     20  N   UNL     1       0.853   9.691  19.862  0.00  0.00    +0.000 N 
ATOM     21  C   UNL     1       0.957  10.520  20.950  0.00  0.00    +0.000 C 
ATOM     22  O   UNL     1       1.428  10.239  22.043  0.00  0.00    +0.000 OA
ATOM     23  H   UNL     1      -0.618  12.220  18.645  0.00  0.00    +0.000 HD
ENDBRANCH  13  20
ENDBRANCH   1  13
TORSDOF 3
ENDMDL
MODEL 9
REMARK VINA RESULT:      -6.7      1.986      2.462
REMARK  Name = 
REMARK  5 active torsions:
REMARK  status: ('A' for Active; 'I' for Inactive)
REMARK    1  A    between atoms: C_1  and  C_2
REMARK    2  A    between atoms: C_2  and  C_3
REMARK    3  A    between atoms: N_7  and  C_8
REMARK    4  A    between atoms: C_8  and  C_9
REMARK    5  A    between atoms: C_15  and  C_16
REMARK                            x       y       z     vdW  Elec       q    Type
REMARK                         _______ _______ _______ _____ _____    ______ ____
ROOT
ATOM      1  C   UNL     1       5.061   4.403  16.895  0.00  0.00    +0.000 C 
ATOM      2  O   UNL     1       5.212   5.388  17.628  0.00  0.00    +0.000 OA
ATOM      3  N   UNL     1       6.052   4.018  15.996  0.00  0.00    +0.000 N 
ATOM      4  C   UNL     1       7.356   4.679  16.056  0.00  0.00    +0.000 C 
ATOM      5  C   UNL     1       7.514   5.638  14.886  0.00  0.00    +0.000 C 
ATOM      6  C   UNL     1       7.308   4.899  13.563  0.00  0.00    +0.000 C 
ATOM      7  C   UNL     1       5.968   4.140  13.539  0.00  0.00    +0.000 C 
ATOM      8  C   UNL     1       5.818   3.244  14.776  0.00  0.00    +0.000 C 
ENDROOT
BRANCH   7   9
ATOM      9  C   UNL     1       5.799   3.323  12.263  0.00  0.00    +0.000 C 
ATOM     10  F   UNL     1       5.675   2.001  12.517  0.00  0.00    +0.000 F 
ATOM     11  F   UNL     1       4.715   3.697  11.552  0.00  0.00    +0.000 F 
ATOM     12  F   UNL     1       6.878   3.477  11.462  0.00  0.00    +0.000 F 
ENDBRANCH   7   9
BRANCH   1  13
ATOM     13  C   UNL     1       3.798   3.545  17.016  0.00  0.00    +0.000 C 
BRANCH  13  20
ATOM     14  C   UNL     1       2.276   4.426  21.563  0.00  0.00    +0.000 C 
ATOM     15  C   UNL     1       2.034   3.556  20.341  0.00  0.00    +0.000 C 
ATOM     16  C   UNL     1       1.528   2.167  20.728  0.00  0.00    +0.000 C 
ATOM     17  N   UNL     1       1.143   4.172  19.391  0.00  0.00    +0.000 N 
ATOM     18  C   UNL     1       1.654   4.108  18.111  0.00  0.00    +0.000 C 
ATOM     19  O   UNL     1       0.982   4.281  17.108  0.00  0.00    +0.000 OA
ATOM     20  N   UNL     1       2.973   3.798  18.181  0.00  0.00    +0.000 N 
ATOM     21  C   UNL     1       3.294   3.417  19.459  0.00  0.00    +0.000 C 
ATOM     22  O   UNL     1       4.363   2.963  19.841  0.00  0.00    +0.000 OA
ATOM     23  H   UNL     1       0.144   4.290  19.522  0.00  0.00    +0.000 HD
ENDBRANCH  13  20
ENDBRANCH   1  13
TORSDOF 3
ENDMDL
