MODEL 1
REMARK VINA RESULT:      -6.7      0.000      0.000
REMARK  Name = 
REMARK  10 active torsions:
REMARK  status: ('A' for Active; 'I' for Inactive)
REMARK    1  A    between atoms: C_1  and  C_2
REMARK    2  A    between atoms: C_2  and  C_3
REMARK    3  A    between atoms: C_2  and  C_4
REMARK    4  A    between atoms: N_6  and  C_7
REMARK    5  A    between atoms: C_7  and  C_8
REMARK    6  A    between atoms: C_8  and  N_9
REMARK    7  A    between atoms: N_9  and  C_10
REMARK    8  A    between atoms: C_10  and  C_11
REMARK    9  A    between atoms: C_11  and  O_12
REMARK   10  A    between atoms: C_11  and  C_13
REMARK                            x       y       z     vdW  Elec       q    Type
REMARK                         _______ _______ _______ _____ _____    ______ ____
ROOT
ATOM      1  N   UNL     1       6.167   3.842  16.716  0.00  0.00    +0.000 NA
ATOM      2  H   UNL     1       6.823   3.647  17.472  0.00  0.00    +0.000 HD
ENDROOT
BRANCH   1   3
ATOM      3  C   UNL     1       6.551   5.046  15.969  0.00  0.00    +0.000 C 
BRANCH   3   4
ATOM      4  C   UNL     1       7.023   4.781  14.526  0.00  0.00    +0.000 C 
BRANCH   4   7
ATOM      5  C   UNL     1       6.387   3.543  12.499  0.00  0.00    +0.000 C 
ATOM      6  O   UNL     1       7.195   4.163  11.812  0.00  0.00    +0.000 OA
ATOM      7  N   UNL     1       6.216   3.795  13.843  0.00  0.00    +0.000 N 
ATOM      8  H   UNL     1       5.494   3.311  14.363  0.00  0.00    +0.000 HD
BRANCH   5  10
ATOM      9  C   UNL     1       4.281   3.095  11.218  0.00  0.00    +0.000 C 
ATOM     10  C   UNL     1       5.472   2.460  11.939  0.00  0.00    +0.000 C 
ATOM     11  C   UNL     1       6.220   1.528  10.987  0.00  0.00    +0.000 C 
ENDBRANCH   5  10
ENDBRANCH   4   7
ENDBRANCH   3   4
ENDBRANCH   1   3
BRANCH   1  12
ATOM     12  C   UNL     1       4.803   3.948  17.259  0.00  0.00    +0.000 C 
BRANCH  12  13
ATOM     13  C   UNL     1       4.762   3.892  18.805  0.00  0.00    +0.000 C 
BRANCH  13  14
ATOM     14  C   UNL     1       3.369   3.488  19.251  0.00  0.00    +0.000 A 
ATOM     15  C   UNL     1       2.328   3.471  18.307  0.00  0.00    +0.000 A 
ATOM     16  C   UNL     1       1.015   3.209  18.696  0.00  0.00    +0.000 A 
ATOM     17  C   UNL     1       0.719   2.962  20.034  0.00  0.00    +0.000 A 
ATOM     18  C   UNL     1       1.739   2.970  20.983  0.00  0.00    +0.000 A 
ATOM     19  C   UNL     1       3.054   3.232  20.596  0.00  0.00    +0.000 A 
ENDBRANCH  13  14
BRANCH  13  20
ATOM     20  O   UNL     1       5.132   5.159  19.361  0.00  0.00    +0.000 OA
ATOM     21  H   UNL     1       4.969   5.114  20.315  0.00  0.00    +0.000 HD
ENDBRANCH  13  20
ENDBRANCH  12  13
ENDBRANCH   1  12
TORSDOF 8
ENDMDL
MODEL 2
REMARK VINA RESULT:      -6.6      1.571      2.081
REMARK  Name = 
REMARK  10 active torsions:
REMARK  status: ('A' for Active; 'I' for Inactive)
REMARK    1  A    between atoms: C_1  and  C_2
REMARK    2  A    between atoms: C_2  and  C_3
REMARK    3  A    between atoms: C_2  and  C_4
REMARK    4  A    between atoms: N_6  and  C_7
REMARK    5  A    between atoms: C_7  and  C_8
REMARK    6  A    between atoms: C_8  and  N_9
REMARK    7  A    between atoms: N_9  and  C_10
REMARK    8  A    between atoms: C_10  and  C_11
REMARK    9  A    between atoms: C_11  and  O_12
REMARK   10  A    between atoms: C_11  and  C_13
REMARK                            x       y       z     vdW  Elec       q    Type
REMARK                         _______ _______ _______ _____ _____    ______ ____
ROOT
ATOM      1  N   UNL     1       6.704   4.865  18.893  0.00  0.00    +0.000 NA
ATOM      2  H   UNL     1       7.026   5.641  19.470  0.00  0.00    +0.000 HD
ENDROOT
BRANCH   1   3
ATOM      3  C   UNL     1       7.270   4.932  17.539  0.00  0.00    +0.000 C 
BRANCH   3   4
ATOM      4  C   UNL     1       6.344   5.578  16.490  0.00  0.00    +0.000 C 
BRANCH   4   7
ATOM      5  C   UNL     1       6.918   4.764  14.242  0.00  0.00    +0.000 C 
ATOM      6  O   UNL     1       7.857   5.550  14.147  0.00  0.00    +0.000 OA
ATOM      7  N   UNL     1       6.101   4.720  15.351  0.00  0.00    +0.000 N 
ATOM      8  H   UNL     1       5.296   4.106  15.367  0.00  0.00    +0.000 HD
BRANCH   5  10
ATOM      9  C   UNL     1       5.015   3.730  12.982  0.00  0.00    +0.000 C 
ATOM     10  C   UNL     1       6.537   3.780  13.141  0.00  0.00    +0.000 C 
ATOM     11  C   UNL     1       7.187   4.147  11.809  0.00  0.00    +0.000 C 
ENDBRANCH   5  10
ENDBRANCH   4   7
ENDBRANCH   3   4
ENDBRANCH   1   3
BRANCH   1  12
ATOM     12  C   UNL     1       5.233   4.842  18.868  0.00  0.00    +0.000 C 
BRANCH  12  13
ATOM     13  C   UNL     1       4.651   3.410  18.804  0.00  0.00    +0.000 C 
BRANCH  13  14
ATOM     14  C   UNL     1       3.178   3.454  19.167  0.00  0.00    +0.000 A 
ATOM     15  C   UNL     1       2.770   4.226  20.268  0.00  0.00    +0.000 A 
ATOM     16  C   UNL     1       1.444   4.210  20.699  0.00  0.00    +0.000 A 
ATOM     17  C   UNL     1       0.505   3.421  20.039  0.00  0.00    +0.000 A 
ATOM     18  C   UNL     1       0.891   2.653  18.943  0.00  0.00    +0.000 A 
ATOM     19  C   UNL     1       2.217   2.668  18.510  0.00  0.00    +0.000 A 
ENDBRANCH  13  14
BRANCH  13  20
ATOM     20  O   UNL     1       5.371   2.539  19.685  0.00  0.00    +0.000 OA
ATOM     21  H   UNL     1       5.793   3.094  20.358  0.00  0.00    +0.000 HD
ENDBRANCH  13  20
ENDBRANCH  12  13
ENDBRANCH   1  12
TORSDOF 8
ENDMDL
MODEL 3
REMARK VINA RESULT:      -6.6      1.754      2.564
REMARK  Name = 
REMARK  10 active torsions:
REMARK  status: ('A' for Active; 'I' for Inactive)
REMARK    1  A    between atoms: C_1  and  C_2
REMARK    2  A    between atoms: C_2  and  C_3
REMARK    3  A    between atoms: C_2  and  C_4
REMARK    4  A    between atoms: N_6  and  C_7
REMARK    5  A    between atoms: C_7  and  C_8
REMARK    6  A    between atoms: C_8  and  N_9
REMARK    7  A    between atoms: N_9  and  C_10
REMARK    8  A    between atoms: C_10  and  C_11
REMARK    9  A    between atoms: C_11  and  O_12
REMARK   10  A    between atoms: C_11  and  C_13
REMARK                            x       y       z     vdW  Elec       q    Type
REMARK                         _______ _______ _______ _____ _____    ______ ____
ROOT
ATOM      1  N   UNL     1       5.624   5.919  17.915  0.00  0.00    +0.000 NA
ATOM      2  H   UNL     1       5.315   5.541  17.020  0.00  0.00    +0.000 HD
ENDROOT
BRANCH   1   3
ATOM      3  C   UNL     1       7.066   5.721  18.112  0.00  0.00    +0.000 C 
BRANCH   3   4
ATOM      4  C   UNL     1       7.681   4.597  17.256  0.00  0.00    +0.000 C 
BRANCH   4   7
ATOM      5  C   UNL     1       6.528   4.268  15.110  0.00  0.00    +0.000 C 
ATOM      6  O   UNL     1       5.707   3.506  15.615  0.00  0.00    +0.000 OA
ATOM      7  N   UNL     1       7.552   4.837  15.836  0.00  0.00    +0.000 N 
ATOM      8  H   UNL     1       8.249   5.407  15.373  0.00  0.00    +0.000 HD
BRANCH   5  10
ATOM      9  C   UNL     1       7.902   5.157  13.213  0.00  0.00    +0.000 C 
ATOM     10  C   UNL     1       6.523   4.640  13.631  0.00  0.00    +0.000 C 
ATOM     11  C   UNL     1       6.125   3.455  12.754  0.00  0.00    +0.000 C 
ENDBRANCH   5  10
ENDBRANCH   4   7
ENDBRANCH   3   4
ENDBRANCH   1   3
BRANCH   1  12
ATOM     12  C   UNL     1       4.837   5.320  19.004  0.00  0.00    +0.000 C 
BRANCH  12  13
ATOM     13  C   UNL     1       4.503   3.829  18.758  0.00  0.00    +0.000 C 
BRANCH  13  14
ATOM     14  C   UNL     1       3.054   3.576  19.134  0.00  0.00    +0.000 A 
ATOM     15  C   UNL     1       2.559   4.105  20.338  0.00  0.00    +0.000 A 
ATOM     16  C   UNL     1       1.267   3.808  20.772  0.00  0.00    +0.000 A 
ATOM     17  C   UNL     1       0.450   2.975  20.012  0.00  0.00    +0.000 A 
ATOM     18  C   UNL     1       0.923   2.445  18.813  0.00  0.00    +0.000 A 
ATOM     19  C   UNL     1       2.215   2.741  18.377  0.00  0.00    +0.000 A 
ENDBRANCH  13  14
BRANCH  13  20
ATOM     20  O   UNL     1       5.384   2.989  19.514  0.00  0.00    +0.000 OA
ATOM     21  H   UNL     1       5.078   2.076  19.401  0.00  0.00    +0.000 HD
ENDBRANCH  13  20
ENDBRANCH  12  13
ENDBRANCH   1  12
TORSDOF 8
ENDMDL
MODEL 4
REMARK VINA RESULT:      -6.5      2.777      4.578
REMARK  Name = 
REMARK  10 active torsions:
REMARK  status: ('A' for Active; 'I' for Inactive)
REMARK    1  A    between atoms: C_1  and  C_2
REMARK    2  A    between atoms: C_2  and  C_3
REMARK    3  A    between atoms: C_2  and  C_4
REMARK    4  A    between atoms: N_6  and  C_7
REMARK    5  A    between atoms: C_7  and  C_8
REMARK    6  A    between atoms: C_8  and  N_9
REMARK    7  A    between atoms: N_9  and  C_10
REMARK    8  A    between atoms: C_10  and  C_11
REMARK    9  A    between atoms: C_11  and  O_12
REMARK   10  A    between atoms: C_11  and  C_13
REMARK                            x       y       z     vdW  Elec       q    Type
REMARK                         _______ _______ _______ _____ _____    ______ ____
ROOT
ATOM      1  N   UNL     1       4.717   4.187  16.114  0.00  0.00    +0.000 NA
ATOM      2  H   UNL     1       3.976   4.381  15.441  0.00  0.00    +0.000 HD
ENDROOT
BRANCH   1   3
ATOM      3  C   UNL     1       5.891   3.592  15.462  0.00  0.00    +0.000 C 
BRANCH   3   4
ATOM      4  C   UNL     1       7.072   4.561  15.263  0.00  0.00    +0.000 C 
BRANCH   4   7
ATOM      5  C   UNL     1       6.773   6.492  16.755  0.00  0.00    +0.000 C 
ATOM      6  O   UNL     1       5.942   7.000  16.006  0.00  0.00    +0.000 OA
ATOM      7  N   UNL     1       7.401   5.301  16.461  0.00  0.00    +0.000 N 
ATOM      8  H   UNL     1       8.129   4.946  17.068  0.00  0.00    +0.000 HD
BRANCH   5  10
ATOM      9  C   UNL     1       7.962   6.107  18.926  0.00  0.00    +0.000 C 
ATOM     10  C   UNL     1       7.219   7.132  18.065  0.00  0.00    +0.000 C 
ATOM     11  C   UNL     1       8.108   8.350  17.822  0.00  0.00    +0.000 C 
ENDBRANCH   5  10
ENDBRANCH   4   7
ENDBRANCH   3   4
ENDBRANCH   1   3
BRANCH   1  12
ATOM     12  C   UNL     1       4.196   3.329  17.190  0.00  0.00    +0.000 C 
BRANCH  12  13
ATOM     13  C   UNL     1       2.650   3.303  17.248  0.00  0.00    +0.000 C 
BRANCH  13  14
ATOM     14  C   UNL     1       2.182   4.137  18.427  0.00  0.00    +0.000 A 
ATOM     15  C   UNL     1       2.727   5.419  18.615  0.00  0.00    +0.000 A 
ATOM     16  C   UNL     1       2.405   6.174  19.742  0.00  0.00    +0.000 A 
ATOM     17  C   UNL     1       1.534   5.661  20.700  0.00  0.00    +0.000 A 
ATOM     18  C   UNL     1       0.981   4.395  20.528  0.00  0.00    +0.000 A 
ATOM     19  C   UNL     1       1.303   3.637  19.401  0.00  0.00    +0.000 A 
ENDBRANCH  13  14
BRANCH  13  20
ATOM     20  O   UNL     1       2.177   1.955  17.353  0.00  0.00    +0.000 OA
ATOM     21  H   UNL     1       2.406   1.504  16.526  0.00  0.00    +0.000 HD
ENDBRANCH  13  20
ENDBRANCH  12  13
ENDBRANCH   1  12
TORSDOF 8
ENDMDL
MODEL 5
REMARK VINA RESULT:      -6.4      2.282      3.123
REMARK  Name = 
REMARK  10 active torsions:
REMARK  status: ('A' for Active; 'I' for Inactive)
REMARK    1  A    between atoms: C_1  and  C_2
REMARK    2  A    between atoms: C_2  and  C_3
REMARK    3  A    between atoms: C_2  and  C_4
REMARK    4  A    between atoms: N_6  and  C_7
REMARK    5  A    between atoms: C_7  and  C_8
REMARK    6  A    between atoms: C_8  and  N_9
REMARK    7  A    between atoms: N_9  and  C_10
REMARK    8  A    between atoms: C_10  and  C_11
REMARK    9  A    between atoms: C_11  and  O_12
REMARK   10  A    between atoms: C_11  and  C_13
REMARK                            x       y       z     vdW  Elec       q    Type
REMARK                         _______ _______ _______ _____ _____    ______ ____
ROOT
ATOM      1  N   UNL     1       5.705   5.027  19.528  0.00  0.00    +0.000 NA
ATOM      2  H   UNL     1       5.446   5.081  20.513  0.00  0.00    +0.000 HD
ENDROOT
BRANCH   1   3
ATOM      3  C   UNL     1       7.016   5.642  19.284  0.00  0.00    +0.000 C 
BRANCH   3   4
ATOM      4  C   UNL     1       7.915   4.864  18.304  0.00  0.00    +0.000 C 
BRANCH   4   7
ATOM      5  C   UNL     1       7.055   4.762  16.003  0.00  0.00    +0.000 C 
ATOM      6  O   UNL     1       7.544   5.853  15.722  0.00  0.00    +0.000 OA
ATOM      7  N   UNL     1       7.167   4.203  17.258  0.00  0.00    +0.000 N 
ATOM      8  H   UNL     1       6.694   3.334  17.472  0.00  0.00    +0.000 HD
BRANCH   5  10
ATOM      9  C   UNL     1       4.752   4.145  15.231  0.00  0.00    +0.000 C 
ATOM     10  C   UNL     1       6.251   3.926  15.012  0.00  0.00    +0.000 C 
ATOM     11  C   UNL     1       6.619   4.259  13.567  0.00  0.00    +0.000 C 
ENDBRANCH   5  10
ENDBRANCH   4   7
ENDBRANCH   3   4
ENDBRANCH   1   3
BRANCH   1  12
ATOM     12  C   UNL     1       4.652   5.642  18.704  0.00  0.00    +0.000 C 
BRANCH  12  13
ATOM     13  C   UNL     1       3.390   6.015  19.517  0.00  0.00    +0.000 C 
BRANCH  13  14
ATOM     14  C   UNL     1       2.415   4.852  19.485  0.00  0.00    +0.000 A 
ATOM     15  C   UNL     1       1.943   4.324  20.699  0.00  0.00    +0.000 A 
ATOM     16  C   UNL     1       1.132   3.190  20.717  0.00  0.00    +0.000 A 
ATOM     17  C   UNL     1       0.781   2.563  19.524  0.00  0.00    +0.000 A 
ATOM     18  C   UNL     1       1.236   3.076  18.312  0.00  0.00    +0.000 A 
ATOM     19  C   UNL     1       2.048   4.210  18.291  0.00  0.00    +0.000 A 
ENDBRANCH  13  14
BRANCH  13  20
ATOM     20  O   UNL     1       2.788   7.203  18.987  0.00  0.00    +0.000 OA
ATOM     21  H   UNL     1       3.446   7.912  19.051  0.00  0.00    +0.000 HD
ENDBRANCH  13  20
ENDBRANCH  12  13
ENDBRANCH   1  12
TORSDOF 8
ENDMDL
MODEL 6
REMARK VINA RESULT:      -6.4      1.048      1.048
REMARK  Name = 
REMARK  10 active torsions:
REMARK  status: ('A' for Active; 'I' for Inactive)
REMARK    1  A    between atoms: C_1  and  C_2
REMARK    2  A    between atoms: C_2  and  C_3
REMARK    3  A    between atoms: C_2  and  C_4
REMARK    4  A    between atoms: N_6  and  C_7
REMARK    5  A    between atoms: C_7  and  C_8
REMARK    6  A    between atoms: C_8  and  N_9
REMARK    7  A    between atoms: N_9  and  C_10
REMARK    8  A    between atoms: C_10  and  C_11
REMARK    9  A    between atoms: C_11  and  O_12
REMARK   10  A    between atoms: C_11  and  C_13
REMARK                            x       y       z     vdW  Elec       q    Type
REMARK                         _______ _______ _______ _____ _____    ______ ____
ROOT
ATOM      1  N   UNL     1       4.946   6.253  16.288  0.00  0.00    +0.000 NA
ATOM      2  H   UNL     1       4.382   6.378  15.447  0.00  0.00    +0.000 HD
ENDROOT
BRANCH   1   3
ATOM      3  C   UNL     1       5.871   5.121  16.151  0.00  0.00    +0.000 C 
BRANCH   3   4
ATOM      4  C   UNL     1       6.471   4.951  14.742  0.00  0.00    +0.000 C 
BRANCH   4   7
ATOM      5  C   UNL     1       6.208   3.634  12.683  0.00  0.00    +0.000 C 
ATOM      6  O   UNL     1       7.149   4.209  12.140  0.00  0.00    +0.000 OA
ATOM      7  N   UNL     1       5.787   3.948  13.957  0.00  0.00    +0.000 N 
ATOM      8  H   UNL     1       4.966   3.501  14.346  0.00  0.00    +0.000 HD
BRANCH   5  10
ATOM      9  C   UNL     1       4.267   3.163  11.171  0.00  0.00    +0.000 C 
ATOM     10  C   UNL     1       5.392   2.541  12.002  0.00  0.00    +0.000 C 
ATOM     11  C   UNL     1       6.265   1.656  11.114  0.00  0.00    +0.000 C 
ENDBRANCH   5  10
ENDBRANCH   4   7
ENDBRANCH   3   4
ENDBRANCH   1   3
BRANCH   1  12
ATOM     12  C   UNL     1       4.064   6.100  17.457  0.00  0.00    +0.000 C 
BRANCH  12  13
ATOM     13  C   UNL     1       4.474   4.922  18.371  0.00  0.00    +0.000 C 
BRANCH  13  14
ATOM     14  C   UNL     1       3.223   4.270  18.933  0.00  0.00    +0.000 A 
ATOM     15  C   UNL     1       2.454   3.439  18.101  0.00  0.00    +0.000 A 
ATOM     16  C   UNL     1       1.244   2.908  18.545  0.00  0.00    +0.000 A 
ATOM     17  C   UNL     1       0.780   3.199  19.825  0.00  0.00    +0.000 A 
ATOM     18  C   UNL     1       1.532   4.017  20.665  0.00  0.00    +0.000 A 
ATOM     19  C   UNL     1       2.744   4.551  20.223  0.00  0.00    +0.000 A 
ENDBRANCH  13  14
BRANCH  13  20
ATOM     20  O   UNL     1       5.331   5.381  19.424  0.00  0.00    +0.000 OA
ATOM     21  H   UNL     1       4.820   6.008  19.959  0.00  0.00    +0.000 HD
ENDBRANCH  13  20
ENDBRANCH  12  13
ENDBRANCH   1  12
TORSDOF 8
ENDMDL
MODEL 7
REMARK VINA RESULT:      -6.4      0.517      1.241
REMARK  Name = 
REMARK  10 active torsions:
REMARK  status: ('A' for Active; 'I' for Inactive)
REMARK    1  A    between atoms: C_1  and  C_2
REMARK    2  A    between atoms: C_2  and  C_3
REMARK    3  A    between atoms: C_2  and  C_4
REMARK    4  A    between atoms: N_6  and  C_7
REMARK    5  A    between atoms: C_7  and  C_8
REMARK    6  A    between atoms: C_8  and  N_9
REMARK    7  A    between atoms: N_9  and  C_10
REMARK    8  A    between atoms: C_10  and  C_11
REMARK    9  A    between atoms: C_11  and  O_12
REMARK   10  A    between atoms: C_11  and  C_13
REMARK                            x       y       z     vdW  Elec       q    Type
REMARK                         _______ _______ _______ _____ _____    ______ ____
ROOT
ATOM      1  N   UNL     1       5.257   4.835  16.323  0.00  0.00    +0.000 NA
ATOM      2  H   UNL     1       4.743   4.626  15.468  0.00  0.00    +0.000 HD
ENDROOT
BRANCH   1   3
ATOM      3  C   UNL     1       6.698   4.952  16.068  0.00  0.00    +0.000 C 
BRANCH   3   4
ATOM      4  C   UNL     1       7.107   4.744  14.596  0.00  0.00    +0.000 C 
BRANCH   4   7
ATOM      5  C   UNL     1       6.397   3.571  12.555  0.00  0.00    +0.000 C 
ATOM      6  O   UNL     1       7.182   4.210  11.860  0.00  0.00    +0.000 OA
ATOM      7  N   UNL     1       6.273   3.781  13.912  0.00  0.00    +0.000 N 
ATOM      8  H   UNL     1       5.568   3.283  14.442  0.00  0.00    +0.000 HD
BRANCH   5  10
ATOM      9  C   UNL     1       4.291   3.168  11.258  0.00  0.00    +0.000 C 
ATOM     10  C   UNL     1       5.459   2.507  11.995  0.00  0.00    +0.000 C 
ATOM     11  C   UNL     1       6.191   1.550  11.057  0.00  0.00    +0.000 C 
ENDBRANCH   5  10
ENDBRANCH   4   7
ENDBRANCH   3   4
ENDBRANCH   1   3
BRANCH   1  12
ATOM     12  C   UNL     1       4.964   3.813  17.340  0.00  0.00    +0.000 C 
BRANCH  12  13
ATOM     13  C   UNL     1       4.608   4.419  18.719  0.00  0.00    +0.000 C 
BRANCH  13  14
ATOM     14  C   UNL     1       3.186   4.029  19.081  0.00  0.00    +0.000 A 
ATOM     15  C   UNL     1       2.843   3.882  20.436  0.00  0.00    +0.000 A 
ATOM     16  C   UNL     1       1.579   3.423  20.807  0.00  0.00    +0.000 A 
ATOM     17  C   UNL     1       0.639   3.103  19.831  0.00  0.00    +0.000 A 
ATOM     18  C   UNL     1       0.960   3.247  18.484  0.00  0.00    +0.000 A 
ATOM     19  C   UNL     1       2.224   3.706  18.110  0.00  0.00    +0.000 A 
ENDBRANCH  13  14
BRANCH  13  20
ATOM     20  O   UNL     1       4.759   5.843  18.693  0.00  0.00    +0.000 OA
ATOM     21  H   UNL     1       4.807   6.111  17.763  0.00  0.00    +0.000 HD
ENDBRANCH  13  20
ENDBRANCH  12  13
ENDBRANCH   1  12
TORSDOF 8
ENDMDL
MODEL 8
REMARK VINA RESULT:      -6.4      1.956      2.738
REMARK  Name = 
REMARK  10 active torsions:
REMARK  status: ('A' for Active; 'I' for Inactive)
REMARK    1  A    between atoms: C_1  and  C_2
REMARK    2  A    between atoms: C_2  and  C_3
REMARK    3  A    between atoms: C_2  and  C_4
REMARK    4  A    between atoms: N_6  and  C_7
REMARK    5  A    between atoms: C_7  and  C_8
REMARK    6  A    between atoms: C_8  and  N_9
REMARK    7  A    between atoms: N_9  and  C_10
REMARK    8  A    between atoms: C_10  and  C_11
REMARK    9  A    between atoms: C_11  and  O_12
REMARK   10  A    between atoms: C_11  and  C_13
REMARK                            x       y       z     vdW  Elec       q    Type
REMARK                         _______ _______ _______ _____ _____    ______ ____
ROOT
ATOM      1  N   UNL     1       6.643   5.407  19.752  0.00  0.00    +0.000 NA
ATOM      2  H   UNL     1       6.364   6.306  20.142  0.00  0.00    +0.000 HD
ENDROOT
BRANCH   1   3
ATOM      3  C   UNL     1       7.716   5.562  18.760  0.00  0.00    +0.000 C 
BRANCH   3   4
ATOM      4  C   UNL     1       7.330   6.399  17.526  0.00  0.00    +0.000 C 
BRANCH   4   7
ATOM      5  C   UNL     1       6.717   5.373  15.377  0.00  0.00    +0.000 C 
ATOM      6  O   UNL     1       7.811   5.639  14.886  0.00  0.00    +0.000 OA
ATOM      7  N   UNL     1       6.381   5.729  16.666  0.00  0.00    +0.000 N 
ATOM      8  H   UNL     1       5.447   5.552  17.014  0.00  0.00    +0.000 HD
BRANCH   5  10
ATOM      9  C   UNL     1       6.213   3.772  13.517  0.00  0.00    +0.000 C 
ATOM     10  C   UNL     1       5.610   4.654  14.613  0.00  0.00    +0.000 C 
ATOM     11  C   UNL     1       4.743   3.808  15.543  0.00  0.00    +0.000 C 
ENDBRANCH   5  10
ENDBRANCH   4   7
ENDBRANCH   3   4
ENDBRANCH   1   3
BRANCH   1  12
ATOM     12  C   UNL     1       5.469   4.727  19.183  0.00  0.00    +0.000 C 
BRANCH  12  13
ATOM     13  C   UNL     1       4.147   5.490  19.439  0.00  0.00    +0.000 C 
BRANCH  13  14
ATOM     14  C   UNL     1       3.007   4.492  19.531  0.00  0.00    +0.000 A 
ATOM     15  C   UNL     1       2.636   3.772  18.382  0.00  0.00    +0.000 A 
ATOM     16  C   UNL     1       1.527   2.925  18.397  0.00  0.00    +0.000 A 
ATOM     17  C   UNL     1       0.771   2.785  19.558  0.00  0.00    +0.000 A 
ATOM     18  C   UNL     1       1.127   3.487  20.707  0.00  0.00    +0.000 A 
ATOM     19  C   UNL     1       2.236   4.335  20.694  0.00  0.00    +0.000 A 
ENDBRANCH  13  14
BRANCH  13  20
ATOM     20  O   UNL     1       3.911   6.443  18.396  0.00  0.00    +0.000 OA
ATOM     21  H   UNL     1       3.025   6.810  18.535  0.00  0.00    +0.000 HD
ENDBRANCH  13  20
ENDBRANCH  12  13
ENDBRANCH   1  12
TORSDOF 8
ENDMDL
MODEL 9
REMARK VINA RESULT:      -6.4      0.716      1.099
REMARK  Name = 
REMARK  10 active torsions:
REMARK  status: ('A' for Active; 'I' for Inactive)
REMARK    1  A    between atoms: C_1  and  C_2
REMARK    2  A    between atoms: C_2  and  C_3
REMARK    3  A    between atoms: C_2  and  C_4
REMARK    4  A    between atoms: N_6  and  C_7
REMARK    5  A    between atoms: C_7  and  C_8
REMARK    6  A    between atoms: C_8  and  N_9
REMARK    7  A    between atoms: N_9  and  C_10
REMARK    8  A    between atoms: C_10  and  C_11
REMARK    9  A    between atoms: C_11  and  O_12
REMARK   10  A    between atoms: C_11  and  C_13
REMARK                            x       y       z     vdW  Elec       q    Type
REMARK                         _______ _______ _______ _____ _____    ______ ____
ROOT
ATOM      1  N   UNL     1       5.458   3.292  16.161  0.00  0.00    +0.000 NA
ATOM      2  H   UNL     1       5.797   2.359  16.394  0.00  0.00    +0.000 HD
ENDROOT
BRANCH   1   3
ATOM      3  C   UNL     1       6.564   4.249  16.033  0.00  0.00    +0.000 C 
BRANCH   3   4
ATOM      4  C   UNL     1       6.863   4.693  14.587  0.00  0.00    +0.000 C 
BRANCH   4   7
ATOM      5  C   UNL     1       6.537   3.866  12.295  0.00  0.00    +0.000 C 
ATOM      6  O   UNL     1       7.542   4.447  11.893  0.00  0.00    +0.000 OA
ATOM      7  N   UNL     1       6.111   3.947  13.604  0.00  0.00    +0.000 N 
ATOM      8  H   UNL     1       5.241   3.509  13.883  0.00  0.00    +0.000 HD
BRANCH   5  10
ATOM      9  C   UNL     1       5.992   1.540  11.540  0.00  0.00    +0.000 C 
ATOM     10  C   UNL     1       5.642   3.023  11.393  0.00  0.00    +0.000 C 
ATOM     11  C   UNL     1       4.163   3.241  11.705  0.00  0.00    +0.000 C 
ENDBRANCH   5  10
ENDBRANCH   4   7
ENDBRANCH   3   4
ENDBRANCH   1   3
BRANCH   1  12
ATOM     12  C   UNL     1       4.474   3.727  17.165  0.00  0.00    +0.000 C 
BRANCH  12  13
ATOM     13  C   UNL     1       4.558   2.919  18.482  0.00  0.00    +0.000 C 
BRANCH  13  14
ATOM     14  C   UNL     1       3.190   2.898  19.140  0.00  0.00    +0.000 A 
ATOM     15  C   UNL     1       2.050   2.712  18.339  0.00  0.00    +0.000 A 
ATOM     16  C   UNL     1       0.771   2.792  18.888  0.00  0.00    +0.000 A 
ATOM     17  C   UNL     1       0.609   3.062  20.245  0.00  0.00    +0.000 A 
ATOM     18  C   UNL     1       1.727   3.245  21.054  0.00  0.00    +0.000 A 
ATOM     19  C   UNL     1       3.009   3.165  20.507  0.00  0.00    +0.000 A 
ENDBRANCH  13  14
BRANCH  13  20
ATOM     20  O   UNL     1       5.539   3.490  19.356  0.00  0.00    +0.000 OA
ATOM     21  H   UNL     1       5.355   4.440  19.415  0.00  0.00    +0.000 HD
ENDBRANCH  13  20
ENDBRANCH  12  13
ENDBRANCH   1  12
TORSDOF 8
ENDMDL
