MODEL 1
REMARK VINA RESULT:      -7.3      0.000      0.000
REMARK  Name = 
REMARK  5 active torsions:
REMARK  status: ('A' for Active; 'I' for Inactive)
REMARK    1  A    between atoms: C_1  and  C_2
REMARK    2  A    between atoms: C_2  and  C_16
REMARK    3  A    between atoms: N_3  and  N_4
REMARK    4  A    between atoms: C_5  and  C_7
REMARK    5  A    between atoms: C_9  and  C_10
REMARK                            x       y       z     vdW  Elec       q    Type
REMARK                         _______ _______ _______ _____ _____    ______ ____
ROOT
ATOM      1  N   UNL     1       4.736   2.662  19.202  0.00  0.00    +0.000 N 
ATOM      2  C   UNL     1       3.480   2.628  19.774  0.00  0.00    +0.000 C 
ATOM      3  O   UNL     1       2.834   1.589  19.849  0.00  0.00    +0.000 OA
ATOM      4  H   UNL     1       5.089   1.781  18.857  0.00  0.00    +0.000 HD
ENDROOT
BRANCH   1   7
ATOM      5  C   UNL     1       4.984   3.985  16.646  0.00  0.00    +0.000 C 
ATOM      6  C   UNL     1       5.567   4.437  17.968  0.00  0.00    +0.000 C 
ATOM      7  N   UNL     1       5.435   3.818  19.102  0.00  0.00    +0.000 NA
BRANCH   6   8
ATOM      8  C   UNL     1       6.380   5.707  17.973  0.00  0.00    +0.000 A 
ATOM      9  C   UNL     1       7.531   5.836  18.759  0.00  0.00    +0.000 A 
ATOM     10  C   UNL     1       8.248   7.037  18.771  0.00  0.00    +0.000 A 
ATOM     11  C   UNL     1       7.819   8.112  17.996  0.00  0.00    +0.000 A 
ATOM     12 BR   UNL     1       8.781   9.737  18.037  0.00  0.00    +0.000 Br
ATOM     13  C   UNL     1       6.685   7.996  17.198  0.00  0.00    +0.000 A 
ATOM     14  C   UNL     1       5.968   6.796  17.186  0.00  0.00    +0.000 A 
ENDBRANCH   6   8
ENDBRANCH   1   7
BRANCH   2  15
ATOM     15  C   UNL     1       2.930   3.925  20.276  0.00  0.00    +0.000 C 
ATOM     16  C   UNL     1       1.477   4.043  20.645  0.00  0.00    +0.000 C 
ATOM     17  C   UNL     1       1.987   4.707  19.383  0.00  0.00    +0.000 C 
BRANCH  17  18
ATOM     18  C   UNL     1       1.989   6.216  19.320  0.00  0.00    +0.000 A 
ATOM     19  C   UNL     1       2.450   6.935  18.206  0.00  0.00    +0.000 A 
ATOM     20  C   UNL     1       2.393   8.334  18.172  0.00  0.00    +0.000 A 
ATOM     21  C   UNL     1       1.869   9.041  19.254  0.00  0.00    +0.000 A 
ATOM     22  C   UNL     1       1.402   8.350  20.366  0.00  0.00    +0.000 A 
ATOM     23  C   UNL     1       1.461   6.956  20.392  0.00  0.00    +0.000 A 
ENDBRANCH  17  18
ENDBRANCH   2  15
TORSDOF 4
ENDMDL
MODEL 2
REMARK VINA RESULT:      -7.1      0.264      1.063
REMARK  Name = 
REMARK  5 active torsions:
REMARK  status: ('A' for Active; 'I' for Inactive)
REMARK    1  A    between atoms: C_1  and  C_2
REMARK    2  A    between atoms: C_2  and  C_16
REMARK    3  A    between atoms: N_3  and  N_4
REMARK    4  A    between atoms: C_5  and  C_7
REMARK    5  A    between atoms: C_9  and  C_10
REMARK                            x       y       z     vdW  Elec       q    Type
REMARK                         _______ _______ _______ _____ _____    ______ ____
ROOT
ATOM      1  N   UNL     1       4.644   2.504  18.920  0.00  0.00    +0.000 N 
ATOM      2  C   UNL     1       3.390   2.415  19.490  0.00  0.00    +0.000 C 
ATOM      3  O   UNL     1       2.759   1.363  19.496  0.00  0.00    +0.000 OA
ATOM      4  H   UNL     1       5.009   1.653  18.518  0.00  0.00    +0.000 HD
ENDROOT
BRANCH   1   7
ATOM      5  C   UNL     1       4.804   4.034  16.475  0.00  0.00    +0.000 C 
ATOM      6  C   UNL     1       5.419   4.386  17.813  0.00  0.00    +0.000 C 
ATOM      7  N   UNL     1       5.326   3.674  18.897  0.00  0.00    +0.000 NA
BRANCH   6   8
ATOM      8  C   UNL     1       6.216   5.662  17.900  0.00  0.00    +0.000 A 
ATOM      9  C   UNL     1       5.857   6.801  17.171  0.00  0.00    +0.000 A 
ATOM     10  C   UNL     1       6.633   7.963  17.245  0.00  0.00    +0.000 A 
ATOM     11  C   UNL     1       7.769   7.991  18.050  0.00  0.00    +0.000 A 
ATOM     12 BR   UNL     1       8.824   9.556  18.125  0.00  0.00    +0.000 Br
ATOM     13  C   UNL     1       8.133   6.871  18.794  0.00  0.00    +0.000 A 
ATOM     14  C   UNL     1       7.358   5.710  18.719  0.00  0.00    +0.000 A 
ENDBRANCH   6   8
ENDBRANCH   1   7
BRANCH   2  15
ATOM     15  C   UNL     1       2.822   3.667  20.076  0.00  0.00    +0.000 C 
ATOM     16  C   UNL     1       1.350   3.773  20.366  0.00  0.00    +0.000 C 
ATOM     17  C   UNL     1       1.944   4.542  19.205  0.00  0.00    +0.000 C 
BRANCH  17  18
ATOM     18  C   UNL     1       1.963   6.051  19.283  0.00  0.00    +0.000 A 
ATOM     19  C   UNL     1       2.346   6.868  18.209  0.00  0.00    +0.000 A 
ATOM     20  C   UNL     1       2.308   8.264  18.311  0.00  0.00    +0.000 A 
ATOM     21  C   UNL     1       1.882   8.870  19.492  0.00  0.00    +0.000 A 
ATOM     22  C   UNL     1       1.492   8.081  20.568  0.00  0.00    +0.000 A 
ATOM     23  C   UNL     1       1.532   6.690  20.459  0.00  0.00    +0.000 A 
ENDBRANCH  17  18
ENDBRANCH   2  15
TORSDOF 4
ENDMDL
MODEL 3
REMARK VINA RESULT:      -6.9      0.698      1.262
REMARK  Name = 
REMARK  5 active torsions:
REMARK  status: ('A' for Active; 'I' for Inactive)
REMARK    1  A    between atoms: C_1  and  C_2
REMARK    2  A    between atoms: C_2  and  C_16
REMARK    3  A    between atoms: N_3  and  N_4
REMARK    4  A    between atoms: C_5  and  C_7
REMARK    5  A    between atoms: C_9  and  C_10
REMARK                            x       y       z     vdW  Elec       q    Type
REMARK                         _______ _______ _______ _____ _____    ______ ____
ROOT
ATOM      1  N   UNL     1       5.415   3.189  19.011  0.00  0.00    +0.000 N 
ATOM      2  C   UNL     1       4.153   3.023  19.544  0.00  0.00    +0.000 C 
ATOM      3  O   UNL     1       3.594   1.931  19.546  0.00  0.00    +0.000 OA
ATOM      4  H   UNL     1       5.849   2.360  18.632  0.00  0.00    +0.000 HD
ENDROOT
BRANCH   1   7
ATOM      5  C   UNL     1       6.139   4.402  16.491  0.00  0.00    +0.000 C 
ATOM      6  C   UNL     1       6.358   4.975  17.876  0.00  0.00    +0.000 C 
ATOM      7  N   UNL     1       6.018   4.402  18.991  0.00  0.00    +0.000 NA
BRANCH   6   8
ATOM      8  C   UNL     1       7.037   6.317  17.976  0.00  0.00    +0.000 A 
ATOM      9  C   UNL     1       8.082   6.544  18.879  0.00  0.00    +0.000 A 
ATOM     10  C   UNL     1       8.673   7.808  18.975  0.00  0.00    +0.000 A 
ATOM     11  C   UNL     1       8.222   8.850  18.168  0.00  0.00    +0.000 A 
ATOM     12 BR   UNL     1       9.009  10.560  18.322  0.00  0.00    +0.000 Br
ATOM     13  C   UNL     1       7.193   8.639  17.254  0.00  0.00    +0.000 A 
ATOM     14  C   UNL     1       6.603   7.375  17.159  0.00  0.00    +0.000 A 
ENDBRANCH   6   8
ENDBRANCH   1   7
BRANCH   2  15
ATOM     15  C   UNL     1       3.485   4.241  20.095  0.00  0.00    +0.000 C 
ATOM     16  C   UNL     1       2.096   4.155  20.665  0.00  0.00    +0.000 C 
ATOM     17  C   UNL     1       2.319   4.837  19.331  0.00  0.00    +0.000 C 
BRANCH  17  18
ATOM     18  C   UNL     1       2.080   6.325  19.241  0.00  0.00    +0.000 A 
ATOM     19  C   UNL     1       1.620   7.093  20.322  0.00  0.00    +0.000 A 
ATOM     20  C   UNL     1       1.453   8.479  20.208  0.00  0.00    +0.000 A 
ATOM     21  C   UNL     1       1.747   9.124  19.008  0.00  0.00    +0.000 A 
ATOM     22  C   UNL     1       2.210   8.386  17.925  0.00  0.00    +0.000 A 
ATOM     23  C   UNL     1       2.375   7.005  18.046  0.00  0.00    +0.000 A 
ENDBRANCH  17  18
ENDBRANCH   2  15
TORSDOF 4
ENDMDL
MODEL 4
REMARK VINA RESULT:      -6.8      4.209      5.735
REMARK  Name = 
REMARK  5 active torsions:
REMARK  status: ('A' for Active; 'I' for Inactive)
REMARK    1  A    between atoms: C_1  and  C_2
REMARK    2  A    between atoms: C_2  and  C_16
REMARK    3  A    between atoms: N_3  and  N_4
REMARK    4  A    between atoms: C_5  and  C_7
REMARK    5  A    between atoms: C_9  and  C_10
REMARK                            x       y       z     vdW  Elec       q    Type
REMARK                         _______ _______ _______ _____ _____    ______ ____
ROOT
ATOM      1  N   UNL     1       1.529   7.987  21.117  0.00  0.00    +0.000 N 
ATOM      2  C   UNL     1       0.488   8.881  20.967  0.00  0.00    +0.000 C 
ATOM      3  O   UNL     1      -0.154   9.289  21.929  0.00  0.00    +0.000 OA
ATOM      4  H   UNL     1       1.732   7.698  22.062  0.00  0.00    +0.000 HD
ENDROOT
BRANCH   1   7
ATOM      5  C   UNL     1       1.712   5.144  20.639  0.00  0.00    +0.000 C 
ATOM      6  C   UNL     1       2.322   6.250  19.805  0.00  0.00    +0.000 C 
ATOM      7  N   UNL     1       2.219   7.523  20.047  0.00  0.00    +0.000 NA
BRANCH   6   8
ATOM      8  C   UNL     1       3.128   5.849  18.596  0.00  0.00    +0.000 A 
ATOM      9  C   UNL     1       3.201   4.516  18.174  0.00  0.00    +0.000 A 
ATOM     10  C   UNL     1       3.982   4.166  17.068  0.00  0.00    +0.000 A 
ATOM     11  C   UNL     1       4.690   5.146  16.377  0.00  0.00    +0.000 A 
ATOM     12 BR   UNL     1       5.761   4.660  14.899  0.00  0.00    +0.000 Br
ATOM     13  C   UNL     1       4.618   6.479  16.775  0.00  0.00    +0.000 A 
ATOM     14  C   UNL     1       3.838   6.829  17.880  0.00  0.00    +0.000 A 
ENDBRANCH   6   8
ENDBRANCH   1   7
BRANCH   2  15
ATOM     15  C   UNL     1       0.158   9.309  19.573  0.00  0.00    +0.000 C 
ATOM     16  C   UNL     1       0.739  10.577  19.009  0.00  0.00    +0.000 C 
ATOM     17  C   UNL     1      -0.729  10.522  19.378  0.00  0.00    +0.000 C 
BRANCH  17  18
ATOM     18  C   UNL     1      -1.749  10.615  18.267  0.00  0.00    +0.000 A 
ATOM     19  C   UNL     1      -1.640   9.897  17.067  0.00  0.00    +0.000 A 
ATOM     20  C   UNL     1      -2.631   9.979  16.080  0.00  0.00    +0.000 A 
ATOM     21  C   UNL     1      -3.754  10.781  16.280  0.00  0.00    +0.000 A 
ATOM     22  C   UNL     1      -3.886  11.498  17.464  0.00  0.00    +0.000 A 
ATOM     23  C   UNL     1      -2.895  11.410  18.442  0.00  0.00    +0.000 A 
ENDBRANCH  17  18
ENDBRANCH   2  15
TORSDOF 4
ENDMDL
MODEL 5
REMARK VINA RESULT:      -6.8      4.227      5.765
REMARK  Name = 
REMARK  5 active torsions:
REMARK  status: ('A' for Active; 'I' for Inactive)
REMARK    1  A    between atoms: C_1  and  C_2
REMARK    2  A    between atoms: C_2  and  C_16
REMARK    3  A    between atoms: N_3  and  N_4
REMARK    4  A    between atoms: C_5  and  C_7
REMARK    5  A    between atoms: C_9  and  C_10
REMARK                            x       y       z     vdW  Elec       q    Type
REMARK                         _______ _______ _______ _____ _____    ______ ____
ROOT
ATOM      1  N   UNL     1       1.483   8.016  21.163  0.00  0.00    +0.000 N 
ATOM      2  C   UNL     1       0.419   8.879  20.999  0.00  0.00    +0.000 C 
ATOM      3  O   UNL     1      -0.260   9.253  21.950  0.00  0.00    +0.000 OA
ATOM      4  H   UNL     1       1.670   7.718  22.109  0.00  0.00    +0.000 HD
ENDROOT
BRANCH   1   7
ATOM      5  C   UNL     1       1.694   5.191  20.597  0.00  0.00    +0.000 C 
ATOM      6  C   UNL     1       2.331   6.326  19.824  0.00  0.00    +0.000 C 
ATOM      7  N   UNL     1       2.214   7.589  20.105  0.00  0.00    +0.000 NA
BRANCH   6   8
ATOM      8  C   UNL     1       3.183   5.968  18.633  0.00  0.00    +0.000 A 
ATOM      9  C   UNL     1       3.829   6.949  17.872  0.00  0.00    +0.000 A 
ATOM     10  C   UNL     1       4.587   6.592  16.752  0.00  0.00    +0.000 A 
ATOM     11  C   UNL     1       4.704   5.252  16.390  0.00  0.00    +0.000 A 
ATOM     12 BR   UNL     1       5.710   4.781  14.862  0.00  0.00    +0.000 Br
ATOM     13  C   UNL     1       4.080   4.262  17.143  0.00  0.00    +0.000 A 
ATOM     14  C   UNL     1       3.322   4.619  18.262  0.00  0.00    +0.000 A 
ENDBRANCH   6   8
ENDBRANCH   1   7
BRANCH   2  15
ATOM     15  C   UNL     1       0.113   9.320  19.603  0.00  0.00    +0.000 C 
ATOM     16  C   UNL     1       0.681  10.605  19.069  0.00  0.00    +0.000 C 
ATOM     17  C   UNL     1      -0.793  10.518  19.404  0.00  0.00    +0.000 C 
BRANCH  17  18
ATOM     18  C   UNL     1      -1.789  10.607  18.272  0.00  0.00    +0.000 A 
ATOM     19  C   UNL     1      -1.655   9.885  17.076  0.00  0.00    +0.000 A 
ATOM     20  C   UNL     1      -2.625   9.963  16.069  0.00  0.00    +0.000 A 
ATOM     21  C   UNL     1      -3.752  10.765  16.241  0.00  0.00    +0.000 A 
ATOM     22  C   UNL     1      -3.910  11.486  17.420  0.00  0.00    +0.000 A 
ATOM     23  C   UNL     1      -2.939  11.402  18.420  0.00  0.00    +0.000 A 
ENDBRANCH  17  18
ENDBRANCH   2  15
TORSDOF 4
ENDMDL
MODEL 6
REMARK VINA RESULT:      -6.7      4.187      5.775
REMARK  Name = 
REMARK  5 active torsions:
REMARK  status: ('A' for Active; 'I' for Inactive)
REMARK    1  A    between atoms: C_1  and  C_2
REMARK    2  A    between atoms: C_2  and  C_16
REMARK    3  A    between atoms: N_3  and  N_4
REMARK    4  A    between atoms: C_5  and  C_7
REMARK    5  A    between atoms: C_9  and  C_10
REMARK                            x       y       z     vdW  Elec       q    Type
REMARK                         _______ _______ _______ _____ _____    ______ ____
ROOT
ATOM      1  N   UNL     1       1.516   7.989  21.220  0.00  0.00    +0.000 N 
ATOM      2  C   UNL     1       0.460   8.868  21.089  0.00  0.00    +0.000 C 
ATOM      3  O   UNL     1      -0.190   9.244  22.059  0.00  0.00    +0.000 OA
ATOM      4  H   UNL     1       1.723   7.683  22.160  0.00  0.00    +0.000 HD
ENDROOT
BRANCH   1   7
ATOM      5  C   UNL     1       1.662   5.167  20.623  0.00  0.00    +0.000 C 
ATOM      6  C   UNL     1       2.302   6.298  19.847  0.00  0.00    +0.000 C 
ATOM      7  N   UNL     1       2.215   7.560  20.143  0.00  0.00    +0.000 NA
BRANCH   6   8
ATOM      8  C   UNL     1       3.120   5.936  18.633  0.00  0.00    +0.000 A 
ATOM      9  C   UNL     1       3.289   4.605  18.234  0.00  0.00    +0.000 A 
ATOM     10  C   UNL     1       4.079   4.294  17.123  0.00  0.00    +0.000 A 
ATOM     11  C   UNL     1       4.702   5.312  16.405  0.00  0.00    +0.000 A 
ATOM     12 BR   UNL     1       5.788   4.881  14.921  0.00  0.00    +0.000 Br
ATOM     13  C   UNL     1       4.535   6.642  16.780  0.00  0.00    +0.000 A 
ATOM     14  C   UNL     1       3.745   6.953  17.891  0.00  0.00    +0.000 A 
ENDBRANCH   6   8
ENDBRANCH   1   7
BRANCH   2  15
ATOM     15  C   UNL     1       0.125   9.321  19.704  0.00  0.00    +0.000 C 
ATOM     16  C   UNL     1       0.672  10.618  19.174  0.00  0.00    +0.000 C 
ATOM     17  C   UNL     1      -0.795  10.513  19.534  0.00  0.00    +0.000 C 
BRANCH  17  18
ATOM     18  C   UNL     1      -1.812  10.605  18.421  0.00  0.00    +0.000 A 
ATOM     19  C   UNL     1      -2.966  11.400  18.502  0.00  0.00    +0.000 A 
ATOM     20  C   UNL     1      -3.861  11.490  17.428  0.00  0.00    +0.000 A 
ATOM     21  C   UNL     1      -3.615  10.788  16.249  0.00  0.00    +0.000 A 
ATOM     22  C   UNL     1      -2.475   9.999  16.143  0.00  0.00    +0.000 A 
ATOM     23  C   UNL     1      -1.588   9.914  17.217  0.00  0.00    +0.000 A 
ENDBRANCH  17  18
ENDBRANCH   2  15
TORSDOF 4
ENDMDL
MODEL 7
REMARK VINA RESULT:      -6.7      0.800      1.353
REMARK  Name = 
REMARK  5 active torsions:
REMARK  status: ('A' for Active; 'I' for Inactive)
REMARK    1  A    between atoms: C_1  and  C_2
REMARK    2  A    between atoms: C_2  and  C_16
REMARK    3  A    between atoms: N_3  and  N_4
REMARK    4  A    between atoms: C_5  and  C_7
REMARK    5  A    between atoms: C_9  and  C_10
REMARK                            x       y       z     vdW  Elec       q    Type
REMARK                         _______ _______ _______ _____ _____    ______ ____
ROOT
ATOM      1  N   UNL     1       5.404   3.361  19.108  0.00  0.00    +0.000 N 
ATOM      2  C   UNL     1       4.139   3.146  19.616  0.00  0.00    +0.000 C 
ATOM      3  O   UNL     1       3.641   2.026  19.651  0.00  0.00    +0.000 OA
ATOM      4  H   UNL     1       5.893   2.542  18.776  0.00  0.00    +0.000 HD
ENDROOT
BRANCH   1   7
ATOM      5  C   UNL     1       6.747   4.246  16.709  0.00  0.00    +0.000 C 
ATOM      6  C   UNL     1       6.551   5.032  17.987  0.00  0.00    +0.000 C 
ATOM      7  N   UNL     1       5.939   4.604  19.050  0.00  0.00    +0.000 NA
BRANCH   6   8
ATOM      8  C   UNL     1       7.121   6.427  18.043  0.00  0.00    +0.000 A 
ATOM      9  C   UNL     1       6.650   7.445  17.205  0.00  0.00    +0.000 A 
ATOM     10  C   UNL     1       7.219   8.722  17.255  0.00  0.00    +0.000 A 
ATOM     11  C   UNL     1       8.258   8.987  18.143  0.00  0.00    +0.000 A 
ATOM     12 BR   UNL     1       9.036  10.708  18.185  0.00  0.00    +0.000 Br
ATOM     13  C   UNL     1       8.730   7.990  18.993  0.00  0.00    +0.000 A 
ATOM     14  C   UNL     1       8.162   6.714  18.943  0.00  0.00    +0.000 A 
ENDBRANCH   6   8
ENDBRANCH   1   7
BRANCH   2  15
ATOM     15  C   UNL     1       3.389   4.347  20.097  0.00  0.00    +0.000 C 
ATOM     16  C   UNL     1       1.912   4.265  20.365  0.00  0.00    +0.000 C 
ATOM     17  C   UNL     1       2.414   5.019  19.152  0.00  0.00    +0.000 C 
BRANCH  17  18
ATOM     18  C   UNL     1       2.220   6.517  19.110  0.00  0.00    +0.000 A 
ATOM     19  C   UNL     1       2.445   7.286  17.959  0.00  0.00    +0.000 A 
ATOM     20  C   UNL     1       2.211   8.667  17.952  0.00  0.00    +0.000 A 
ATOM     21  C   UNL     1       1.742   9.304  19.100  0.00  0.00    +0.000 A 
ATOM     22  C   UNL     1       1.507   8.562  20.252  0.00  0.00    +0.000 A 
ATOM     23  C   UNL     1       1.741   7.186  20.251  0.00  0.00    +0.000 A 
ENDBRANCH  17  18
ENDBRANCH   2  15
TORSDOF 4
ENDMDL
MODEL 8
REMARK VINA RESULT:      -6.7      4.207      5.813
REMARK  Name = 
REMARK  5 active torsions:
REMARK  status: ('A' for Active; 'I' for Inactive)
REMARK    1  A    between atoms: C_1  and  C_2
REMARK    2  A    between atoms: C_2  and  C_16
REMARK    3  A    between atoms: N_3  and  N_4
REMARK    4  A    between atoms: C_5  and  C_7
REMARK    5  A    between atoms: C_9  and  C_10
REMARK                            x       y       z     vdW  Elec       q    Type
REMARK                         _______ _______ _______ _____ _____    ______ ____
ROOT
ATOM      1  N   UNL     1       1.468   7.969  21.188  0.00  0.00    +0.000 N 
ATOM      2  C   UNL     1       0.414   8.848  21.047  0.00  0.00    +0.000 C 
ATOM      3  O   UNL     1      -0.255   9.211  22.009  0.00  0.00    +0.000 OA
ATOM      4  H   UNL     1       1.657   7.650  22.127  0.00  0.00    +0.000 HD
ENDROOT
BRANCH   1   7
ATOM      5  C   UNL     1       1.802   5.145  20.678  0.00  0.00    +0.000 C 
ATOM      6  C   UNL     1       2.359   6.292  19.861  0.00  0.00    +0.000 C 
ATOM      7  N   UNL     1       2.188   7.554  20.118  0.00  0.00    +0.000 NA
BRANCH   6   8
ATOM      8  C   UNL     1       3.192   5.947  18.652  0.00  0.00    +0.000 A 
ATOM      9  C   UNL     1       3.816   6.939  17.886  0.00  0.00    +0.000 A 
ATOM     10  C   UNL     1       4.556   6.594  16.750  0.00  0.00    +0.000 A 
ATOM     11  C   UNL     1       4.677   5.258  16.378  0.00  0.00    +0.000 A 
ATOM     12 BR   UNL     1       5.658   4.804  14.828  0.00  0.00    +0.000 Br
ATOM     13  C   UNL     1       4.074   4.258  17.136  0.00  0.00    +0.000 A 
ATOM     14  C   UNL     1       3.335   4.602  18.271  0.00  0.00    +0.000 A 
ENDBRANCH   6   8
ENDBRANCH   1   7
BRANCH   2  15
ATOM     15  C   UNL     1       0.105   9.318  19.662  0.00  0.00    +0.000 C 
ATOM     16  C   UNL     1       0.636  10.636  19.170  0.00  0.00    +0.000 C 
ATOM     17  C   UNL     1      -0.837  10.493  19.489  0.00  0.00    +0.000 C 
BRANCH  17  18
ATOM     18  C   UNL     1      -1.827  10.583  18.351  0.00  0.00    +0.000 A 
ATOM     19  C   UNL     1      -2.969  11.397  18.392  0.00  0.00    +0.000 A 
ATOM     20  C   UNL     1      -3.837  11.484  17.297  0.00  0.00    +0.000 A 
ATOM     21  C   UNL     1      -3.577  10.758  16.136  0.00  0.00    +0.000 A 
ATOM     22  C   UNL     1      -2.449   9.948  16.070  0.00  0.00    +0.000 A 
ATOM     23  C   UNL     1      -1.587   9.867  17.165  0.00  0.00    +0.000 A 
ENDBRANCH  17  18
ENDBRANCH   2  15
TORSDOF 4
ENDMDL
MODEL 9
REMARK VINA RESULT:      -6.7      0.643      1.582
REMARK  Name = 
REMARK  5 active torsions:
REMARK  status: ('A' for Active; 'I' for Inactive)
REMARK    1  A    between atoms: C_1  and  C_2
REMARK    2  A    between atoms: C_2  and  C_16
REMARK    3  A    between atoms: N_3  and  N_4
REMARK    4  A    between atoms: C_5  and  C_7
REMARK    5  A    between atoms: C_9  and  C_10
REMARK                            x       y       z     vdW  Elec       q    Type
REMARK                         _______ _______ _______ _____ _____    ______ ____
ROOT
ATOM      1  N   UNL     1       4.682   2.506  18.196  0.00  0.00    +0.000 N 
ATOM      2  C   UNL     1       3.448   2.306  18.779  0.00  0.00    +0.000 C 
ATOM      3  O   UNL     1       2.830   1.256  18.637  0.00  0.00    +0.000 OA
ATOM      4  H   UNL     1       5.045   1.736  17.653  0.00  0.00    +0.000 HD
ENDROOT
BRANCH   1   7
ATOM      5  C   UNL     1       4.926   4.312  15.954  0.00  0.00    +0.000 C 
ATOM      6  C   UNL     1       5.478   4.511  17.350  0.00  0.00    +0.000 C 
ATOM      7  N   UNL     1       5.348   3.677  18.338  0.00  0.00    +0.000 NA
BRANCH   6   8
ATOM      8  C   UNL     1       6.253   5.775  17.620  0.00  0.00    +0.000 A 
ATOM      9  C   UNL     1       5.921   6.985  16.999  0.00  0.00    +0.000 A 
ATOM     10  C   UNL     1       6.677   8.136  17.242  0.00  0.00    +0.000 A 
ATOM     11  C   UNL     1       7.766   8.083  18.109  0.00  0.00    +0.000 A 
ATOM     12 BR   UNL     1       8.796   9.637  18.413  0.00  0.00    +0.000 Br
ATOM     13  C   UNL     1       8.102   6.892  18.746  0.00  0.00    +0.000 A 
ATOM     14  C   UNL     1       7.347   5.741  18.503  0.00  0.00    +0.000 A 
ENDBRANCH   6   8
ENDBRANCH   1   7
BRANCH   2  15
ATOM     15  C   UNL     1       2.882   3.440  19.573  0.00  0.00    +0.000 C 
ATOM     16  C   UNL     1       1.437   3.434  19.987  0.00  0.00    +0.000 C 
ATOM     17  C   UNL     1       1.902   4.379  18.899  0.00  0.00    +0.000 C 
BRANCH  17  18
ATOM     18  C   UNL     1       1.870   5.863  19.181  0.00  0.00    +0.000 A 
ATOM     19  C   UNL     1       1.449   6.400  20.407  0.00  0.00    +0.000 A 
ATOM     20  C   UNL     1       1.477   7.780  20.642  0.00  0.00    +0.000 A 
ATOM     21  C   UNL     1       1.931   8.651  19.652  0.00  0.00    +0.000 A 
ATOM     22  C   UNL     1       2.358   8.142  18.431  0.00  0.00    +0.000 A 
ATOM     23  C   UNL     1       2.329   6.765  18.205  0.00  0.00    +0.000 A 
ENDBRANCH  17  18
ENDBRANCH   2  15
TORSDOF 4
ENDMDL
