MODEL 1
REMARK VINA RESULT:      -7.4      0.000      0.000
REMARK  Name = 
REMARK  12 active torsions:
REMARK  status: ('A' for Active; 'I' for Inactive)
REMARK    1  A    between atoms: C_1  and  C_2
REMARK    2  A    between atoms: C_4  and  O_5
REMARK    3  A    between atoms: O_5  and  C_6
REMARK    4  A    between atoms: C_6  and  C_7
REMARK    5  A    between atoms: C_7  and  N_8
REMARK    6  A    between atoms: N_8  and  C_9
REMARK    7  A    between atoms: N_8  and  C_10
REMARK    8  A    between atoms: N_8  and  C_11
REMARK    9  A    between atoms: C_11  and  C_12
REMARK   10  A    between atoms: C_18  and  C_19
REMARK   11  A    between atoms: C_19  and  C_20
REMARK   12  A    between atoms: C_19  and  C_21
REMARK                            x       y       z     vdW  Elec       q    Type
REMARK                         _______ _______ _______ _____ _____    ______ ____
ROOT
ATOM      1  O   UNL     1       5.151   3.996  17.624  0.00  0.00    +0.000 OA
ENDROOT
BRANCH   1   5
ATOM      2  C   UNL     1       5.744   3.341  12.754  0.00  0.00    +0.000 C 
ATOM      3  C   UNL     1       6.130   4.032  14.035  0.00  0.00    +0.000 A 
ATOM      4  C   UNL     1       5.438   3.715  15.213  0.00  0.00    +0.000 A 
ATOM      5  C   UNL     1       5.755   4.320  16.435  0.00  0.00    +0.000 A 
ATOM      6  C   UNL     1       6.710   5.348  16.490  0.00  0.00    +0.000 A 
ATOM      7  C   UNL     1       7.397   5.672  15.299  0.00  0.00    +0.000 A 
ATOM      8  C   UNL     1       7.113   5.019  14.095  0.00  0.00    +0.000 A 
ATOM      9 CL   UNL     1       8.018   5.483  12.697  0.00  0.00    +0.000 Cl
BRANCH   6  10
ATOM     10  C   UNL     1       7.025   6.067  17.800  0.00  0.00    +0.000 C 
ATOM     11  C   UNL     1       7.974   5.218  18.651  0.00  0.00    +0.000 C 
ATOM     12  C   UNL     1       7.595   7.482  17.636  0.00  0.00    +0.000 C 
ENDBRANCH   6  10
ENDBRANCH   1   5
BRANCH   1  13
ATOM     13  C   UNL     1       3.980   3.192  17.580  0.00  0.00    +0.000 C 
BRANCH  13  14
ATOM     14  C   UNL     1       3.252   3.219  18.939  0.00  0.00    +0.000 C 
BRANCH  14  15
ATOM     15  N   UNL     1       2.348   4.471  19.122  0.00  0.00    +0.000 N 
ATOM     16  C   UNL     1       1.608   4.745  17.817  0.00  0.00    +0.000 C 
ATOM     17  C   UNL     1       1.373   4.222  20.274  0.00  0.00    +0.000 C 
BRANCH  15  18
ATOM     18  C   UNL     1       3.245   5.693  19.481  0.00  0.00    +0.000 C 
BRANCH  18  19
ATOM     19  C   UNL     1       2.768   7.013  18.958  0.00  0.00    +0.000 A 
ATOM     20  C   UNL     1       2.993   7.723  17.793  0.00  0.00    +0.000 A 
ATOM     21  C   UNL     1       2.187   8.888  17.867  0.00  0.00    +0.000 A 
ATOM     22  C   UNL     1       1.535   8.830  19.077  0.00  0.00    +0.000 A 
ATOM     23 BR   UNL     1       0.333  10.105  19.712  0.00  0.00    +0.000 Br
ATOM     24  O   UNL     1       1.884   7.694  19.746  0.00  0.00    +0.000 OA
ENDBRANCH  18  19
ENDBRANCH  15  18
ENDBRANCH  14  15
ENDBRANCH  13  14
ENDBRANCH   1  13
TORSDOF 7
ENDMDL
MODEL 2
REMARK VINA RESULT:      -7.3      3.858      7.169
REMARK  Name = 
REMARK  12 active torsions:
REMARK  status: ('A' for Active; 'I' for Inactive)
REMARK    1  A    between atoms: C_1  and  C_2
REMARK    2  A    between atoms: C_4  and  O_5
REMARK    3  A    between atoms: O_5  and  C_6
REMARK    4  A    between atoms: C_6  and  C_7
REMARK    5  A    between atoms: C_7  and  N_8
REMARK    6  A    between atoms: N_8  and  C_9
REMARK    7  A    between atoms: N_8  and  C_10
REMARK    8  A    between atoms: N_8  and  C_11
REMARK    9  A    between atoms: C_11  and  C_12
REMARK   10  A    between atoms: C_18  and  C_19
REMARK   11  A    between atoms: C_19  and  C_20
REMARK   12  A    between atoms: C_19  and  C_21
REMARK                            x       y       z     vdW  Elec       q    Type
REMARK                         _______ _______ _______ _____ _____    ______ ____
ROOT
ATOM      1  O   UNL     1       2.758   4.191  17.631  0.00  0.00    +0.000 OA
ENDROOT
BRANCH   1   5
ATOM      2  C   UNL     1       2.159   9.055  18.333  0.00  0.00    +0.000 C 
ATOM      3  C   UNL     1       2.141   7.647  18.866  0.00  0.00    +0.000 A 
ATOM      4  C   UNL     1       2.422   6.585  17.993  0.00  0.00    +0.000 A 
ATOM      5  C   UNL     1       2.427   5.257  18.431  0.00  0.00    +0.000 A 
ATOM      6  C   UNL     1       2.039   4.942  19.744  0.00  0.00    +0.000 A 
ATOM      7  C   UNL     1       1.747   6.013  20.617  0.00  0.00    +0.000 A 
ATOM      8  C   UNL     1       1.803   7.342  20.184  0.00  0.00    +0.000 A 
ATOM      9 CL   UNL     1       1.437   8.579  21.334  0.00  0.00    +0.000 Cl
BRANCH   6  10
ATOM     10  C   UNL     1       1.973   3.494  20.226  0.00  0.00    +0.000 C 
ATOM     11  C   UNL     1       2.099   3.442  21.751  0.00  0.00    +0.000 C 
ATOM     12  C   UNL     1       0.726   2.723  19.777  0.00  0.00    +0.000 C 
ENDBRANCH   6  10
ENDBRANCH   1   5
BRANCH   1  13
ATOM     13  C   UNL     1       4.098   3.717  17.672  0.00  0.00    +0.000 C 
BRANCH  13  14
ATOM     14  C   UNL     1       4.820   4.020  16.344  0.00  0.00    +0.000 C 
BRANCH  14  15
ATOM     15  N   UNL     1       5.819   5.208  16.449  0.00  0.00    +0.000 N 
ATOM     16  C   UNL     1       5.224   6.421  15.743  0.00  0.00    +0.000 C 
ATOM     17  C   UNL     1       6.096   5.501  17.925  0.00  0.00    +0.000 C 
BRANCH  15  18
ATOM     18  C   UNL     1       7.156   4.805  15.760  0.00  0.00    +0.000 C 
BRANCH  18  19
ATOM     19  C   UNL     1       7.076   4.603  14.278  0.00  0.00    +0.000 A 
ATOM     20  C   UNL     1       7.667   5.220  13.191  0.00  0.00    +0.000 A 
ATOM     21  C   UNL     1       7.233   4.513  12.040  0.00  0.00    +0.000 A 
ATOM     22  C   UNL     1       6.390   3.523  12.489  0.00  0.00    +0.000 A 
ATOM     23 BR   UNL     1       5.521   2.278  11.408  0.00  0.00    +0.000 Br
ATOM     24  O   UNL     1       6.289   3.572  13.848  0.00  0.00    +0.000 OA
ENDBRANCH  18  19
ENDBRANCH  15  18
ENDBRANCH  14  15
ENDBRANCH  13  14
ENDBRANCH   1  13
TORSDOF 7
ENDMDL
MODEL 3
REMARK VINA RESULT:      -7.1      3.925      7.276
REMARK  Name = 
REMARK  12 active torsions:
REMARK  status: ('A' for Active; 'I' for Inactive)
REMARK    1  A    between atoms: C_1  and  C_2
REMARK    2  A    between atoms: C_4  and  O_5
REMARK    3  A    between atoms: O_5  and  C_6
REMARK    4  A    between atoms: C_6  and  C_7
REMARK    5  A    between atoms: C_7  and  N_8
REMARK    6  A    between atoms: N_8  and  C_9
REMARK    7  A    between atoms: N_8  and  C_10
REMARK    8  A    between atoms: N_8  and  C_11
REMARK    9  A    between atoms: C_11  and  C_12
REMARK   10  A    between atoms: C_18  and  C_19
REMARK   11  A    between atoms: C_19  and  C_20
REMARK   12  A    between atoms: C_19  and  C_21
REMARK                            x       y       z     vdW  Elec       q    Type
REMARK                         _______ _______ _______ _____ _____    ______ ____
ROOT
ATOM      1  O   UNL     1       3.254   6.021  17.825  0.00  0.00    +0.000 OA
ENDROOT
BRANCH   1   5
ATOM      2  C   UNL     1       1.269  10.338  19.212  0.00  0.00    +0.000 C 
ATOM      3  C   UNL     1       1.533   8.879  19.473  0.00  0.00    +0.000 A 
ATOM      4  C   UNL     1       2.235   8.133  18.514  0.00  0.00    +0.000 A 
ATOM      5  C   UNL     1       2.516   6.776  18.703  0.00  0.00    +0.000 A 
ATOM      6  C   UNL     1       2.003   6.093  19.818  0.00  0.00    +0.000 A 
ATOM      7  C   UNL     1       1.287   6.846  20.776  0.00  0.00    +0.000 A 
ATOM      8  C   UNL     1       1.063   8.216  20.606  0.00  0.00    +0.000 A 
ATOM      9 CL   UNL     1       0.184   9.046  21.842  0.00  0.00    +0.000 Cl
BRANCH   6  10
ATOM     10  C   UNL     1       2.241   4.597  20.011  0.00  0.00    +0.000 C 
ATOM     11  C   UNL     1       2.382   4.276  21.502  0.00  0.00    +0.000 C 
ATOM     12  C   UNL     1       1.178   3.690  19.379  0.00  0.00    +0.000 C 
ENDBRANCH   6  10
ENDBRANCH   1   5
BRANCH   1  13
ATOM     13  C   UNL     1       4.608   6.391  17.601  0.00  0.00    +0.000 C 
BRANCH  13  14
ATOM     14  C   UNL     1       5.550   5.575  18.507  0.00  0.00    +0.000 C 
BRANCH  14  15
ATOM     15  N   UNL     1       7.055   5.806  18.189  0.00  0.00    +0.000 N 
ATOM     16  C   UNL     1       7.198   7.075  17.355  0.00  0.00    +0.000 C 
ATOM     17  C   UNL     1       7.835   5.910  19.501  0.00  0.00    +0.000 C 
BRANCH  15  18
ATOM     18  C   UNL     1       7.593   4.587  17.382  0.00  0.00    +0.000 C 
BRANCH  18  19
ATOM     19  C   UNL     1       7.001   4.411  16.018  0.00  0.00    +0.000 A 
ATOM     20  C   UNL     1       5.819   3.874  15.546  0.00  0.00    +0.000 A 
ATOM     21  C   UNL     1       5.817   4.070  14.140  0.00  0.00    +0.000 A 
ATOM     22  C   UNL     1       7.004   4.696  13.837  0.00  0.00    +0.000 A 
ATOM     23 BR   UNL     1       7.544   5.205  12.128  0.00  0.00    +0.000 Br
ATOM     24  O   UNL     1       7.730   4.906  14.972  0.00  0.00    +0.000 OA
ENDBRANCH  18  19
ENDBRANCH  15  18
ENDBRANCH  14  15
ENDBRANCH  13  14
ENDBRANCH   1  13
TORSDOF 7
ENDMDL
MODEL 4
REMARK VINA RESULT:      -7.0      3.401      6.415
REMARK  Name = 
REMARK  12 active torsions:
REMARK  status: ('A' for Active; 'I' for Inactive)
REMARK    1  A    between atoms: C_1  and  C_2
REMARK    2  A    between atoms: C_4  and  O_5
REMARK    3  A    between atoms: O_5  and  C_6
REMARK    4  A    between atoms: C_6  and  C_7
REMARK    5  A    between atoms: C_7  and  N_8
REMARK    6  A    between atoms: N_8  and  C_9
REMARK    7  A    between atoms: N_8  and  C_10
REMARK    8  A    between atoms: N_8  and  C_11
REMARK    9  A    between atoms: C_11  and  C_12
REMARK   10  A    between atoms: C_18  and  C_19
REMARK   11  A    between atoms: C_19  and  C_20
REMARK   12  A    between atoms: C_19  and  C_21
REMARK                            x       y       z     vdW  Elec       q    Type
REMARK                         _______ _______ _______ _____ _____    ______ ____
ROOT
ATOM      1  O   UNL     1       3.120   4.172  17.714  0.00  0.00    +0.000 OA
ENDROOT
BRANCH   1   5
ATOM      2  C   UNL     1       2.198   9.008  18.238  0.00  0.00    +0.000 C 
ATOM      3  C   UNL     1       2.196   7.610  18.798  0.00  0.00    +0.000 A 
ATOM      4  C   UNL     1       2.624   6.551  17.983  0.00  0.00    +0.000 A 
ATOM      5  C   UNL     1       2.650   5.232  18.450  0.00  0.00    +0.000 A 
ATOM      6  C   UNL     1       2.141   4.919  19.721  0.00  0.00    +0.000 A 
ATOM      7  C   UNL     1       1.701   5.987  20.534  0.00  0.00    +0.000 A 
ATOM      8  C   UNL     1       1.735   7.310  20.079  0.00  0.00    +0.000 A 
ATOM      9 CL   UNL     1       1.184   8.544  21.156  0.00  0.00    +0.000 Cl
BRANCH   6  10
ATOM     10  C   UNL     1       2.098   3.478  20.226  0.00  0.00    +0.000 C 
ATOM     11  C   UNL     1       2.104   3.457  21.757  0.00  0.00    +0.000 C 
ATOM     12  C   UNL     1       0.925   2.645  19.695  0.00  0.00    +0.000 C 
ENDBRANCH   6  10
ENDBRANCH   1   5
BRANCH   1  13
ATOM     13  C   UNL     1       4.521   3.934  17.706  0.00  0.00    +0.000 C 
BRANCH  13  14
ATOM     14  C   UNL     1       5.008   3.607  16.281  0.00  0.00    +0.000 C 
BRANCH  14  15
ATOM     15  N   UNL     1       5.973   4.681  15.703  0.00  0.00    +0.000 N 
ATOM     16  C   UNL     1       7.404   4.322  16.088  0.00  0.00    +0.000 C 
ATOM     17  C   UNL     1       5.803   4.744  14.185  0.00  0.00    +0.000 C 
BRANCH  15  18
ATOM     18  C   UNL     1       5.601   6.069  16.306  0.00  0.00    +0.000 C 
BRANCH  18  19
ATOM     19  C   UNL     1       6.617   6.653  17.239  0.00  0.00    +0.000 A 
ATOM     20  C   UNL     1       7.350   6.151  18.298  0.00  0.00    +0.000 A 
ATOM     21  C   UNL     1       8.202   7.199  18.733  0.00  0.00    +0.000 A 
ATOM     22  C   UNL     1       7.925   8.280  17.930  0.00  0.00    +0.000 A 
ATOM     23 BR   UNL     1       8.754   9.946  18.047  0.00  0.00    +0.000 Br
ATOM     24  O   UNL     1       6.963   7.957  17.020  0.00  0.00    +0.000 OA
ENDBRANCH  18  19
ENDBRANCH  15  18
ENDBRANCH  14  15
ENDBRANCH  13  14
ENDBRANCH   1  13
TORSDOF 7
ENDMDL
MODEL 5
REMARK VINA RESULT:      -6.8      3.774      5.994
REMARK  Name = 
REMARK  12 active torsions:
REMARK  status: ('A' for Active; 'I' for Inactive)
REMARK    1  A    between atoms: C_1  and  C_2
REMARK    2  A    between atoms: C_4  and  O_5
REMARK    3  A    between atoms: O_5  and  C_6
REMARK    4  A    between atoms: C_6  and  C_7
REMARK    5  A    between atoms: C_7  and  N_8
REMARK    6  A    between atoms: N_8  and  C_9
REMARK    7  A    between atoms: N_8  and  C_10
REMARK    8  A    between atoms: N_8  and  C_11
REMARK    9  A    between atoms: C_11  and  C_12
REMARK   10  A    between atoms: C_18  and  C_19
REMARK   11  A    between atoms: C_19  and  C_20
REMARK   12  A    between atoms: C_19  and  C_21
REMARK                            x       y       z     vdW  Elec       q    Type
REMARK                         _______ _______ _______ _____ _____    ______ ____
ROOT
ATOM      1  O   UNL     1       2.845   8.146  17.836  0.00  0.00    +0.000 OA
ENDROOT
BRANCH   1   5
ATOM      2  C   UNL     1       1.658   4.351  20.785  0.00  0.00    +0.000 C 
ATOM      3  C   UNL     1       2.602   4.999  19.807  0.00  0.00    +0.000 A 
ATOM      4  C   UNL     1       2.263   6.245  19.258  0.00  0.00    +0.000 A 
ATOM      5  C   UNL     1       3.103   6.899  18.350  0.00  0.00    +0.000 A 
ATOM      6  C   UNL     1       4.265   6.268  17.876  0.00  0.00    +0.000 A 
ATOM      7  C   UNL     1       4.597   5.008  18.423  0.00  0.00    +0.000 A 
ATOM      8  C   UNL     1       3.781   4.390  19.376  0.00  0.00    +0.000 A 
ATOM      9 CL   UNL     1       4.282   2.854  19.990  0.00  0.00    +0.000 Cl
BRANCH   6  10
ATOM     10  C   UNL     1       5.161   6.934  16.835  0.00  0.00    +0.000 C 
ATOM     11  C   UNL     1       6.579   7.098  17.390  0.00  0.00    +0.000 C 
ATOM     12  C   UNL     1       5.211   6.221  15.478  0.00  0.00    +0.000 C 
ENDBRANCH   6  10
ENDBRANCH   1   5
BRANCH   1  13
ATOM     13  C   UNL     1       1.638   8.790  18.222  0.00  0.00    +0.000 C 
BRANCH  13  14
ATOM     14  C   UNL     1       1.868  10.301  18.416  0.00  0.00    +0.000 C 
BRANCH  14  15
ATOM     15  N   UNL     1       0.716  10.999  19.195  0.00  0.00    +0.000 N 
ATOM     16  C   UNL     1       1.164  11.242  20.632  0.00  0.00    +0.000 C 
ATOM     17  C   UNL     1       0.357  12.309  18.492  0.00  0.00    +0.000 C 
BRANCH  15  18
ATOM     18  C   UNL     1      -0.534  10.069  19.187  0.00  0.00    +0.000 C 
BRANCH  18  19
ATOM     19  C   UNL     1      -1.650  10.505  18.288  0.00  0.00    +0.000 A 
ATOM     20  C   UNL     1      -2.697  11.398  18.421  0.00  0.00    +0.000 A 
ATOM     21  C   UNL     1      -3.375  11.414  17.175  0.00  0.00    +0.000 A 
ATOM     22  C   UNL     1      -2.716  10.519  16.365  0.00  0.00    +0.000 A 
ATOM     23 BR   UNL     1      -3.171  10.130  14.600  0.00  0.00    +0.000 Br
ATOM     24  O   UNL     1      -1.667   9.961  17.035  0.00  0.00    +0.000 OA
ENDBRANCH  18  19
ENDBRANCH  15  18
ENDBRANCH  14  15
ENDBRANCH  13  14
ENDBRANCH   1  13
TORSDOF 7
ENDMDL
MODEL 6
REMARK VINA RESULT:      -6.7      3.787      6.920
REMARK  Name = 
REMARK  12 active torsions:
REMARK  status: ('A' for Active; 'I' for Inactive)
REMARK    1  A    between atoms: C_1  and  C_2
REMARK    2  A    between atoms: C_4  and  O_5
REMARK    3  A    between atoms: O_5  and  C_6
REMARK    4  A    between atoms: C_6  and  C_7
REMARK    5  A    between atoms: C_7  and  N_8
REMARK    6  A    between atoms: N_8  and  C_9
REMARK    7  A    between atoms: N_8  and  C_10
REMARK    8  A    between atoms: N_8  and  C_11
REMARK    9  A    between atoms: C_11  and  C_12
REMARK   10  A    between atoms: C_18  and  C_19
REMARK   11  A    between atoms: C_19  and  C_20
REMARK   12  A    between atoms: C_19  and  C_21
REMARK                            x       y       z     vdW  Elec       q    Type
REMARK                         _______ _______ _______ _____ _____    ______ ____
ROOT
ATOM      1  O   UNL     1       3.005   3.801  17.583  0.00  0.00    +0.000 OA
ENDROOT
BRANCH   1   5
ATOM      2  C   UNL     1       2.389   8.696  17.982  0.00  0.00    +0.000 C 
ATOM      3  C   UNL     1       2.356   7.322  18.596  0.00  0.00    +0.000 A 
ATOM      4  C   UNL     1       2.660   6.212  17.794  0.00  0.00    +0.000 A 
ATOM      5  C   UNL     1       2.653   4.911  18.310  0.00  0.00    +0.000 A 
ATOM      6  C   UNL     1       2.230   4.673  19.628  0.00  0.00    +0.000 A 
ATOM      7  C   UNL     1       1.914   5.793  20.429  0.00  0.00    +0.000 A 
ATOM      8  C   UNL     1       1.983   7.094  19.921  0.00  0.00    +0.000 A 
ATOM      9 CL   UNL     1       1.586   8.396  20.986  0.00  0.00    +0.000 Cl
BRANCH   6  10
ATOM     10  C   UNL     1       2.150   3.256  20.192  0.00  0.00    +0.000 C 
ATOM     11  C   UNL     1       2.101   3.300  21.721  0.00  0.00    +0.000 C 
ATOM     12  C   UNL     1       0.985   2.415  19.655  0.00  0.00    +0.000 C 
ENDBRANCH   6  10
ENDBRANCH   1   5
BRANCH   1  13
ATOM     13  C   UNL     1       4.384   3.589  17.315  0.00  0.00    +0.000 C 
BRANCH  13  14
ATOM     14  C   UNL     1       5.245   4.645  18.036  0.00  0.00    +0.000 C 
BRANCH  14  15
ATOM     15  N   UNL     1       6.267   5.345  17.095  0.00  0.00    +0.000 N 
ATOM     16  C   UNL     1       6.784   6.609  17.775  0.00  0.00    +0.000 C 
ATOM     17  C   UNL     1       7.407   4.375  16.782  0.00  0.00    +0.000 C 
BRANCH  15  18
ATOM     18  C   UNL     1       5.551   5.723  15.764  0.00  0.00    +0.000 C 
BRANCH  18  19
ATOM     19  C   UNL     1       6.131   5.105  14.529  0.00  0.00    +0.000 A 
ATOM     20  C   UNL     1       7.328   5.250  13.854  0.00  0.00    +0.000 A 
ATOM     21  C   UNL     1       7.302   4.324  12.780  0.00  0.00    +0.000 A 
ATOM     22  C   UNL     1       6.086   3.685  12.851  0.00  0.00    +0.000 A 
ATOM     23 BR   UNL     1       5.500   2.355  11.684  0.00  0.00    +0.000 Br
ATOM     24  O   UNL     1       5.368   4.155  13.910  0.00  0.00    +0.000 OA
ENDBRANCH  18  19
ENDBRANCH  15  18
ENDBRANCH  14  15
ENDBRANCH  13  14
ENDBRANCH   1  13
TORSDOF 7
ENDMDL
MODEL 7
REMARK VINA RESULT:      -6.7      1.169      1.473
REMARK  Name = 
REMARK  12 active torsions:
REMARK  status: ('A' for Active; 'I' for Inactive)
REMARK    1  A    between atoms: C_1  and  C_2
REMARK    2  A    between atoms: C_4  and  O_5
REMARK    3  A    between atoms: O_5  and  C_6
REMARK    4  A    between atoms: C_6  and  C_7
REMARK    5  A    between atoms: C_7  and  N_8
REMARK    6  A    between atoms: N_8  and  C_9
REMARK    7  A    between atoms: N_8  and  C_10
REMARK    8  A    between atoms: N_8  and  C_11
REMARK    9  A    between atoms: C_11  and  C_12
REMARK   10  A    between atoms: C_18  and  C_19
REMARK   11  A    between atoms: C_19  and  C_20
REMARK   12  A    between atoms: C_19  and  C_21
REMARK                            x       y       z     vdW  Elec       q    Type
REMARK                         _______ _______ _______ _____ _____    ______ ____
ROOT
ATOM      1  O   UNL     1       4.513   4.625  17.295  0.00  0.00    +0.000 OA
ENDROOT
BRANCH   1   5
ATOM      2  C   UNL     1       5.687   3.453  12.631  0.00  0.00    +0.000 C 
ATOM      3  C   UNL     1       6.000   4.178  13.913  0.00  0.00    +0.000 A 
ATOM      4  C   UNL     1       5.096   4.089  14.983  0.00  0.00    +0.000 A 
ATOM      5  C   UNL     1       5.335   4.734  16.201  0.00  0.00    +0.000 A 
ATOM      6  C   UNL     1       6.443   5.585  16.347  0.00  0.00    +0.000 A 
ATOM      7  C   UNL     1       7.345   5.680  15.264  0.00  0.00    +0.000 A 
ATOM      8  C   UNL     1       7.127   4.983  14.071  0.00  0.00    +0.000 A 
ATOM      9 CL   UNL     1       8.297   5.160  12.811  0.00  0.00    +0.000 Cl
BRANCH   6  10
ATOM     10  C   UNL     1       6.688   6.351  17.645  0.00  0.00    +0.000 C 
ATOM     11  C   UNL     1       7.655   5.572  18.541  0.00  0.00    +0.000 C 
ATOM     12  C   UNL     1       7.192   7.788  17.458  0.00  0.00    +0.000 C 
ENDBRANCH   6  10
ENDBRANCH   1   5
BRANCH   1  13
ATOM     13  C   UNL     1       4.752   3.558  18.204  0.00  0.00    +0.000 C 
BRANCH  13  14
ATOM     14  C   UNL     1       4.119   3.863  19.576  0.00  0.00    +0.000 C 
BRANCH  14  15
ATOM     15  N   UNL     1       2.757   3.145  19.794  0.00  0.00    +0.000 N 
ATOM     16  C   UNL     1       2.756   1.835  19.014  0.00  0.00    +0.000 C 
ATOM     17  C   UNL     1       2.550   2.904  21.290  0.00  0.00    +0.000 C 
BRANCH  15  18
ATOM     18  C   UNL     1       1.612   4.065  19.272  0.00  0.00    +0.000 C 
BRANCH  18  19
ATOM     19  C   UNL     1       1.860   5.535  19.414  0.00  0.00    +0.000 A 
ATOM     20  C   UNL     1       2.426   6.497  18.598  0.00  0.00    +0.000 A 
ATOM     21  C   UNL     1       2.301   7.733  19.283  0.00  0.00    +0.000 A 
ATOM     22  C   UNL     1       1.687   7.451  20.481  0.00  0.00    +0.000 A 
ATOM     23 BR   UNL     1       1.264   8.704  21.794  0.00  0.00    +0.000 Br
ATOM     24  O   UNL     1       1.417   6.117  20.568  0.00  0.00    +0.000 OA
ENDBRANCH  18  19
ENDBRANCH  15  18
ENDBRANCH  14  15
ENDBRANCH  13  14
ENDBRANCH   1  13
TORSDOF 7
ENDMDL
MODEL 8
REMARK VINA RESULT:      -6.6      0.625      1.121
REMARK  Name = 
REMARK  12 active torsions:
REMARK  status: ('A' for Active; 'I' for Inactive)
REMARK    1  A    between atoms: C_1  and  C_2
REMARK    2  A    between atoms: C_4  and  O_5
REMARK    3  A    between atoms: O_5  and  C_6
REMARK    4  A    between atoms: C_6  and  C_7
REMARK    5  A    between atoms: C_7  and  N_8
REMARK    6  A    between atoms: N_8  and  C_9
REMARK    7  A    between atoms: N_8  and  C_10
REMARK    8  A    between atoms: N_8  and  C_11
REMARK    9  A    between atoms: C_11  and  C_12
REMARK   10  A    between atoms: C_18  and  C_19
REMARK   11  A    between atoms: C_19  and  C_20
REMARK   12  A    between atoms: C_19  and  C_21
REMARK                            x       y       z     vdW  Elec       q    Type
REMARK                         _______ _______ _______ _____ _____    ______ ____
ROOT
ATOM      1  O   UNL     1       5.163   4.152  17.360  0.00  0.00    +0.000 OA
ENDROOT
BRANCH   1   5
ATOM      2  C   UNL     1       5.321   3.345  12.479  0.00  0.00    +0.000 C 
ATOM      3  C   UNL     1       5.891   3.989  13.715  0.00  0.00    +0.000 A 
ATOM      4  C   UNL     1       5.241   3.797  14.943  0.00  0.00    +0.000 A 
ATOM      5  C   UNL     1       5.727   4.364  16.126  0.00  0.00    +0.000 A 
ATOM      6  C   UNL     1       6.825   5.239  16.095  0.00  0.00    +0.000 A 
ATOM      7  C   UNL     1       7.470   5.438  14.854  0.00  0.00    +0.000 A 
ATOM      8  C   UNL     1       7.012   4.818  13.687  0.00  0.00    +0.000 A 
ATOM      9 CL   UNL     1       7.879   5.121  12.222  0.00  0.00    +0.000 Cl
BRANCH   6  10
ATOM     10  C   UNL     1       7.332   5.921  17.364  0.00  0.00    +0.000 C 
ATOM     11  C   UNL     1       6.808   7.358  17.432  0.00  0.00    +0.000 C 
ATOM     12  C   UNL     1       7.004   5.182  18.667  0.00  0.00    +0.000 C 
ENDBRANCH   6  10
ENDBRANCH   1   5
BRANCH   1  13
ATOM     13  C   UNL     1       4.066   3.252  17.446  0.00  0.00    +0.000 C 
BRANCH  13  14
ATOM     14  C   UNL     1       2.786   3.996  17.877  0.00  0.00    +0.000 C 
BRANCH  14  15
ATOM     15  N   UNL     1       2.625   4.089  19.421  0.00  0.00    +0.000 N 
ATOM     16  C   UNL     1       1.139   4.117  19.765  0.00  0.00    +0.000 C 
ATOM     17  C   UNL     1       3.326   2.896  20.071  0.00  0.00    +0.000 C 
BRANCH  15  18
ATOM     18  C   UNL     1       3.302   5.401  19.921  0.00  0.00    +0.000 C 
BRANCH  18  19
ATOM     19  C   UNL     1       2.897   6.646  19.195  0.00  0.00    +0.000 A 
ATOM     20  C   UNL     1       3.124   7.131  17.920  0.00  0.00    +0.000 A 
ATOM     21  C   UNL     1       2.405   8.350  17.817  0.00  0.00    +0.000 A 
ATOM     22  C   UNL     1       1.801   8.546  19.038  0.00  0.00    +0.000 A 
ATOM     23 BR   UNL     1       0.719   9.997  19.480  0.00  0.00    +0.000 Br
ATOM     24  O   UNL     1       2.096   7.515  19.880  0.00  0.00    +0.000 OA
ENDBRANCH  18  19
ENDBRANCH  15  18
ENDBRANCH  14  15
ENDBRANCH  13  14
ENDBRANCH   1  13
TORSDOF 7
ENDMDL
MODEL 9
REMARK VINA RESULT:      -6.6      3.840      6.936
REMARK  Name = 
REMARK  12 active torsions:
REMARK  status: ('A' for Active; 'I' for Inactive)
REMARK    1  A    between atoms: C_1  and  C_2
REMARK    2  A    between atoms: C_4  and  O_5
REMARK    3  A    between atoms: O_5  and  C_6
REMARK    4  A    between atoms: C_6  and  C_7
REMARK    5  A    between atoms: C_7  and  N_8
REMARK    6  A    between atoms: N_8  and  C_9
REMARK    7  A    between atoms: N_8  and  C_10
REMARK    8  A    between atoms: N_8  and  C_11
REMARK    9  A    between atoms: C_11  and  C_12
REMARK   10  A    between atoms: C_18  and  C_19
REMARK   11  A    between atoms: C_19  and  C_20
REMARK   12  A    between atoms: C_19  and  C_21
REMARK                            x       y       z     vdW  Elec       q    Type
REMARK                         _______ _______ _______ _____ _____    ______ ____
ROOT
ATOM      1  O   UNL     1       3.815   4.640  18.164  0.00  0.00    +0.000 OA
ENDROOT
BRANCH   1   5
ATOM      2  C   UNL     1       2.108   9.265  18.609  0.00  0.00    +0.000 C 
ATOM      3  C   UNL     1       2.169   7.843  19.101  0.00  0.00    +0.000 A 
ATOM      4  C   UNL     1       2.931   6.908  18.384  0.00  0.00    +0.000 A 
ATOM      5  C   UNL     1       3.032   5.575  18.795  0.00  0.00    +0.000 A 
ATOM      6  C   UNL     1       2.276   5.109  19.884  0.00  0.00    +0.000 A 
ATOM      7  C   UNL     1       1.501   6.051  20.596  0.00  0.00    +0.000 A 
ATOM      8  C   UNL     1       1.455   7.396  20.212  0.00  0.00    +0.000 A 
ATOM      9 CL   UNL     1       0.485   8.469  21.157  0.00  0.00    +0.000 Cl
BRANCH   6  10
ATOM     10  C   UNL     1       2.319   3.643  20.310  0.00  0.00    +0.000 C 
ATOM     11  C   UNL     1       2.256   3.537  21.836  0.00  0.00    +0.000 C 
ATOM     12  C   UNL     1       1.237   2.758  19.679  0.00  0.00    +0.000 C 
ENDBRANCH   6  10
ENDBRANCH   1   5
BRANCH   1  13
ATOM     13  C   UNL     1       5.017   4.235  18.805  0.00  0.00    +0.000 C 
BRANCH  13  14
ATOM     14  C   UNL     1       5.901   5.458  19.122  0.00  0.00    +0.000 C 
BRANCH  14  15
ATOM     15  N   UNL     1       6.955   5.752  18.017  0.00  0.00    +0.000 N 
ATOM     16  C   UNL     1       7.953   6.779  18.543  0.00  0.00    +0.000 C 
ATOM     17  C   UNL     1       7.650   4.447  17.627  0.00  0.00    +0.000 C 
BRANCH  15  18
ATOM     18  C   UNL     1       6.226   6.325  16.765  0.00  0.00    +0.000 C 
BRANCH  18  19
ATOM     19  C   UNL     1       6.080   5.372  15.619  0.00  0.00    +0.000 A 
ATOM     20  C   UNL     1       5.220   4.325  15.343  0.00  0.00    +0.000 A 
ATOM     21  C   UNL     1       5.555   3.857  14.047  0.00  0.00    +0.000 A 
ATOM     22  C   UNL     1       6.610   4.629  13.618  0.00  0.00    +0.000 A 
ATOM     23 BR   UNL     1       7.465   4.460  11.971  0.00  0.00    +0.000 Br
ATOM     24  O   UNL     1       6.935   5.551  14.568  0.00  0.00    +0.000 OA
ENDBRANCH  18  19
ENDBRANCH  15  18
ENDBRANCH  14  15
ENDBRANCH  13  14
ENDBRANCH   1  13
TORSDOF 7
ENDMDL
