MODEL 1
REMARK VINA RESULT:      -7.5      0.000      0.000
REMARK  Name = 
REMARK  7 active torsions:
REMARK  status: ('A' for Active; 'I' for Inactive)
REMARK    1  A    between atoms: C_1  and  C_2
REMARK    2  A    between atoms: C_8  and  N_9
REMARK    3  A    between atoms: C_10  and  S_11
REMARK    4  A    between atoms: N_12  and  C_13
REMARK    5  A    between atoms: C_13  and  C_14
REMARK    6  A    between atoms: C_14  and  C_15
REMARK    7  A    between atoms: C_15  and  N_16
REMARK                            x       y       z     vdW  Elec       q    Type
REMARK                         _______ _______ _______ _____ _____    ______ ____
ROOT
ATOM      1  N   UNL     1       5.421   6.471  17.220  0.00  0.00    +0.000 NA
ATOM      2  C   UNL     1       6.695   6.220  17.320  0.00  0.00    +0.000 C 
ATOM      3  N   UNL     1       7.669   7.151  17.052  0.00  0.00    +0.000 N 
ATOM      4  H   UNL     1       8.587   6.797  17.304  0.00  0.00    +0.000 HD
ENDROOT
BRANCH   1  12
ATOM      5  C   UNL     1       2.862   7.472  18.257  0.00  0.00    +0.000 C 
ATOM      6  C   UNL     1       3.144   6.018  18.002  0.00  0.00    +0.000 A 
ATOM      7  C   UNL     1       2.100   5.102  18.241  0.00  0.00    +0.000 A 
ATOM      8  C   UNL     1       2.271   3.746  17.987  0.00  0.00    +0.000 A 
ATOM      9 CL   UNL     1       1.017   2.628  18.352  0.00  0.00    +0.000 Cl
ATOM     10  C   UNL     1       3.448   3.294  17.408  0.00  0.00    +0.000 A 
ATOM     11  C   UNL     1       4.450   4.213  17.085  0.00  0.00    +0.000 A 
ATOM     12  C   UNL     1       4.367   5.565  17.456  0.00  0.00    +0.000 A 
ENDBRANCH   1  12
BRANCH   2  13
ATOM     13  S   UNL     1       7.482   4.732  17.824  0.00  0.00    +0.000 S 
ATOM     14  H   UNL     1       7.030   4.679  19.079  0.00  0.00    +0.000 HD
ENDBRANCH   2  13
BRANCH   3  15
ATOM     15  C   UNL     1       7.482   8.560  17.349  0.00  0.00    +0.000 C 
BRANCH  15  16
ATOM     16  C   UNL     1       8.546   9.023  18.345  0.00  0.00    +0.000 C 
BRANCH  16  17
ATOM     17  C   UNL     1       8.790  10.524  18.211  0.00  0.00    +0.000 C 
BRANCH  17  18
ATOM     18  N   UNL     1      10.017  10.968  18.857  0.00  0.00    +0.000 N 
ATOM     19  C   UNL     1      11.097  11.591  18.132  0.00  0.00    +0.000 C 
ATOM     20  C   UNL     1      12.156  11.791  19.197  0.00  0.00    +0.000 C 
ATOM     21  C   UNL     1      11.341  12.079  20.451  0.00  0.00    +0.000 C 
ATOM     22  C   UNL     1      10.054  11.327  20.205  0.00  0.00    +0.000 C 
ATOM     23  O   UNL     1       9.184  11.142  21.031  0.00  0.00    +0.000 OA
ENDBRANCH  17  18
ENDBRANCH  16  17
ENDBRANCH  15  16
ENDBRANCH   3  15
TORSDOF 6
ENDMDL
MODEL 2
REMARK VINA RESULT:      -7.4      0.970      1.299
REMARK  Name = 
REMARK  7 active torsions:
REMARK  status: ('A' for Active; 'I' for Inactive)
REMARK    1  A    between atoms: C_1  and  C_2
REMARK    2  A    between atoms: C_8  and  N_9
REMARK    3  A    between atoms: C_10  and  S_11
REMARK    4  A    between atoms: N_12  and  C_13
REMARK    5  A    between atoms: C_13  and  C_14
REMARK    6  A    between atoms: C_14  and  C_15
REMARK    7  A    between atoms: C_15  and  N_16
REMARK                            x       y       z     vdW  Elec       q    Type
REMARK                         _______ _______ _______ _____ _____    ______ ____
ROOT
ATOM      1  N   UNL     1       5.340   6.529  17.343  0.00  0.00    +0.000 NA
ATOM      2  C   UNL     1       6.621   6.298  17.409  0.00  0.00    +0.000 C 
ATOM      3  N   UNL     1       7.573   7.259  17.167  0.00  0.00    +0.000 N 
ATOM      4  H   UNL     1       8.501   6.912  17.386  0.00  0.00    +0.000 HD
ENDROOT
BRANCH   1  12
ATOM      5  C   UNL     1       2.721   7.460  18.292  0.00  0.00    +0.000 C 
ATOM      6  C   UNL     1       3.056   6.013  18.061  0.00  0.00    +0.000 A 
ATOM      7  C   UNL     1       2.033   5.067  18.276  0.00  0.00    +0.000 A 
ATOM      8  C   UNL     1       2.253   3.715  18.040  0.00  0.00    +0.000 A 
ATOM      9 CL   UNL     1       1.024   2.563  18.378  0.00  0.00    +0.000 Cl
ATOM     10  C   UNL     1       3.461   3.295  17.503  0.00  0.00    +0.000 A 
ATOM     11  C   UNL     1       4.443   4.241  17.202  0.00  0.00    +0.000 A 
ATOM     12  C   UNL     1       4.308   5.593  17.556  0.00  0.00    +0.000 A 
ENDBRANCH   1  12
BRANCH   2  13
ATOM     13  S   UNL     1       7.444   4.804  17.829  0.00  0.00    +0.000 S 
ATOM     14  H   UNL     1       6.567   3.938  17.316  0.00  0.00    +0.000 HD
ENDBRANCH   2  13
BRANCH   3  15
ATOM     15  C   UNL     1       7.365   8.649  17.533  0.00  0.00    +0.000 C 
BRANCH  15  16
ATOM     16  C   UNL     1       8.593   9.175  18.278  0.00  0.00    +0.000 C 
BRANCH  16  17
ATOM     17  C   UNL     1       8.764  10.673  18.041  0.00  0.00    +0.000 C 
BRANCH  17  18
ATOM     18  N   UNL     1       9.619  11.318  19.027  0.00  0.00    +0.000 N 
ATOM     19  C   UNL     1       9.413  11.178  20.447  0.00  0.00    +0.000 C 
ATOM     20  C   UNL     1      10.477  12.078  21.040  0.00  0.00    +0.000 C 
ATOM     21  C   UNL     1      11.636  11.939  20.062  0.00  0.00    +0.000 C 
ATOM     22  C   UNL     1      10.946  11.648  18.750  0.00  0.00    +0.000 C 
ATOM     23  O   UNL     1      11.488  11.637  17.664  0.00  0.00    +0.000 OA
ENDBRANCH  17  18
ENDBRANCH  16  17
ENDBRANCH  15  16
ENDBRANCH   3  15
TORSDOF 6
ENDMDL
MODEL 3
REMARK VINA RESULT:      -7.4      1.149      1.289
REMARK  Name = 
REMARK  7 active torsions:
REMARK  status: ('A' for Active; 'I' for Inactive)
REMARK    1  A    between atoms: C_1  and  C_2
REMARK    2  A    between atoms: C_8  and  N_9
REMARK    3  A    between atoms: C_10  and  S_11
REMARK    4  A    between atoms: N_12  and  C_13
REMARK    5  A    between atoms: C_13  and  C_14
REMARK    6  A    between atoms: C_14  and  C_15
REMARK    7  A    between atoms: C_15  and  N_16
REMARK                            x       y       z     vdW  Elec       q    Type
REMARK                         _______ _______ _______ _____ _____    ______ ____
ROOT
ATOM      1  N   UNL     1       5.553   6.292  17.898  0.00  0.00    +0.000 NA
ATOM      2  C   UNL     1       6.461   6.281  16.964  0.00  0.00    +0.000 C 
ATOM      3  N   UNL     1       7.474   7.207  16.888  0.00  0.00    +0.000 N 
ATOM      4  H   UNL     1       8.140   6.955  16.164  0.00  0.00    +0.000 HD
ENDROOT
BRANCH   1  12
ATOM      5  C   UNL     1       2.802   7.319  17.845  0.00  0.00    +0.000 C 
ATOM      6  C   UNL     1       3.145   5.870  18.057  0.00  0.00    +0.000 A 
ATOM      7  C   UNL     1       2.076   4.962  18.195  0.00  0.00    +0.000 A 
ATOM      8  C   UNL     1       2.313   3.601  18.351  0.00  0.00    +0.000 A 
ATOM      9 CL   UNL     1       1.006   2.514  18.594  0.00  0.00    +0.000 Cl
ATOM     10  C   UNL     1       3.610   3.114  18.279  0.00  0.00    +0.000 A 
ATOM     11  C   UNL     1       4.664   4.001  18.050  0.00  0.00    +0.000 A 
ATOM     12  C   UNL     1       4.475   5.392  18.029  0.00  0.00    +0.000 A 
ENDBRANCH   1  12
BRANCH   2  13
ATOM     13  S   UNL     1       6.660   5.140  15.643  0.00  0.00    +0.000 S 
ATOM     14  H   UNL     1       6.803   6.011  14.642  0.00  0.00    +0.000 HD
ENDBRANCH   2  13
BRANCH   3  15
ATOM     15  C   UNL     1       8.085   7.770  18.078  0.00  0.00    +0.000 C 
BRANCH  15  16
ATOM     16  C   UNL     1       8.204   9.288  17.928  0.00  0.00    +0.000 C 
BRANCH  16  17
ATOM     17  C   UNL     1       9.076   9.870  19.037  0.00  0.00    +0.000 C 
BRANCH  17  18
ATOM     18  N   UNL     1       9.626  11.178  18.710  0.00  0.00    +0.000 N 
ATOM     19  C   UNL     1       8.958  12.105  17.829  0.00  0.00    +0.000 C 
ATOM     20  C   UNL     1       9.936  13.258  17.739  0.00  0.00    +0.000 C 
ATOM     21  C   UNL     1      10.566  13.293  19.125  0.00  0.00    +0.000 C 
ATOM     22  C   UNL     1      10.492  11.851  19.572  0.00  0.00    +0.000 C 
ATOM     23  O   UNL     1      11.041  11.396  20.554  0.00  0.00    +0.000 OA
ENDBRANCH  17  18
ENDBRANCH  16  17
ENDBRANCH  15  16
ENDBRANCH   3  15
TORSDOF 6
ENDMDL
MODEL 4
REMARK VINA RESULT:      -7.3      1.184      1.935
REMARK  Name = 
REMARK  7 active torsions:
REMARK  status: ('A' for Active; 'I' for Inactive)
REMARK    1  A    between atoms: C_1  and  C_2
REMARK    2  A    between atoms: C_8  and  N_9
REMARK    3  A    between atoms: C_10  and  S_11
REMARK    4  A    between atoms: N_12  and  C_13
REMARK    5  A    between atoms: C_13  and  C_14
REMARK    6  A    between atoms: C_14  and  C_15
REMARK    7  A    between atoms: C_15  and  N_16
REMARK                            x       y       z     vdW  Elec       q    Type
REMARK                         _______ _______ _______ _____ _____    ______ ____
ROOT
ATOM      1  N   UNL     1       5.476   6.563  17.520  0.00  0.00    +0.000 NA
ATOM      2  C   UNL     1       6.755   6.347  17.643  0.00  0.00    +0.000 C 
ATOM      3  N   UNL     1       7.712   7.276  17.310  0.00  0.00    +0.000 N 
ATOM      4  H   UNL     1       8.635   6.960  17.591  0.00  0.00    +0.000 HD
ENDROOT
BRANCH   1  12
ATOM      5  C   UNL     1       4.929   4.341  15.679  0.00  0.00    +0.000 C 
ATOM      6  C   UNL     1       4.127   4.609  16.922  0.00  0.00    +0.000 A 
ATOM      7  C   UNL     1       3.085   3.710  17.228  0.00  0.00    +0.000 A 
ATOM      8  C   UNL     1       2.327   3.866  18.383  0.00  0.00    +0.000 A 
ATOM      9 CL   UNL     1       1.011   2.811  18.708  0.00  0.00    +0.000 Cl
ATOM     10  C   UNL     1       2.653   4.861  19.294  0.00  0.00    +0.000 A 
ATOM     11  C   UNL     1       3.744   5.695  19.038  0.00  0.00    +0.000 A 
ATOM     12  C   UNL     1       4.440   5.656  17.819  0.00  0.00    +0.000 A 
ENDBRANCH   1  12
BRANCH   2  13
ATOM     13  S   UNL     1       7.570   4.917  18.258  0.00  0.00    +0.000 S 
ATOM     14  H   UNL     1       7.785   4.291  17.098  0.00  0.00    +0.000 HD
ENDBRANCH   2  13
BRANCH   3  15
ATOM     15  C   UNL     1       7.494   8.698  17.502  0.00  0.00    +0.000 C 
BRANCH  15  16
ATOM     16  C   UNL     1       8.542   9.255  18.467  0.00  0.00    +0.000 C 
BRANCH  16  17
ATOM     17  C   UNL     1       9.023  10.628  18.005  0.00  0.00    +0.000 C 
BRANCH  17  18
ATOM     18  N   UNL     1       9.801  11.334  19.012  0.00  0.00    +0.000 N 
ATOM     19  C   UNL     1       9.559  11.190  20.426  0.00  0.00    +0.000 C 
ATOM     20  C   UNL     1      10.542  12.162  21.044  0.00  0.00    +0.000 C 
ATOM     21  C   UNL     1      11.739  12.095  20.105  0.00  0.00    +0.000 C 
ATOM     22  C   UNL     1      11.112  11.750  18.775  0.00  0.00    +0.000 C 
ATOM     23  O   UNL     1      11.688  11.768  17.706  0.00  0.00    +0.000 OA
ENDBRANCH  17  18
ENDBRANCH  16  17
ENDBRANCH  15  16
ENDBRANCH   3  15
TORSDOF 6
ENDMDL
MODEL 5
REMARK VINA RESULT:      -7.1      1.308      1.502
REMARK  Name = 
REMARK  7 active torsions:
REMARK  status: ('A' for Active; 'I' for Inactive)
REMARK    1  A    between atoms: C_1  and  C_2
REMARK    2  A    between atoms: C_8  and  N_9
REMARK    3  A    between atoms: C_10  and  S_11
REMARK    4  A    between atoms: N_12  and  C_13
REMARK    5  A    between atoms: C_13  and  C_14
REMARK    6  A    between atoms: C_14  and  C_15
REMARK    7  A    between atoms: C_15  and  N_16
REMARK                            x       y       z     vdW  Elec       q    Type
REMARK                         _______ _______ _______ _____ _____    ______ ____
ROOT
ATOM      1  N   UNL     1       5.520   6.342  17.853  0.00  0.00    +0.000 NA
ATOM      2  C   UNL     1       6.462   6.315  16.954  0.00  0.00    +0.000 C 
ATOM      3  N   UNL     1       7.451   7.264  16.870  0.00  0.00    +0.000 N 
ATOM      4  H   UNL     1       8.151   6.999  16.184  0.00  0.00    +0.000 HD
ENDROOT
BRANCH   1  12
ATOM      5  C   UNL     1       2.749   7.316  17.883  0.00  0.00    +0.000 C 
ATOM      6  C   UNL     1       3.125   5.870  18.055  0.00  0.00    +0.000 A 
ATOM      7  C   UNL     1       2.076   4.939  18.196  0.00  0.00    +0.000 A 
ATOM      8  C   UNL     1       2.343   3.580  18.316  0.00  0.00    +0.000 A 
ATOM      9 CL   UNL     1       1.062   2.461  18.564  0.00  0.00    +0.000 Cl
ATOM     10  C   UNL     1       3.647   3.120  18.206  0.00  0.00    +0.000 A 
ATOM     11  C   UNL     1       4.679   4.032  17.974  0.00  0.00    +0.000 A 
ATOM     12  C   UNL     1       4.463   5.419  17.988  0.00  0.00    +0.000 A 
ENDBRANCH   1  12
BRANCH   2  13
ATOM     13  S   UNL     1       6.740   5.120  15.696  0.00  0.00    +0.000 S 
ATOM     14  H   UNL     1       8.016   4.835  15.966  0.00  0.00    +0.000 HD
ENDBRANCH   2  13
BRANCH   3  15
ATOM     15  C   UNL     1       8.003   7.899  18.054  0.00  0.00    +0.000 C 
BRANCH  15  16
ATOM     16  C   UNL     1       8.377   9.348  17.736  0.00  0.00    +0.000 C 
BRANCH  16  17
ATOM     17  C   UNL     1       8.922  10.047  18.979  0.00  0.00    +0.000 C 
BRANCH  17  18
ATOM     18  N   UNL     1       9.711  11.231  18.673  0.00  0.00    +0.000 N 
ATOM     19  C   UNL     1      11.152  11.243  18.731  0.00  0.00    +0.000 C 
ATOM     20  C   UNL     1      11.497  12.684  18.419  0.00  0.00    +0.000 C 
ATOM     21  C   UNL     1      10.417  13.096  17.427  0.00  0.00    +0.000 C 
ATOM     22  C   UNL     1       9.242  12.231  17.820  0.00  0.00    +0.000 C 
ATOM     23  O   UNL     1       8.111  12.358  17.400  0.00  0.00    +0.000 OA
ENDBRANCH  17  18
ENDBRANCH  16  17
ENDBRANCH  15  16
ENDBRANCH   3  15
TORSDOF 6
ENDMDL
MODEL 6
REMARK VINA RESULT:      -7.0      1.394      1.671
REMARK  Name = 
REMARK  7 active torsions:
REMARK  status: ('A' for Active; 'I' for Inactive)
REMARK    1  A    between atoms: C_1  and  C_2
REMARK    2  A    between atoms: C_8  and  N_9
REMARK    3  A    between atoms: C_10  and  S_11
REMARK    4  A    between atoms: N_12  and  C_13
REMARK    5  A    between atoms: C_13  and  C_14
REMARK    6  A    between atoms: C_14  and  C_15
REMARK    7  A    between atoms: C_15  and  N_16
REMARK                            x       y       z     vdW  Elec       q    Type
REMARK                         _______ _______ _______ _____ _____    ______ ____
ROOT
ATOM      1  N   UNL     1       5.484   6.328  17.949  0.00  0.00    +0.000 NA
ATOM      2  C   UNL     1       6.304   6.440  16.943  0.00  0.00    +0.000 C 
ATOM      3  N   UNL     1       7.312   7.373  16.893  0.00  0.00    +0.000 N 
ATOM      4  H   UNL     1       7.909   7.218  16.087  0.00  0.00    +0.000 HD
ENDROOT
BRANCH   1  12
ATOM      5  C   UNL     1       2.725   7.332  18.020  0.00  0.00    +0.000 C 
ATOM      6  C   UNL     1       3.084   5.879  18.149  0.00  0.00    +0.000 A 
ATOM      7  C   UNL     1       2.026   4.955  18.268  0.00  0.00    +0.000 A 
ATOM      8  C   UNL     1       2.277   3.590  18.347  0.00  0.00    +0.000 A 
ATOM      9 CL   UNL     1       0.985   2.480  18.569  0.00  0.00    +0.000 Cl
ATOM     10  C   UNL     1       3.575   3.118  18.218  0.00  0.00    +0.000 A 
ATOM     11  C   UNL     1       4.616   4.025  18.007  0.00  0.00    +0.000 A 
ATOM     12  C   UNL     1       4.417   5.414  18.062  0.00  0.00    +0.000 A 
ENDBRANCH   1  12
BRANCH   2  13
ATOM     13  S   UNL     1       6.376   5.476  15.476  0.00  0.00    +0.000 S 
ATOM     14  H   UNL     1       5.066   5.347  15.254  0.00  0.00    +0.000 HD
ENDBRANCH   2  13
BRANCH   3  15
ATOM     15  C   UNL     1       8.031   7.784  18.085  0.00  0.00    +0.000 C 
BRANCH  15  16
ATOM     16  C   UNL     1       8.293   9.291  18.035  0.00  0.00    +0.000 C 
BRANCH  16  17
ATOM     17  C   UNL     1       9.235   9.710  19.162  0.00  0.00    +0.000 C 
BRANCH  17  18
ATOM     18  N   UNL     1       9.370  11.153  19.292  0.00  0.00    +0.000 N 
ATOM     19  C   UNL     1       9.105  11.852  20.525  0.00  0.00    +0.000 C 
ATOM     20  C   UNL     1       9.300  13.305  20.145  0.00  0.00    +0.000 C 
ATOM     21  C   UNL     1      10.417  13.251  19.113  0.00  0.00    +0.000 C 
ATOM     22  C   UNL     1      10.237  11.889  18.483  0.00  0.00    +0.000 C 
ATOM     23  O   UNL     1      10.811  11.499  17.487  0.00  0.00    +0.000 OA
ENDBRANCH  17  18
ENDBRANCH  16  17
ENDBRANCH  15  16
ENDBRANCH   3  15
TORSDOF 6
ENDMDL
MODEL 7
REMARK VINA RESULT:      -6.9      1.175      1.803
REMARK  Name = 
REMARK  7 active torsions:
REMARK  status: ('A' for Active; 'I' for Inactive)
REMARK    1  A    between atoms: C_1  and  C_2
REMARK    2  A    between atoms: C_8  and  N_9
REMARK    3  A    between atoms: C_10  and  S_11
REMARK    4  A    between atoms: N_12  and  C_13
REMARK    5  A    between atoms: C_13  and  C_14
REMARK    6  A    between atoms: C_14  and  C_15
REMARK    7  A    between atoms: C_15  and  N_16
REMARK                            x       y       z     vdW  Elec       q    Type
REMARK                         _______ _______ _______ _____ _____    ______ ____
ROOT
ATOM      1  N   UNL     1       5.714   6.662  17.546  0.00  0.00    +0.000 NA
ATOM      2  C   UNL     1       6.953   6.492  17.913  0.00  0.00    +0.000 C 
ATOM      3  N   UNL     1       7.947   7.404  17.651  0.00  0.00    +0.000 N 
ATOM      4  H   UNL     1       8.809   7.145  18.122  0.00  0.00    +0.000 HD
ENDROOT
BRANCH   1  12
ATOM      5  C   UNL     1       5.371   4.371  15.740  0.00  0.00    +0.000 C 
ATOM      6  C   UNL     1       4.434   4.685  16.873  0.00  0.00    +0.000 A 
ATOM      7  C   UNL     1       3.360   3.799  17.092  0.00  0.00    +0.000 A 
ATOM      8  C   UNL     1       2.477   3.998  18.147  0.00  0.00    +0.000 A 
ATOM      9 CL   UNL     1       1.128   2.956  18.360  0.00  0.00    +0.000 Cl
ATOM     10  C   UNL     1       2.701   5.026  19.051  0.00  0.00    +0.000 A 
ATOM     11  C   UNL     1       3.817   5.850  18.889  0.00  0.00    +0.000 A 
ATOM     12  C   UNL     1       4.648   5.766  17.760  0.00  0.00    +0.000 A 
ENDBRANCH   1  12
BRANCH   2  13
ATOM     13  S   UNL     1       7.655   5.159  18.817  0.00  0.00    +0.000 S 
ATOM     14  H   UNL     1       8.303   4.556  17.817  0.00  0.00    +0.000 HD
ENDBRANCH   2  13
BRANCH   3  15
ATOM     15  C   UNL     1       7.691   8.833  17.643  0.00  0.00    +0.000 C 
BRANCH  15  16
ATOM     16  C   UNL     1       8.712   9.546  18.530  0.00  0.00    +0.000 C 
BRANCH  16  17
ATOM     17  C   UNL     1       8.854  11.009  18.117  0.00  0.00    +0.000 C 
BRANCH  17  18
ATOM     18  N   UNL     1       9.809  11.747  18.931  0.00  0.00    +0.000 N 
ATOM     19  C   UNL     1      11.211  11.411  18.984  0.00  0.00    +0.000 C 
ATOM     20  C   UNL     1      11.760  12.387  20.003  0.00  0.00    +0.000 C 
ATOM     21  C   UNL     1      10.921  13.637  19.779  0.00  0.00    +0.000 C 
ATOM     22  C   UNL     1       9.608  13.084  19.276  0.00  0.00    +0.000 C 
ATOM     23  O   UNL     1       8.588  13.726  19.135  0.00  0.00    +0.000 OA
ENDBRANCH  17  18
ENDBRANCH  16  17
ENDBRANCH  15  16
ENDBRANCH   3  15
TORSDOF 6
ENDMDL
MODEL 8
REMARK VINA RESULT:      -6.9      1.135      1.827
REMARK  Name = 
REMARK  7 active torsions:
REMARK  status: ('A' for Active; 'I' for Inactive)
REMARK    1  A    between atoms: C_1  and  C_2
REMARK    2  A    between atoms: C_8  and  N_9
REMARK    3  A    between atoms: C_10  and  S_11
REMARK    4  A    between atoms: N_12  and  C_13
REMARK    5  A    between atoms: C_13  and  C_14
REMARK    6  A    between atoms: C_14  and  C_15
REMARK    7  A    between atoms: C_15  and  N_16
REMARK                            x       y       z     vdW  Elec       q    Type
REMARK                         _______ _______ _______ _____ _____    ______ ____
ROOT
ATOM      1  N   UNL     1       6.072   6.647  17.538  0.00  0.00    +0.000 NA
ATOM      2  C   UNL     1       7.211   6.699  18.168  0.00  0.00    +0.000 C 
ATOM      3  N   UNL     1       8.137   7.695  17.970  0.00  0.00    +0.000 N 
ATOM      4  H   UNL     1       8.897   7.621  18.639  0.00  0.00    +0.000 HD
ENDROOT
BRANCH   1  12
ATOM      5  C   UNL     1       6.094   4.343  15.717  0.00  0.00    +0.000 C 
ATOM      6  C   UNL     1       5.047   4.557  16.774  0.00  0.00    +0.000 A 
ATOM      7  C   UNL     1       4.052   3.569  16.913  0.00  0.00    +0.000 A 
ATOM      8  C   UNL     1       3.076   3.675  17.897  0.00  0.00    +0.000 A 
ATOM      9 CL   UNL     1       1.824   2.504  18.009  0.00  0.00    +0.000 Cl
ATOM     10  C   UNL     1       3.129   4.716  18.813  0.00  0.00    +0.000 A 
ATOM     11  C   UNL     1       4.167   5.646  18.734  0.00  0.00    +0.000 A 
ATOM     12  C   UNL     1       5.086   5.649  17.672  0.00  0.00    +0.000 A 
ENDBRANCH   1  12
BRANCH   2  13
ATOM     13  S   UNL     1       7.836   5.605  19.393  0.00  0.00    +0.000 S 
ATOM     14  H   UNL     1       7.329   4.463  18.923  0.00  0.00    +0.000 HD
ENDBRANCH   2  13
BRANCH   3  15
ATOM     15  C   UNL     1       7.738   9.062  17.684  0.00  0.00    +0.000 C 
BRANCH  15  16
ATOM     16  C   UNL     1       8.903  10.010  17.975  0.00  0.00    +0.000 C 
BRANCH  16  17
ATOM     17  C   UNL     1       9.169  10.089  19.476  0.00  0.00    +0.000 C 
BRANCH  17  18
ATOM     18  N   UNL     1      10.098  11.149  19.840  0.00  0.00    +0.000 N 
ATOM     19  C   UNL     1      11.162  11.586  18.970  0.00  0.00    +0.000 C 
ATOM     20  C   UNL     1      11.885  12.622  19.804  0.00  0.00    +0.000 C 
ATOM     21  C   UNL     1      10.765  13.269  20.608  0.00  0.00    +0.000 C 
ATOM     22  C   UNL     1       9.752  12.157  20.742  0.00  0.00    +0.000 C 
ATOM     23  O   UNL     1       8.775  12.185  21.462  0.00  0.00    +0.000 OA
ENDBRANCH  17  18
ENDBRANCH  16  17
ENDBRANCH  15  16
ENDBRANCH   3  15
TORSDOF 6
ENDMDL
MODEL 9
REMARK VINA RESULT:      -6.9      5.311      8.100
REMARK  Name = 
REMARK  7 active torsions:
REMARK  status: ('A' for Active; 'I' for Inactive)
REMARK    1  A    between atoms: C_1  and  C_2
REMARK    2  A    between atoms: C_8  and  N_9
REMARK    3  A    between atoms: C_10  and  S_11
REMARK    4  A    between atoms: N_12  and  C_13
REMARK    5  A    between atoms: C_13  and  C_14
REMARK    6  A    between atoms: C_14  and  C_15
REMARK    7  A    between atoms: C_15  and  N_16
REMARK                            x       y       z     vdW  Elec       q    Type
REMARK                         _______ _______ _______ _____ _____    ______ ____
ROOT
ATOM      1  N   UNL     1       3.912   5.265  18.341  0.00  0.00    +0.000 NA
ATOM      2  C   UNL     1       3.117   6.266  18.594  0.00  0.00    +0.000 C 
ATOM      3  N   UNL     1       2.213   6.266  19.628  0.00  0.00    +0.000 N 
ATOM      4  H   UNL     1       1.778   7.178  19.728  0.00  0.00    +0.000 HD
ENDROOT
BRANCH   1  12
ATOM      5  C   UNL     1       6.758   5.724  18.902  0.00  0.00    +0.000 C 
ATOM      6  C   UNL     1       6.216   5.451  17.528  0.00  0.00    +0.000 A 
ATOM      7  C   UNL     1       7.141   5.372  16.467  0.00  0.00    +0.000 A 
ATOM      8  C   UNL     1       6.720   5.079  15.175  0.00  0.00    +0.000 A 
ATOM      9 CL   UNL     1       7.846   5.061  13.877  0.00  0.00    +0.000 Cl
ATOM     10  C   UNL     1       5.389   4.770  14.936  0.00  0.00    +0.000 A 
ATOM     11  C   UNL     1       4.486   4.756  16.001  0.00  0.00    +0.000 A 
ATOM     12  C   UNL     1       4.848   5.184  17.289  0.00  0.00    +0.000 A 
ENDBRANCH   1  12
BRANCH   2  13
ATOM     13  S   UNL     1       3.003   7.811  17.765  0.00  0.00    +0.000 S 
ATOM     14  H   UNL     1       4.188   8.317  18.114  0.00  0.00    +0.000 HD
ENDBRANCH   2  13
BRANCH   3  15
ATOM     15  C   UNL     1       2.498   5.610  20.892  0.00  0.00    +0.000 C 
BRANCH  15  16
ATOM     16  C   UNL     1       1.558   4.417  21.076  0.00  0.00    +0.000 C 
BRANCH  16  17
ATOM     17  C   UNL     1       2.356   3.122  21.216  0.00  0.00    +0.000 C 
BRANCH  17  18
ATOM     18  N   UNL     1       2.612   2.464  19.943  0.00  0.00    +0.000 N 
ATOM     19  C   UNL     1       1.789   2.675  18.778  0.00  0.00    +0.000 C 
ATOM     20  C   UNL     1       2.391   1.732  17.757  0.00  0.00    +0.000 C 
ATOM     21  C   UNL     1       3.876   1.755  18.092  0.00  0.00    +0.000 C 
ATOM     22  C   UNL     1       3.889   2.037  19.576  0.00  0.00    +0.000 C 
ATOM     23  O   UNL     1       4.867   1.968  20.292  0.00  0.00    +0.000 OA
ENDBRANCH  17  18
ENDBRANCH  16  17
ENDBRANCH  15  16
ENDBRANCH   3  15
TORSDOF 6
ENDMDL
