MODEL 1
REMARK VINA RESULT:      -7.8      0.000      0.000
REMARK  Name = 
REMARK  11 active torsions:
REMARK  status: ('A' for Active; 'I' for Inactive)
REMARK    1  A    between atoms: C_2  and  C_3
REMARK    2  A    between atoms: N_6  and  C_7
REMARK    3  A    between atoms: C_9  and  O_10
REMARK    4  A    between atoms: O_10  and  C_11
REMARK    5  A    between atoms: C_12  and  O_13
REMARK    6  A    between atoms: O_13  and  C_14
REMARK    7  A    between atoms: C_15  and  O_16
REMARK    8  A    between atoms: O_16  and  C_17
REMARK    9  A    between atoms: C_19  and  C_20
REMARK   10  A    between atoms: C_23  and  O_24
REMARK   11  A    between atoms: O_24  and  C_25
REMARK                            x       y       z     vdW  Elec       q    Type
REMARK                         _______ _______ _______ _____ _____    ______ ____
ROOT
ATOM      1  C   UNL     1       1.329   3.845  19.560  0.00  0.00    +0.000 C 
ATOM      2  C   UNL     1       2.093   3.136  18.427  0.00  0.00    +0.000 C 
ATOM      3  O   UNL     1       1.901   2.151  17.752  0.00  0.00    +0.000 OA
ATOM      4  N   UNL     1       3.079   4.072  18.455  0.00  0.00    +0.000 N 
ATOM      5  C   UNL     1       2.560   4.814  19.605  0.00  0.00    +0.000 C 
ENDROOT
BRANCH   5   6
ATOM      6  C   UNL     1       2.234   6.356  19.407  0.00  0.00    +0.000 A 
ATOM      7  C   UNL     1       2.382   7.016  18.170  0.00  0.00    +0.000 A 
ATOM      8  C   UNL     1       2.059   8.368  18.008  0.00  0.00    +0.000 A 
ATOM      9  C   UNL     1       1.575   9.119  19.079  0.00  0.00    +0.000 A 
ATOM     10  C   UNL     1       1.433   8.489  20.313  0.00  0.00    +0.000 A 
ATOM     11  F   UNL     1       0.985   9.144  21.394  0.00  0.00    +0.000 F 
ATOM     12  C   UNL     1       1.752   7.138  20.471  0.00  0.00    +0.000 A 
BRANCH   9  13
ATOM     13  O   UNL     1       1.286  10.418  18.771  0.00  0.00    +0.000 OA
ATOM     14  C   UNL     1      -0.089  10.760  18.652  0.00  0.00    +0.000 C 
ENDBRANCH   9  13
ENDBRANCH   5   6
BRANCH   4  15
ATOM     15  C   UNL     1       4.232   4.236  17.688  0.00  0.00    +0.000 A 
ATOM     16  C   UNL     1       5.462   4.358  18.327  0.00  0.00    +0.000 A 
ATOM     17  C   UNL     1       6.649   4.466  17.602  0.00  0.00    +0.000 A 
ATOM     18  C   UNL     1       6.609   4.526  16.195  0.00  0.00    +0.000 A 
ATOM     19  C   UNL     1       5.365   4.438  15.532  0.00  0.00    +0.000 A 
ATOM     20  C   UNL     1       4.192   4.260  16.290  0.00  0.00    +0.000 A 
BRANCH  17  21
ATOM     21  O   UNL     1       7.880   4.520  18.217  0.00  0.00    +0.000 OA
ATOM     22  C   UNL     1       8.043   5.571  19.170  0.00  0.00    +0.000 C 
ENDBRANCH  17  21
BRANCH  18  23
ATOM     23  O   UNL     1       7.826   4.741  15.589  0.00  0.00    +0.000 OA
ATOM     24  C   UNL     1       7.838   5.514  14.397  0.00  0.00    +0.000 C 
ENDBRANCH  18  23
BRANCH  19  25
ATOM     25  O   UNL     1       5.363   4.566  14.167  0.00  0.00    +0.000 OA
ATOM     26  C   UNL     1       5.271   3.396  13.367  0.00  0.00    +0.000 C 
ENDBRANCH  19  25
ENDBRANCH   4  15
BRANCH   1  28
ATOM     27  C   UNL     1       2.056   2.928  21.703  0.00  0.00    +0.000 C 
ATOM     28  C   UNL     1       1.107   3.001  20.763  0.00  0.00    +0.000 C 
ENDBRANCH   1  28
TORSDOF 7
ENDMDL
MODEL 2
REMARK VINA RESULT:      -7.6      0.942      1.303
REMARK  Name = 
REMARK  11 active torsions:
REMARK  status: ('A' for Active; 'I' for Inactive)
REMARK    1  A    between atoms: C_2  and  C_3
REMARK    2  A    between atoms: N_6  and  C_7
REMARK    3  A    between atoms: C_9  and  O_10
REMARK    4  A    between atoms: O_10  and  C_11
REMARK    5  A    between atoms: C_12  and  O_13
REMARK    6  A    between atoms: O_13  and  C_14
REMARK    7  A    between atoms: C_15  and  O_16
REMARK    8  A    between atoms: O_16  and  C_17
REMARK    9  A    between atoms: C_19  and  C_20
REMARK   10  A    between atoms: C_23  and  O_24
REMARK   11  A    between atoms: O_24  and  C_25
REMARK                            x       y       z     vdW  Elec       q    Type
REMARK                         _______ _______ _______ _____ _____    ______ ____
ROOT
ATOM      1  C   UNL     1       1.277   3.799  19.988  0.00  0.00    +0.000 C 
ATOM      2  C   UNL     1       2.031   3.090  18.848  0.00  0.00    +0.000 C 
ATOM      3  O   UNL     1       1.848   2.090  18.194  0.00  0.00    +0.000 OA
ATOM      4  N   UNL     1       2.993   4.052  18.836  0.00  0.00    +0.000 N 
ATOM      5  C   UNL     1       2.483   4.800  19.986  0.00  0.00    +0.000 C 
ENDROOT
BRANCH   5   6
ATOM      6  C   UNL     1       2.112   6.330  19.771  0.00  0.00    +0.000 A 
ATOM      7  C   UNL     1       1.526   7.123  20.778  0.00  0.00    +0.000 A 
ATOM      8  C   UNL     1       1.235   8.478  20.580  0.00  0.00    +0.000 A 
ATOM      9  C   UNL     1       1.517   9.096  19.362  0.00  0.00    +0.000 A 
ATOM     10  C   UNL     1       2.085   8.327  18.349  0.00  0.00    +0.000 A 
ATOM     11  F   UNL     1       2.376   8.844  17.148  0.00  0.00    +0.000 F 
ATOM     12  C   UNL     1       2.379   6.976  18.551  0.00  0.00    +0.000 A 
BRANCH   9  13
ATOM     13  O   UNL     1       1.197  10.424  19.318  0.00  0.00    +0.000 OA
ATOM     14  C   UNL     1      -0.048  10.765  18.721  0.00  0.00    +0.000 C 
ENDBRANCH   9  13
ENDBRANCH   5   6
BRANCH   4  15
ATOM     15  C   UNL     1       4.122   4.232  18.037  0.00  0.00    +0.000 A 
ATOM     16  C   UNL     1       5.367   4.375  18.642  0.00  0.00    +0.000 A 
ATOM     17  C   UNL     1       6.532   4.499  17.885  0.00  0.00    +0.000 A 
ATOM     18  C   UNL     1       6.452   4.556  16.480  0.00  0.00    +0.000 A 
ATOM     19  C   UNL     1       5.193   4.448  15.851  0.00  0.00    +0.000 A 
ATOM     20  C   UNL     1       4.043   4.253  16.641  0.00  0.00    +0.000 A 
BRANCH  17  21
ATOM     21  O   UNL     1       7.778   4.574  18.467  0.00  0.00    +0.000 OA
ATOM     22  C   UNL     1       8.018   5.743  19.252  0.00  0.00    +0.000 C 
ENDBRANCH  17  21
BRANCH  18  23
ATOM     23  O   UNL     1       7.649   4.788  15.840  0.00  0.00    +0.000 OA
ATOM     24  C   UNL     1       7.835   6.062  15.239  0.00  0.00    +0.000 C 
ENDBRANCH  18  23
BRANCH  19  25
ATOM     25  O   UNL     1       5.151   4.572  14.487  0.00  0.00    +0.000 OA
ATOM     26  C   UNL     1       5.710   3.541  13.684  0.00  0.00    +0.000 C 
ENDBRANCH  19  25
ENDBRANCH   4  15
BRANCH   1  28
ATOM     27  C   UNL     1       2.186   2.494  21.840  0.00  0.00    +0.000 C 
ATOM     28  C   UNL     1       1.107   2.971  21.209  0.00  0.00    +0.000 C 
ENDBRANCH   1  28
TORSDOF 7
ENDMDL
MODEL 3
REMARK VINA RESULT:      -7.5      0.736      2.297
REMARK  Name = 
REMARK  11 active torsions:
REMARK  status: ('A' for Active; 'I' for Inactive)
REMARK    1  A    between atoms: C_2  and  C_3
REMARK    2  A    between atoms: N_6  and  C_7
REMARK    3  A    between atoms: C_9  and  O_10
REMARK    4  A    between atoms: O_10  and  C_11
REMARK    5  A    between atoms: C_12  and  O_13
REMARK    6  A    between atoms: O_13  and  C_14
REMARK    7  A    between atoms: C_15  and  O_16
REMARK    8  A    between atoms: O_16  and  C_17
REMARK    9  A    between atoms: C_19  and  C_20
REMARK   10  A    between atoms: C_23  and  O_24
REMARK   11  A    between atoms: O_24  and  C_25
REMARK                            x       y       z     vdW  Elec       q    Type
REMARK                         _______ _______ _______ _____ _____    ______ ____
ROOT
ATOM      1  C   UNL     1       1.479   3.860  19.524  0.00  0.00    +0.000 C 
ATOM      2  C   UNL     1       2.322   3.175  18.432  0.00  0.00    +0.000 C 
ATOM      3  O   UNL     1       2.200   2.179  17.758  0.00  0.00    +0.000 OA
ATOM      4  N   UNL     1       3.267   4.151  18.496  0.00  0.00    +0.000 N 
ATOM      5  C   UNL     1       2.667   4.880  19.615  0.00  0.00    +0.000 C 
ENDROOT
BRANCH   5   6
ATOM      6  C   UNL     1       2.288   6.405  19.389  0.00  0.00    +0.000 A 
ATOM      7  C   UNL     1       2.359   7.032  18.127  0.00  0.00    +0.000 A 
ATOM      8  C   UNL     1       1.990   8.369  17.942  0.00  0.00    +0.000 A 
ATOM      9  C   UNL     1       1.537   9.138  19.012  0.00  0.00    +0.000 A 
ATOM     10  C   UNL     1       1.471   8.542  20.270  0.00  0.00    +0.000 A 
ATOM     11  F   UNL     1       1.056   9.217  21.351  0.00  0.00    +0.000 F 
ATOM     12  C   UNL     1       1.835   7.206  20.452  0.00  0.00    +0.000 A 
BRANCH   9  13
ATOM     13  O   UNL     1       1.196  10.420  18.681  0.00  0.00    +0.000 OA
ATOM     14  C   UNL     1      -0.191  10.724  18.632  0.00  0.00    +0.000 C 
ENDBRANCH   9  13
ENDBRANCH   5   6
BRANCH   4  15
ATOM     15  C   UNL     1       4.446   4.356  17.781  0.00  0.00    +0.000 A 
ATOM     16  C   UNL     1       4.636   3.684  16.577  0.00  0.00    +0.000 A 
ATOM     17  C   UNL     1       5.772   3.900  15.797  0.00  0.00    +0.000 A 
ATOM     18  C   UNL     1       6.788   4.758  16.260  0.00  0.00    +0.000 A 
ATOM     19  C   UNL     1       6.627   5.421  17.496  0.00  0.00    +0.000 A 
ATOM     20  C   UNL     1       5.438   5.235  18.227  0.00  0.00    +0.000 A 
BRANCH  17  21
ATOM     21  O   UNL     1       5.944   3.294  14.572  0.00  0.00    +0.000 OA
ATOM     22  C   UNL     1       5.143   3.817  13.512  0.00  0.00    +0.000 C 
ENDBRANCH  17  21
BRANCH  18  23
ATOM     23  O   UNL     1       7.909   4.813  15.462  0.00  0.00    +0.000 OA
ATOM     24  C   UNL     1       7.847   5.626  14.298  0.00  0.00    +0.000 C 
ENDBRANCH  18  23
BRANCH  19  25
ATOM     25  O   UNL     1       7.666   6.196  17.941  0.00  0.00    +0.000 OA
ATOM     26  C   UNL     1       7.651   7.590  17.668  0.00  0.00    +0.000 C 
ENDBRANCH  19  25
ENDBRANCH   4  15
BRANCH   1  28
ATOM     27  C   UNL     1       2.067   3.102  21.769  0.00  0.00    +0.000 C 
ATOM     28  C   UNL     1       1.237   3.017  20.722  0.00  0.00    +0.000 C 
ENDBRANCH   1  28
TORSDOF 7
ENDMDL
MODEL 4
REMARK VINA RESULT:      -7.3      1.075      1.089
REMARK  Name = 
REMARK  11 active torsions:
REMARK  status: ('A' for Active; 'I' for Inactive)
REMARK    1  A    between atoms: C_2  and  C_3
REMARK    2  A    between atoms: N_6  and  C_7
REMARK    3  A    between atoms: C_9  and  O_10
REMARK    4  A    between atoms: O_10  and  C_11
REMARK    5  A    between atoms: C_12  and  O_13
REMARK    6  A    between atoms: O_13  and  C_14
REMARK    7  A    between atoms: C_15  and  O_16
REMARK    8  A    between atoms: O_16  and  C_17
REMARK    9  A    between atoms: C_19  and  C_20
REMARK   10  A    between atoms: C_23  and  O_24
REMARK   11  A    between atoms: O_24  and  C_25
REMARK                            x       y       z     vdW  Elec       q    Type
REMARK                         _______ _______ _______ _____ _____    ______ ____
ROOT
ATOM      1  C   UNL     1       2.027   3.495  19.217  0.00  0.00    +0.000 C 
ATOM      2  C   UNL     1       2.752   2.941  17.977  0.00  0.00    +0.000 C 
ATOM      3  O   UNL     1       2.595   1.989  17.249  0.00  0.00    +0.000 OA
ATOM      4  N   UNL     1       3.645   3.967  17.994  0.00  0.00    +0.000 N 
ATOM      5  C   UNL     1       3.160   4.578  19.233  0.00  0.00    +0.000 C 
ENDROOT
BRANCH   5   6
ATOM      6  C   UNL     1       2.675   6.089  19.176  0.00  0.00    +0.000 A 
ATOM      7  C   UNL     1       2.752   6.873  18.006  0.00  0.00    +0.000 A 
ATOM      8  C   UNL     1       2.290   8.193  17.967  0.00  0.00    +0.000 A 
ATOM      9  C   UNL     1       1.731   8.787  19.098  0.00  0.00    +0.000 A 
ATOM     10  C   UNL     1       1.656   8.033  20.268  0.00  0.00    +0.000 A 
ATOM     11  F   UNL     1       1.144   8.535  21.400  0.00  0.00    +0.000 F 
ATOM     12  C   UNL     1       2.114   6.714  20.303  0.00  0.00    +0.000 A 
BRANCH   9  13
ATOM     13  O   UNL     1       1.307  10.072  18.909  0.00  0.00    +0.000 OA
ATOM     14  C   UNL     1       2.018  10.849  17.954  0.00  0.00    +0.000 C 
ENDBRANCH   9  13
ENDBRANCH   5   6
BRANCH   4  15
ATOM     15  C   UNL     1       4.706   4.295  17.150  0.00  0.00    +0.000 A 
ATOM     16  C   UNL     1       5.674   5.191  17.592  0.00  0.00    +0.000 A 
ATOM     17  C   UNL     1       6.784   5.506  16.809  0.00  0.00    +0.000 A 
ATOM     18  C   UNL     1       6.902   4.968  15.512  0.00  0.00    +0.000 A 
ATOM     19  C   UNL     1       5.910   4.084  15.034  0.00  0.00    +0.000 A 
ATOM     20  C   UNL     1       4.838   3.732  15.877  0.00  0.00    +0.000 A 
BRANCH  17  21
ATOM     21  O   UNL     1       7.784   6.338  17.258  0.00  0.00    +0.000 OA
ATOM     22  C   UNL     1       7.402   7.698  17.468  0.00  0.00    +0.000 C 
ENDBRANCH  17  21
BRANCH  18  23
ATOM     23  O   UNL     1       7.978   5.430  14.788  0.00  0.00    +0.000 OA
ATOM     24  C   UNL     1       7.844   5.484  13.375  0.00  0.00    +0.000 C 
ENDBRANCH  18  23
BRANCH  19  25
ATOM     25  O   UNL     1       6.028   3.634  13.745  0.00  0.00    +0.000 OA
ATOM     26  C   UNL     1       4.876   3.619  12.913  0.00  0.00    +0.000 C 
ENDBRANCH  19  25
ENDBRANCH   4  15
BRANCH   1  28
ATOM     27  C   UNL     1       1.907   3.042  21.612  0.00  0.00    +0.000 C 
ATOM     28  C   UNL     1       1.990   2.557  20.368  0.00  0.00    +0.000 C 
ENDBRANCH   1  28
TORSDOF 7
ENDMDL
MODEL 5
REMARK VINA RESULT:      -7.2      0.998      2.726
REMARK  Name = 
REMARK  11 active torsions:
REMARK  status: ('A' for Active; 'I' for Inactive)
REMARK    1  A    between atoms: C_2  and  C_3
REMARK    2  A    between atoms: N_6  and  C_7
REMARK    3  A    between atoms: C_9  and  O_10
REMARK    4  A    between atoms: O_10  and  C_11
REMARK    5  A    between atoms: C_12  and  O_13
REMARK    6  A    between atoms: O_13  and  C_14
REMARK    7  A    between atoms: C_15  and  O_16
REMARK    8  A    between atoms: O_16  and  C_17
REMARK    9  A    between atoms: C_19  and  C_20
REMARK   10  A    between atoms: C_23  and  O_24
REMARK   11  A    between atoms: O_24  and  C_25
REMARK                            x       y       z     vdW  Elec       q    Type
REMARK                         _______ _______ _______ _____ _____    ______ ____
ROOT
ATOM      1  C   UNL     1       1.286   3.636  19.735  0.00  0.00    +0.000 C 
ATOM      2  C   UNL     1       2.095   2.981  18.601  0.00  0.00    +0.000 C 
ATOM      3  O   UNL     1       1.941   2.016  17.888  0.00  0.00    +0.000 OA
ATOM      4  N   UNL     1       3.060   3.935  18.687  0.00  0.00    +0.000 N 
ATOM      5  C   UNL     1       2.495   4.628  19.846  0.00  0.00    +0.000 C 
ENDROOT
BRANCH   5   6
ATOM      6  C   UNL     1       2.143   6.168  19.691  0.00  0.00    +0.000 A 
ATOM      7  C   UNL     1       1.587   6.935  20.736  0.00  0.00    +0.000 A 
ATOM      8  C   UNL     1       1.313   8.299  20.590  0.00  0.00    +0.000 A 
ATOM      9  C   UNL     1       1.582   8.956  19.390  0.00  0.00    +0.000 A 
ATOM     10  C   UNL     1       2.120   8.214  18.341  0.00  0.00    +0.000 A 
ATOM     11  F   UNL     1       2.397   8.769  17.152  0.00  0.00    +0.000 F 
ATOM     12  C   UNL     1       2.397   6.853  18.490  0.00  0.00    +0.000 A 
BRANCH   9  13
ATOM     13  O   UNL     1       1.280  10.289  19.397  0.00  0.00    +0.000 OA
ATOM     14  C   UNL     1       0.692  10.808  20.582  0.00  0.00    +0.000 C 
ENDBRANCH   9  13
ENDBRANCH   5   6
BRANCH   4  15
ATOM     15  C   UNL     1       4.230   4.147  17.958  0.00  0.00    +0.000 A 
ATOM     16  C   UNL     1       4.166   4.194  16.569  0.00  0.00    +0.000 A 
ATOM     17  C   UNL     1       5.297   4.461  15.799  0.00  0.00    +0.000 A 
ATOM     18  C   UNL     1       6.550   4.617  16.423  0.00  0.00    +0.000 A 
ATOM     19  C   UNL     1       6.639   4.538  17.830  0.00  0.00    +0.000 A 
ATOM     20  C   UNL     1       5.467   4.336  18.584  0.00  0.00    +0.000 A 
BRANCH  17  21
ATOM     21  O   UNL     1       5.238   4.577  14.428  0.00  0.00    +0.000 OA
ATOM     22  C   UNL     1       5.661   3.426  13.696  0.00  0.00    +0.000 C 
ENDBRANCH  17  21
BRANCH  18  23
ATOM     23  O   UNL     1       7.613   4.769  15.561  0.00  0.00    +0.000 OA
ATOM     24  C   UNL     1       7.875   6.075  15.067  0.00  0.00    +0.000 C 
ENDBRANCH  18  23
BRANCH  19  25
ATOM     25  O   UNL     1       7.885   4.630  18.394  0.00  0.00    +0.000 OA
ATOM     26  C   UNL     1       8.161   5.707  19.279  0.00  0.00    +0.000 C 
ENDBRANCH  19  25
ENDBRANCH   4  15
BRANCH   1  28
ATOM     27  C   UNL     1       1.874   2.805  21.954  0.00  0.00    +0.000 C 
ATOM     28  C   UNL     1       1.049   2.748  20.902  0.00  0.00    +0.000 C 
ENDBRANCH   1  28
TORSDOF 7
ENDMDL
MODEL 6
REMARK VINA RESULT:      -7.1      1.531      1.863
REMARK  Name = 
REMARK  11 active torsions:
REMARK  status: ('A' for Active; 'I' for Inactive)
REMARK    1  A    between atoms: C_2  and  C_3
REMARK    2  A    between atoms: N_6  and  C_7
REMARK    3  A    between atoms: C_9  and  O_10
REMARK    4  A    between atoms: O_10  and  C_11
REMARK    5  A    between atoms: C_12  and  O_13
REMARK    6  A    between atoms: O_13  and  C_14
REMARK    7  A    between atoms: C_15  and  O_16
REMARK    8  A    between atoms: O_16  and  C_17
REMARK    9  A    between atoms: C_19  and  C_20
REMARK   10  A    between atoms: C_23  and  O_24
REMARK   11  A    between atoms: O_24  and  C_25
REMARK                            x       y       z     vdW  Elec       q    Type
REMARK                         _______ _______ _______ _____ _____    ______ ____
ROOT
ATOM      1  C   UNL     1       1.287   4.167  19.971  0.00  0.00    +0.000 C 
ATOM      2  C   UNL     1       2.243   3.742  18.841  0.00  0.00    +0.000 C 
ATOM      3  O   UNL     1       2.269   2.838  18.038  0.00  0.00    +0.000 OA
ATOM      4  N   UNL     1       3.054   4.809  19.074  0.00  0.00    +0.000 N 
ATOM      5  C   UNL     1       2.331   5.303  20.248  0.00  0.00    +0.000 C 
ENDROOT
BRANCH   5   6
ATOM      6  C   UNL     1       1.768   6.787  20.203  0.00  0.00    +0.000 A 
ATOM      7  C   UNL     1       1.043   7.363  21.267  0.00  0.00    +0.000 A 
ATOM      8  C   UNL     1       0.583   8.683  21.222  0.00  0.00    +0.000 A 
ATOM      9  C   UNL     1       0.826   9.485  20.107  0.00  0.00    +0.000 A 
ATOM     10  C   UNL     1       1.530   8.932  19.040  0.00  0.00    +0.000 A 
ATOM     11  F   UNL     1       1.795   9.633  17.928  0.00  0.00    +0.000 F 
ATOM     12  C   UNL     1       1.993   7.614  19.089  0.00  0.00    +0.000 A 
BRANCH   9  13
ATOM     13  O   UNL     1       0.334  10.756  20.209  0.00  0.00    +0.000 OA
ATOM     14  C   UNL     1      -0.873  11.035  19.511  0.00  0.00    +0.000 C 
ENDBRANCH   9  13
ENDBRANCH   5   6
BRANCH   4  15
ATOM     15  C   UNL     1       4.218   5.251  18.447  0.00  0.00    +0.000 A 
ATOM     16  C   UNL     1       5.316   5.606  19.224  0.00  0.00    +0.000 A 
ATOM     17  C   UNL     1       6.521   5.998  18.641  0.00  0.00    +0.000 A 
ATOM     18  C   UNL     1       6.619   6.110  17.240  0.00  0.00    +0.000 A 
ATOM     19  C   UNL     1       5.503   5.788  16.439  0.00  0.00    +0.000 A 
ATOM     20  C   UNL     1       4.322   5.328  17.054  0.00  0.00    +0.000 A 
BRANCH  17  21
ATOM     21  O   UNL     1       7.637   6.289  19.394  0.00  0.00    +0.000 OA
ATOM     22  C   UNL     1       8.257   5.170  20.028  0.00  0.00    +0.000 C 
ENDBRANCH  17  21
BRANCH  18  23
ATOM     23  O   UNL     1       7.817   6.609  16.781  0.00  0.00    +0.000 OA
ATOM     24  C   UNL     1       8.141   7.952  17.115  0.00  0.00    +0.000 C 
ENDBRANCH  18  23
BRANCH  19  25
ATOM     25  O   UNL     1       5.618   5.972  15.085  0.00  0.00    +0.000 OA
ATOM     26  C   UNL     1       5.919   4.854  14.262  0.00  0.00    +0.000 C 
ENDBRANCH  19  25
ENDBRANCH   4  15
BRANCH   1  28
ATOM     27  C   UNL     1       2.190   2.707  21.706  0.00  0.00    +0.000 C 
ATOM     28  C   UNL     1       1.118   3.148  21.038  0.00  0.00    +0.000 C 
ENDBRANCH   1  28
TORSDOF 7
ENDMDL
MODEL 7
REMARK VINA RESULT:      -7.1      1.255      1.544
REMARK  Name = 
REMARK  11 active torsions:
REMARK  status: ('A' for Active; 'I' for Inactive)
REMARK    1  A    between atoms: C_2  and  C_3
REMARK    2  A    between atoms: N_6  and  C_7
REMARK    3  A    between atoms: C_9  and  O_10
REMARK    4  A    between atoms: O_10  and  C_11
REMARK    5  A    between atoms: C_12  and  O_13
REMARK    6  A    between atoms: O_13  and  C_14
REMARK    7  A    between atoms: C_15  and  O_16
REMARK    8  A    between atoms: O_16  and  C_17
REMARK    9  A    between atoms: C_19  and  C_20
REMARK   10  A    between atoms: C_23  and  O_24
REMARK   11  A    between atoms: O_24  and  C_25
REMARK                            x       y       z     vdW  Elec       q    Type
REMARK                         _______ _______ _______ _____ _____    ______ ____
ROOT
ATOM      1  C   UNL     1       1.736   3.559  19.297  0.00  0.00    +0.000 C 
ATOM      2  C   UNL     1       2.481   3.053  18.048  0.00  0.00    +0.000 C 
ATOM      3  O   UNL     1       2.331   2.135  17.276  0.00  0.00    +0.000 OA
ATOM      4  N   UNL     1       3.382   4.070  18.127  0.00  0.00    +0.000 N 
ATOM      5  C   UNL     1       2.878   4.630  19.383  0.00  0.00    +0.000 C 
ENDROOT
BRANCH   5   6
ATOM      6  C   UNL     1       2.406   6.146  19.382  0.00  0.00    +0.000 A 
ATOM      7  C   UNL     1       1.900   6.790  20.531  0.00  0.00    +0.000 A 
ATOM      8  C   UNL     1       1.518   8.136  20.518  0.00  0.00    +0.000 A 
ATOM      9  C   UNL     1       1.625   8.897  19.355  0.00  0.00    +0.000 A 
ATOM     10  C   UNL     1       2.111   8.277  18.206  0.00  0.00    +0.000 A 
ATOM     11  F   UNL     1       2.234   8.936  17.045  0.00  0.00    +0.000 F 
ATOM     12  C   UNL     1       2.496   6.934  18.221  0.00  0.00    +0.000 A 
BRANCH   9  13
ATOM     13  O   UNL     1       1.234  10.199  19.494  0.00  0.00    +0.000 OA
ATOM     14  C   UNL     1       0.767  10.595  20.777  0.00  0.00    +0.000 C 
ENDBRANCH   9  13
ENDBRANCH   5   6
BRANCH   4  15
ATOM     15  C   UNL     1       4.462   4.425  17.320  0.00  0.00    +0.000 A 
ATOM     16  C   UNL     1       5.333   5.422  17.748  0.00  0.00    +0.000 A 
ATOM     17  C   UNL     1       6.459   5.771  17.004  0.00  0.00    +0.000 A 
ATOM     18  C   UNL     1       6.691   5.161  15.755  0.00  0.00    +0.000 A 
ATOM     19  C   UNL     1       5.798   4.172  15.289  0.00  0.00    +0.000 A 
ATOM     20  C   UNL     1       4.709   3.792  16.097  0.00  0.00    +0.000 A 
BRANCH  17  21
ATOM     21  O   UNL     1       7.366   6.708  17.445  0.00  0.00    +0.000 OA
ATOM     22  C   UNL     1       7.930   6.456  18.733  0.00  0.00    +0.000 C 
ENDBRANCH  17  21
BRANCH  18  23
ATOM     23  O   UNL     1       7.770   5.658  15.059  0.00  0.00    +0.000 OA
ATOM     24  C   UNL     1       7.789   5.462  13.651  0.00  0.00    +0.000 C 
ENDBRANCH  18  23
BRANCH  19  25
ATOM     25  O   UNL     1       6.023   3.649  14.042  0.00  0.00    +0.000 OA
ATOM     26  C   UNL     1       4.950   3.599  13.113  0.00  0.00    +0.000 C 
ENDBRANCH  19  25
ENDBRANCH   4  15
BRANCH   1  28
ATOM     27  C   UNL     1       2.006   2.947  21.645  0.00  0.00    +0.000 C 
ATOM     28  C   UNL     1       1.670   2.572  20.405  0.00  0.00    +0.000 C 
ENDBRANCH   1  28
TORSDOF 7
ENDMDL
MODEL 8
REMARK VINA RESULT:      -7.1      1.433      1.547
REMARK  Name = 
REMARK  11 active torsions:
REMARK  status: ('A' for Active; 'I' for Inactive)
REMARK    1  A    between atoms: C_2  and  C_3
REMARK    2  A    between atoms: N_6  and  C_7
REMARK    3  A    between atoms: C_9  and  O_10
REMARK    4  A    between atoms: O_10  and  C_11
REMARK    5  A    between atoms: C_12  and  O_13
REMARK    6  A    between atoms: O_13  and  C_14
REMARK    7  A    between atoms: C_15  and  O_16
REMARK    8  A    between atoms: O_16  and  C_17
REMARK    9  A    between atoms: C_19  and  C_20
REMARK   10  A    between atoms: C_23  and  O_24
REMARK   11  A    between atoms: O_24  and  C_25
REMARK                            x       y       z     vdW  Elec       q    Type
REMARK                         _______ _______ _______ _____ _____    ______ ____
ROOT
ATOM      1  C   UNL     1       1.302   4.134  19.895  0.00  0.00    +0.000 C 
ATOM      2  C   UNL     1       2.248   3.740  18.746  0.00  0.00    +0.000 C 
ATOM      3  O   UNL     1       2.262   2.863  17.913  0.00  0.00    +0.000 OA
ATOM      4  N   UNL     1       3.070   4.791  19.012  0.00  0.00    +0.000 N 
ATOM      5  C   UNL     1       2.358   5.250  20.206  0.00  0.00    +0.000 C 
ENDROOT
BRANCH   5   6
ATOM      6  C   UNL     1       1.808   6.740  20.215  0.00  0.00    +0.000 A 
ATOM      7  C   UNL     1       2.025   7.642  19.153  0.00  0.00    +0.000 A 
ATOM      8  C   UNL     1       1.506   8.941  19.165  0.00  0.00    +0.000 A 
ATOM      9  C   UNL     1       0.746   9.395  20.243  0.00  0.00    +0.000 A 
ATOM     10  C   UNL     1       0.530   8.524  21.308  0.00  0.00    +0.000 A 
ATOM     11  F   UNL     1      -0.180   8.888  22.386  0.00  0.00    +0.000 F 
ATOM     12  C   UNL     1       1.046   7.225  21.292  0.00  0.00    +0.000 A 
BRANCH   9  13
ATOM     13  O   UNL     1       0.290  10.676  20.111  0.00  0.00    +0.000 OA
ATOM     14  C   UNL     1       1.225  11.649  19.662  0.00  0.00    +0.000 C 
ENDBRANCH   9  13
ENDBRANCH   5   6
BRANCH   4  15
ATOM     15  C   UNL     1       4.234   5.244  18.393  0.00  0.00    +0.000 A 
ATOM     16  C   UNL     1       5.330   5.591  19.178  0.00  0.00    +0.000 A 
ATOM     17  C   UNL     1       6.535   5.994  18.604  0.00  0.00    +0.000 A 
ATOM     18  C   UNL     1       6.637   6.125  17.205  0.00  0.00    +0.000 A 
ATOM     19  C   UNL     1       5.523   5.810  16.396  0.00  0.00    +0.000 A 
ATOM     20  C   UNL     1       4.343   5.340  17.002  0.00  0.00    +0.000 A 
BRANCH  17  21
ATOM     21  O   UNL     1       7.649   6.277  19.363  0.00  0.00    +0.000 OA
ATOM     22  C   UNL     1       8.105   5.215  20.201  0.00  0.00    +0.000 C 
ENDBRANCH  17  21
BRANCH  18  23
ATOM     23  O   UNL     1       7.835   6.632  16.756  0.00  0.00    +0.000 OA
ATOM     24  C   UNL     1       8.152   7.973  17.103  0.00  0.00    +0.000 C 
ENDBRANCH  18  23
BRANCH  19  25
ATOM     25  O   UNL     1       5.642   6.012  15.046  0.00  0.00    +0.000 OA
ATOM     26  C   UNL     1       6.072   4.937  14.224  0.00  0.00    +0.000 C 
ENDBRANCH  19  25
ENDBRANCH   4  15
BRANCH   1  28
ATOM     27  C   UNL     1       2.112   2.848  21.806  0.00  0.00    +0.000 C 
ATOM     28  C   UNL     1       1.129   3.080  20.928  0.00  0.00    +0.000 C 
ENDBRANCH   1  28
TORSDOF 7
ENDMDL
MODEL 9
REMARK VINA RESULT:      -6.8      0.928      2.453
REMARK  Name = 
REMARK  11 active torsions:
REMARK  status: ('A' for Active; 'I' for Inactive)
REMARK    1  A    between atoms: C_2  and  C_3
REMARK    2  A    between atoms: N_6  and  C_7
REMARK    3  A    between atoms: C_9  and  O_10
REMARK    4  A    between atoms: O_10  and  C_11
REMARK    5  A    between atoms: C_12  and  O_13
REMARK    6  A    between atoms: O_13  and  C_14
REMARK    7  A    between atoms: C_15  and  O_16
REMARK    8  A    between atoms: O_16  and  C_17
REMARK    9  A    between atoms: C_19  and  C_20
REMARK   10  A    between atoms: C_23  and  O_24
REMARK   11  A    between atoms: O_24  and  C_25
REMARK                            x       y       z     vdW  Elec       q    Type
REMARK                         _______ _______ _______ _____ _____    ______ ____
ROOT
ATOM      1  C   UNL     1       1.301   3.933  20.033  0.00  0.00    +0.000 C 
ATOM      2  C   UNL     1       2.145   3.335  18.891  0.00  0.00    +0.000 C 
ATOM      3  O   UNL     1       2.041   2.375  18.164  0.00  0.00    +0.000 OA
ATOM      4  N   UNL     1       3.062   4.334  18.995  0.00  0.00    +0.000 N 
ATOM      5  C   UNL     1       2.459   4.981  20.162  0.00  0.00    +0.000 C 
ENDROOT
BRANCH   5   6
ATOM      6  C   UNL     1       2.032   6.505  20.028  0.00  0.00    +0.000 A 
ATOM      7  C   UNL     1       2.282   7.270  18.871  0.00  0.00    +0.000 A 
ATOM      8  C   UNL     1       1.869   8.603  18.759  0.00  0.00    +0.000 A 
ATOM      9  C   UNL     1       1.189   9.228  19.804  0.00  0.00    +0.000 A 
ATOM     10  C   UNL     1       0.942   8.493  20.961  0.00  0.00    +0.000 A 
ATOM     11  F   UNL     1       0.304   9.025  22.013  0.00  0.00    +0.000 F 
ATOM     12  C   UNL     1       1.351   7.161  21.068  0.00  0.00    +0.000 A 
BRANCH   9  13
ATOM     13  O   UNL     1       0.833  10.522  19.549  0.00  0.00    +0.000 OA
ATOM     14  C   UNL     1      -0.391  10.727  18.854  0.00  0.00    +0.000 C 
ENDBRANCH   9  13
ENDBRANCH   5   6
BRANCH   4  15
ATOM     15  C   UNL     1       4.221   4.615  18.274  0.00  0.00    +0.000 A 
ATOM     16  C   UNL     1       4.118   4.978  16.934  0.00  0.00    +0.000 A 
ATOM     17  C   UNL     1       5.243   5.324  16.187  0.00  0.00    +0.000 A 
ATOM     18  C   UNL     1       6.524   5.239  16.767  0.00  0.00    +0.000 A 
ATOM     19  C   UNL     1       6.650   4.839  18.115  0.00  0.00    +0.000 A 
ATOM     20  C   UNL     1       5.489   4.563  18.863  0.00  0.00    +0.000 A 
BRANCH  17  21
ATOM     21  O   UNL     1       5.151   5.749  14.880  0.00  0.00    +0.000 OA
ATOM     22  C   UNL     1       4.831   7.130  14.706  0.00  0.00    +0.000 C 
ENDBRANCH  17  21
BRANCH  18  23
ATOM     23  O   UNL     1       7.568   5.499  15.908  0.00  0.00    +0.000 OA
ATOM     24  C   UNL     1       7.606   4.778  14.684  0.00  0.00    +0.000 C 
ENDBRANCH  18  23
BRANCH  19  25
ATOM     25  O   UNL     1       7.916   4.707  18.623  0.00  0.00    +0.000 OA
ATOM     26  C   UNL     1       8.335   5.579  19.662  0.00  0.00    +0.000 C 
ENDBRANCH  19  25
ENDBRANCH   4  15
BRANCH   1  28
ATOM     27  C   UNL     1       2.168   2.582  21.872  0.00  0.00    +0.000 C 
ATOM     28  C   UNL     1       1.105   3.017  21.185  0.00  0.00    +0.000 C 
ENDBRANCH   1  28
TORSDOF 7
ENDMDL
