MODEL 1
REMARK VINA RESULT:      -8.6      0.000      0.000
REMARK  Name = 
REMARK  5 active torsions:
REMARK  status: ('A' for Active; 'I' for Inactive)
REMARK    1  A    between atoms: C_2  and  C_10
REMARK    2  A    between atoms: N_3  and  C_4
REMARK    3  A    between atoms: C_4  and  C_5
REMARK    4  A    between atoms: C_15  and  C_16
REMARK    5  A    between atoms: C_19  and  C_20
REMARK                            x       y       z     vdW  Elec       q    Type
REMARK                         _______ _______ _______ _____ _____    ______ ____
ROOT
ATOM      1  C   UNL     1       4.598   4.384  16.567  0.00  0.00    +0.000 A 
ATOM      2  C   UNL     1       5.500   3.869  15.610  0.00  0.00    +0.000 A 
ATOM      3  C   UNL     1       6.392   4.704  14.943  0.00  0.00    +0.000 A 
ATOM      4  C   UNL     1       6.395   6.062  15.223  0.00  0.00    +0.000 A 
ATOM      5  C   UNL     1       5.515   6.580  16.179  0.00  0.00    +0.000 A 
ATOM      6  C   UNL     1       4.584   5.769  16.876  0.00  0.00    +0.000 A 
ENDROOT
BRANCH   6   7
ATOM      7  C   UNL     1       3.679   6.424  17.864  0.00  0.00    +0.000 A 
ATOM      8  C   UNL     1       3.438   5.843  19.126  0.00  0.00    +0.000 A 
ATOM      9  C   UNL     1       2.597   6.442  20.073  0.00  0.00    +0.000 A 
ATOM     10  C   UNL     1       1.982   7.667  19.802  0.00  0.00    +0.000 A 
ATOM     11  C   UNL     1       2.195   8.253  18.548  0.00  0.00    +0.000 A 
ATOM     12  C   UNL     1       3.006   7.628  17.590  0.00  0.00    +0.000 A 
BRANCH  10  13
ATOM     13  C   UNL     1       1.126   8.362  20.831  0.00  0.00    +0.000 C 
ATOM     14  F   UNL     1       1.818   8.774  21.930  0.00  0.00    +0.000 F 
ATOM     15  F   UNL     1       0.516   9.475  20.337  0.00  0.00    +0.000 F 
ATOM     16  F   UNL     1       0.125   7.567  21.301  0.00  0.00    +0.000 F 
ENDBRANCH  10  13
ENDBRANCH   6   7
BRANCH   1  18
ATOM     17  O   UNL     1       2.448   3.408  16.766  0.00  0.00    +0.000 OA
ATOM     18  C   UNL     1       3.615   3.408  17.131  0.00  0.00    +0.000 C 
ATOM     19  N   UNL     1       4.118   2.523  18.060  0.00  0.00    +0.000 N 
ATOM     20  H   UNL     1       5.061   2.620  18.406  0.00  0.00    +0.000 HD
BRANCH  19  21
ATOM     21  C   UNL     1       3.273   1.544  18.713  0.00  0.00    +0.000 C 
BRANCH  21  22
ATOM     22  C   UNL     1       2.508   2.209  19.796  0.00  0.00    +0.000 A 
ATOM     23  C   UNL     1       1.183   2.570  19.931  0.00  0.00    +0.000 A 
ATOM     24  C   UNL     1       1.051   3.132  21.223  0.00  0.00    +0.000 A 
ATOM     25  C   UNL     1       2.302   3.086  21.791  0.00  0.00    +0.000 A 
ATOM     26  O   UNL     1       3.197   2.535  20.930  0.00  0.00    +0.000 OA
ENDBRANCH  21  22
ENDBRANCH  19  21
ENDBRANCH   1  18
TORSDOF 5
ENDMDL
MODEL 2
REMARK VINA RESULT:      -8.5      0.153      1.246
REMARK  Name = 
REMARK  5 active torsions:
REMARK  status: ('A' for Active; 'I' for Inactive)
REMARK    1  A    between atoms: C_2  and  C_10
REMARK    2  A    between atoms: N_3  and  C_4
REMARK    3  A    between atoms: C_4  and  C_5
REMARK    4  A    between atoms: C_15  and  C_16
REMARK    5  A    between atoms: C_19  and  C_20
REMARK                            x       y       z     vdW  Elec       q    Type
REMARK                         _______ _______ _______ _____ _____    ______ ____
ROOT
ATOM      1  C   UNL     1       4.667   4.272  16.543  0.00  0.00    +0.000 A 
ATOM      2  C   UNL     1       5.552   3.741  15.578  0.00  0.00    +0.000 A 
ATOM      3  C   UNL     1       6.454   4.561  14.905  0.00  0.00    +0.000 A 
ATOM      4  C   UNL     1       6.486   5.918  15.189  0.00  0.00    +0.000 A 
ATOM      5  C   UNL     1       5.625   6.450  16.153  0.00  0.00    +0.000 A 
ATOM      6  C   UNL     1       4.683   5.656  16.855  0.00  0.00    +0.000 A 
ENDROOT
BRANCH   6   7
ATOM      7  C   UNL     1       3.799   6.326  17.853  0.00  0.00    +0.000 A 
ATOM      8  C   UNL     1       3.186   7.562  17.566  0.00  0.00    +0.000 A 
ATOM      9  C   UNL     1       2.346   8.208  18.485  0.00  0.00    +0.000 A 
ATOM     10  C   UNL     1       2.067   7.623  19.722  0.00  0.00    +0.000 A 
ATOM     11  C   UNL     1       2.680   6.403  20.033  0.00  0.00    +0.000 A 
ATOM     12  C   UNL     1       3.549   5.782  19.125  0.00  0.00    +0.000 A 
BRANCH  10  13
ATOM     13  C   UNL     1       1.115   8.267  20.699  0.00  0.00    +0.000 C 
ATOM     14  F   UNL     1       0.334   9.236  20.143  0.00  0.00    +0.000 F 
ATOM     15  F   UNL     1       0.255   7.372  21.259  0.00  0.00    +0.000 F 
ATOM     16  F   UNL     1       1.760   8.864  21.740  0.00  0.00    +0.000 F 
ENDBRANCH  10  13
ENDBRANCH   6   7
BRANCH   1  18
ATOM     17  O   UNL     1       2.509   3.314  16.731  0.00  0.00    +0.000 OA
ATOM     18  C   UNL     1       3.671   3.313  17.113  0.00  0.00    +0.000 C 
ATOM     19  N   UNL     1       4.154   2.445  18.067  0.00  0.00    +0.000 N 
ATOM     20  H   UNL     1       5.093   2.542  18.424  0.00  0.00    +0.000 HD
BRANCH  19  21
ATOM     21  C   UNL     1       3.294   1.484  18.728  0.00  0.00    +0.000 C 
BRANCH  21  22
ATOM     22  C   UNL     1       2.519   2.176  19.786  0.00  0.00    +0.000 A 
ATOM     23  C   UNL     1       1.191   2.539  19.900  0.00  0.00    +0.000 A 
ATOM     24  C   UNL     1       1.048   3.134  21.176  0.00  0.00    +0.000 A 
ATOM     25  C   UNL     1       2.294   3.103  21.756  0.00  0.00    +0.000 A 
ATOM     26  O   UNL     1       3.197   2.532  20.917  0.00  0.00    +0.000 OA
ENDBRANCH  21  22
ENDBRANCH  19  21
ENDBRANCH   1  18
TORSDOF 5
ENDMDL
MODEL 3
REMARK VINA RESULT:      -8.1      2.122      5.210
REMARK  Name = 
REMARK  5 active torsions:
REMARK  status: ('A' for Active; 'I' for Inactive)
REMARK    1  A    between atoms: C_2  and  C_10
REMARK    2  A    between atoms: N_3  and  C_4
REMARK    3  A    between atoms: C_4  and  C_5
REMARK    4  A    between atoms: C_15  and  C_16
REMARK    5  A    between atoms: C_19  and  C_20
REMARK                            x       y       z     vdW  Elec       q    Type
REMARK                         _______ _______ _______ _____ _____    ______ ____
ROOT
ATOM      1  C   UNL     1       3.559   4.239  19.465  0.00  0.00    +0.000 A 
ATOM      2  C   UNL     1       3.664   2.857  19.738  0.00  0.00    +0.000 A 
ATOM      3  C   UNL     1       2.594   2.151  20.281  0.00  0.00    +0.000 A 
ATOM      4  C   UNL     1       1.408   2.814  20.556  0.00  0.00    +0.000 A 
ATOM      5  C   UNL     1       1.290   4.179  20.276  0.00  0.00    +0.000 A 
ATOM      6  C   UNL     1       2.355   4.941  19.733  0.00  0.00    +0.000 A 
ENDROOT
BRANCH   6   7
ATOM      7  C   UNL     1       2.129   6.394  19.487  0.00  0.00    +0.000 A 
ATOM      8  C   UNL     1       2.344   6.958  18.213  0.00  0.00    +0.000 A 
ATOM      9  C   UNL     1       2.133   8.320  17.956  0.00  0.00    +0.000 A 
ATOM     10  C   UNL     1       1.671   9.168  18.966  0.00  0.00    +0.000 A 
ATOM     11  C   UNL     1       1.467   8.631  20.243  0.00  0.00    +0.000 A 
ATOM     12  C   UNL     1       1.718   7.277  20.502  0.00  0.00    +0.000 A 
BRANCH  10  13
ATOM     13  C   UNL     1       1.374  10.622  18.695  0.00  0.00    +0.000 C 
ATOM     14  F   UNL     1       1.388  11.400  19.815  0.00  0.00    +0.000 F 
ATOM     15  F   UNL     1       2.270  11.188  17.839  0.00  0.00    +0.000 F 
ATOM     16  F   UNL     1       0.150  10.809  18.130  0.00  0.00    +0.000 F 
ENDBRANCH  10  13
ENDBRANCH   6   7
BRANCH   1  18
ATOM     17  O   UNL     1       5.525   5.525  19.766  0.00  0.00    +0.000 OA
ATOM     18  C   UNL     1       4.810   4.908  18.990  0.00  0.00    +0.000 C 
ATOM     19  N   UNL     1       5.091   4.767  17.649  0.00  0.00    +0.000 N 
ATOM     20  H   UNL     1       4.425   4.335  17.025  0.00  0.00    +0.000 HD
BRANCH  19  21
ATOM     21  C   UNL     1       6.251   5.390  17.045  0.00  0.00    +0.000 C 
BRANCH  21  22
ATOM     22  C   UNL     1       6.398   4.896  15.654  0.00  0.00    +0.000 A 
ATOM     23  C   UNL     1       5.680   3.996  14.891  0.00  0.00    +0.000 A 
ATOM     24  C   UNL     1       6.288   3.981  13.613  0.00  0.00    +0.000 A 
ATOM     25  C   UNL     1       7.339   4.864  13.678  0.00  0.00    +0.000 A 
ATOM     26  O   UNL     1       7.421   5.419  14.915  0.00  0.00    +0.000 OA
ENDBRANCH  21  22
ENDBRANCH  19  21
ENDBRANCH   1  18
TORSDOF 5
ENDMDL
MODEL 4
REMARK VINA RESULT:      -8.1      2.198      5.149
REMARK  Name = 
REMARK  5 active torsions:
REMARK  status: ('A' for Active; 'I' for Inactive)
REMARK    1  A    between atoms: C_2  and  C_10
REMARK    2  A    between atoms: N_3  and  C_4
REMARK    3  A    between atoms: C_4  and  C_5
REMARK    4  A    between atoms: C_15  and  C_16
REMARK    5  A    between atoms: C_19  and  C_20
REMARK                            x       y       z     vdW  Elec       q    Type
REMARK                         _______ _______ _______ _____ _____    ______ ____
ROOT
ATOM      1  C   UNL     1       3.908   4.069  19.635  0.00  0.00    +0.000 A 
ATOM      2  C   UNL     1       4.101   2.724  20.020  0.00  0.00    +0.000 A 
ATOM      3  C   UNL     1       3.081   2.001  20.633  0.00  0.00    +0.000 A 
ATOM      4  C   UNL     1       1.858   2.611  20.867  0.00  0.00    +0.000 A 
ATOM      5  C   UNL     1       1.653   3.938  20.476  0.00  0.00    +0.000 A 
ATOM      6  C   UNL     1       2.665   4.715  19.859  0.00  0.00    +0.000 A 
ENDROOT
BRANCH   6   7
ATOM      7  C   UNL     1       2.348   6.127  19.496  0.00  0.00    +0.000 A 
ATOM      8  C   UNL     1       1.866   7.035  20.460  0.00  0.00    +0.000 A 
ATOM      9  C   UNL     1       1.568   8.368  20.144  0.00  0.00    +0.000 A 
ATOM     10  C   UNL     1       1.767   8.851  18.849  0.00  0.00    +0.000 A 
ATOM     11  C   UNL     1       2.229   7.961  17.872  0.00  0.00    +0.000 A 
ATOM     12  C   UNL     1       2.488   6.619  18.185  0.00  0.00    +0.000 A 
BRANCH  10  13
ATOM     13  C   UNL     1       1.515  10.297  18.502  0.00  0.00    +0.000 C 
ATOM     14  F   UNL     1       1.523  11.128  19.582  0.00  0.00    +0.000 F 
ATOM     15  F   UNL     1       2.444  10.798  17.641  0.00  0.00    +0.000 F 
ATOM     16  F   UNL     1       0.308  10.487  17.899  0.00  0.00    +0.000 F 
ENDBRANCH  10  13
ENDBRANCH   6   7
BRANCH   1  18
ATOM     17  O   UNL     1       5.600   5.727  19.676  0.00  0.00    +0.000 OA
ATOM     18  C   UNL     1       5.112   4.771  19.090  0.00  0.00    +0.000 C 
ATOM     19  N   UNL     1       5.621   4.261  17.917  0.00  0.00    +0.000 N 
ATOM     20  H   UNL     1       5.132   3.535  17.415  0.00  0.00    +0.000 HD
BRANCH  19  21
ATOM     21  C   UNL     1       6.764   4.862  17.259  0.00  0.00    +0.000 C 
BRANCH  21  22
ATOM     22  C   UNL     1       6.688   4.583  15.804  0.00  0.00    +0.000 A 
ATOM     23  C   UNL     1       5.880   3.764  15.041  0.00  0.00    +0.000 A 
ATOM     24  C   UNL     1       6.262   3.968  13.694  0.00  0.00    +0.000 A 
ATOM     25  C   UNL     1       7.281   4.891  13.720  0.00  0.00    +0.000 A 
ATOM     26  O   UNL     1       7.553   5.265  14.997  0.00  0.00    +0.000 OA
ENDBRANCH  21  22
ENDBRANCH  19  21
ENDBRANCH   1  18
TORSDOF 5
ENDMDL
MODEL 5
REMARK VINA RESULT:      -8.0      3.558      5.622
REMARK  Name = 
REMARK  5 active torsions:
REMARK  status: ('A' for Active; 'I' for Inactive)
REMARK    1  A    between atoms: C_2  and  C_10
REMARK    2  A    between atoms: N_3  and  C_4
REMARK    3  A    between atoms: C_4  and  C_5
REMARK    4  A    between atoms: C_15  and  C_16
REMARK    5  A    between atoms: C_19  and  C_20
REMARK                            x       y       z     vdW  Elec       q    Type
REMARK                         _______ _______ _______ _____ _____    ______ ____
ROOT
ATOM      1  C   UNL     1       6.613   4.895  15.994  0.00  0.00    +0.000 A 
ATOM      2  C   UNL     1       7.387   4.811  14.815  0.00  0.00    +0.000 A 
ATOM      3  C   UNL     1       6.828   4.364  13.621  0.00  0.00    +0.000 A 
ATOM      4  C   UNL     1       5.490   3.999  13.588  0.00  0.00    +0.000 A 
ATOM      5  C   UNL     1       4.713   4.093  14.747  0.00  0.00    +0.000 A 
ATOM      6  C   UNL     1       5.241   4.532  15.987  0.00  0.00    +0.000 A 
ENDROOT
BRANCH   6   7
ATOM      7  C   UNL     1       4.330   4.579  17.166  0.00  0.00    +0.000 A 
ATOM      8  C   UNL     1       3.679   5.774  17.534  0.00  0.00    +0.000 A 
ATOM      9  C   UNL     1       2.813   5.842  18.634  0.00  0.00    +0.000 A 
ATOM     10  C   UNL     1       2.544   4.703  19.396  0.00  0.00    +0.000 A 
ATOM     11  C   UNL     1       3.193   3.509  19.057  0.00  0.00    +0.000 A 
ATOM     12  C   UNL     1       4.089   3.458  17.980  0.00  0.00    +0.000 A 
BRANCH  10  13
ATOM     13  C   UNL     1       1.565   4.737  20.544  0.00  0.00    +0.000 C 
ATOM     14  F   UNL     1       1.206   5.998  20.917  0.00  0.00    +0.000 F 
ATOM     15  F   UNL     1       0.403   4.088  20.259  0.00  0.00    +0.000 F 
ATOM     16  F   UNL     1       2.057   4.145  21.667  0.00  0.00    +0.000 F 
ENDBRANCH  10  13
ENDBRANCH   6   7
BRANCH   1  18
ATOM     17  O   UNL     1       7.831   4.428  17.971  0.00  0.00    +0.000 OA
ATOM     18  C   UNL     1       7.354   5.280  17.235  0.00  0.00    +0.000 C 
ATOM     19  N   UNL     1       7.464   6.632  17.471  0.00  0.00    +0.000 N 
ATOM     20  H   UNL     1       6.973   7.298  16.892  0.00  0.00    +0.000 HD
BRANCH  19  21
ATOM     21  C   UNL     1       8.126   7.148  18.652  0.00  0.00    +0.000 C 
BRANCH  21  22
ATOM     22  C   UNL     1       8.409   8.591  18.458  0.00  0.00    +0.000 A 
ATOM     23  C   UNL     1       7.987   9.519  17.527  0.00  0.00    +0.000 A 
ATOM     24  C   UNL     1       8.570  10.753  17.901  0.00  0.00    +0.000 A 
ATOM     25  C   UNL     1       9.315  10.500  19.028  0.00  0.00    +0.000 A 
ATOM     26  O   UNL     1       9.231   9.188  19.371  0.00  0.00    +0.000 OA
ENDBRANCH  21  22
ENDBRANCH  19  21
ENDBRANCH   1  18
TORSDOF 5
ENDMDL
MODEL 6
REMARK VINA RESULT:      -8.0      0.933      1.207
REMARK  Name = 
REMARK  5 active torsions:
REMARK  status: ('A' for Active; 'I' for Inactive)
REMARK    1  A    between atoms: C_2  and  C_10
REMARK    2  A    between atoms: N_3  and  C_4
REMARK    3  A    between atoms: C_4  and  C_5
REMARK    4  A    between atoms: C_15  and  C_16
REMARK    5  A    between atoms: C_19  and  C_20
REMARK                            x       y       z     vdW  Elec       q    Type
REMARK                         _______ _______ _______ _____ _____    ______ ____
ROOT
ATOM      1  C   UNL     1       5.308   4.537  17.047  0.00  0.00    +0.000 A 
ATOM      2  C   UNL     1       6.191   4.030  16.068  0.00  0.00    +0.000 A 
ATOM      3  C   UNL     1       6.494   4.766  14.926  0.00  0.00    +0.000 A 
ATOM      4  C   UNL     1       5.922   6.017  14.749  0.00  0.00    +0.000 A 
ATOM      5  C   UNL     1       5.058   6.534  15.719  0.00  0.00    +0.000 A 
ATOM      6  C   UNL     1       4.713   5.816  16.892  0.00  0.00    +0.000 A 
ENDROOT
BRANCH   6   7
ATOM      7  C   UNL     1       3.769   6.452  17.856  0.00  0.00    +0.000 A 
ATOM      8  C   UNL     1       3.440   5.822  19.074  0.00  0.00    +0.000 A 
ATOM      9  C   UNL     1       2.561   6.403  19.998  0.00  0.00    +0.000 A 
ATOM     10  C   UNL     1       1.996   7.656  19.749  0.00  0.00    +0.000 A 
ATOM     11  C   UNL     1       2.297   8.291  18.538  0.00  0.00    +0.000 A 
ATOM     12  C   UNL     1       3.146   7.686  17.600  0.00  0.00    +0.000 A 
BRANCH  10  13
ATOM     13  C   UNL     1       1.099   8.329  20.759  0.00  0.00    +0.000 C 
ATOM     14  F   UNL     1       0.411   9.392  20.255  0.00  0.00    +0.000 F 
ATOM     15  F   UNL     1       0.160   7.485  21.268  0.00  0.00    +0.000 F 
ATOM     16  F   UNL     1       1.789   8.810  21.830  0.00  0.00    +0.000 F 
ENDBRANCH  10  13
ENDBRANCH   6   7
BRANCH   1  18
ATOM     17  O   UNL     1       5.526   3.711  19.256  0.00  0.00    +0.000 OA
ATOM     18  C   UNL     1       4.973   3.608  18.170  0.00  0.00    +0.000 C 
ATOM     19  N   UNL     1       4.011   2.661  17.896  0.00  0.00    +0.000 N 
ATOM     20  H   UNL     1       3.652   2.546  16.960  0.00  0.00    +0.000 HD
BRANCH  19  21
ATOM     21  C   UNL     1       3.613   1.674  18.880  0.00  0.00    +0.000 C 
BRANCH  21  22
ATOM     22  C   UNL     1       2.635   2.287  19.812  0.00  0.00    +0.000 A 
ATOM     23  C   UNL     1       1.312   2.661  19.680  0.00  0.00    +0.000 A 
ATOM     24  C   UNL     1       0.907   3.148  20.946  0.00  0.00    +0.000 A 
ATOM     25  C   UNL     1       2.006   3.047  21.765  0.00  0.00    +0.000 A 
ATOM     26  O   UNL     1       3.063   2.533  21.085  0.00  0.00    +0.000 OA
ENDBRANCH  21  22
ENDBRANCH  19  21
ENDBRANCH   1  18
TORSDOF 5
ENDMDL
MODEL 7
REMARK VINA RESULT:      -7.9      2.201      5.217
REMARK  Name = 
REMARK  5 active torsions:
REMARK  status: ('A' for Active; 'I' for Inactive)
REMARK    1  A    between atoms: C_2  and  C_10
REMARK    2  A    between atoms: N_3  and  C_4
REMARK    3  A    between atoms: C_4  and  C_5
REMARK    4  A    between atoms: C_15  and  C_16
REMARK    5  A    between atoms: C_19  and  C_20
REMARK                            x       y       z     vdW  Elec       q    Type
REMARK                         _______ _______ _______ _____ _____    ______ ____
ROOT
ATOM      1  C   UNL     1       3.531   4.571  19.590  0.00  0.00    +0.000 A 
ATOM      2  C   UNL     1       3.689   3.207  19.922  0.00  0.00    +0.000 A 
ATOM      3  C   UNL     1       2.678   2.506  20.573  0.00  0.00    +0.000 A 
ATOM      4  C   UNL     1       1.498   3.157  20.900  0.00  0.00    +0.000 A 
ATOM      5  C   UNL     1       1.327   4.503  20.563  0.00  0.00    +0.000 A 
ATOM      6  C   UNL     1       2.332   5.259  19.909  0.00  0.00    +0.000 A 
ENDROOT
BRANCH   6   7
ATOM      7  C   UNL     1       2.054   6.693  19.609  0.00  0.00    +0.000 A 
ATOM      8  C   UNL     1       1.608   7.573  20.616  0.00  0.00    +0.000 A 
ATOM      9  C   UNL     1       1.346   8.926  20.360  0.00  0.00    +0.000 A 
ATOM     10  C   UNL     1       1.548   9.458  19.084  0.00  0.00    +0.000 A 
ATOM     11  C   UNL     1       1.974   8.597  18.065  0.00  0.00    +0.000 A 
ATOM     12  C   UNL     1       2.196   7.236  18.319  0.00  0.00    +0.000 A 
BRANCH  10  13
ATOM     13  C   UNL     1       1.335  10.925  18.801  0.00  0.00    +0.000 C 
ATOM     14  F   UNL     1       2.234  11.447  17.919  0.00  0.00    +0.000 F 
ATOM     15  F   UNL     1       0.106  11.183  18.275  0.00  0.00    +0.000 F 
ATOM     16  F   UNL     1       1.429  11.692  19.922  0.00  0.00    +0.000 F 
ENDBRANCH  10  13
ENDBRANCH   6   7
BRANCH   1  18
ATOM     17  O   UNL     1       5.671   5.582  19.696  0.00  0.00    +0.000 OA
ATOM     18  C   UNL     1       4.729   5.241  18.995  0.00  0.00    +0.000 C 
ATOM     19  N   UNL     1       4.693   5.428  17.631  0.00  0.00    +0.000 N 
ATOM     20  H   UNL     1       3.857   5.222  17.104  0.00  0.00    +0.000 HD
BRANCH  19  21
ATOM     21  C   UNL     1       5.770   6.094  16.925  0.00  0.00    +0.000 C 
BRANCH  21  22
ATOM     22  C   UNL     1       6.097   5.322  15.702  0.00  0.00    +0.000 A 
ATOM     23  C   UNL     1       5.437   4.328  15.007  0.00  0.00    +0.000 A 
ATOM     24  C   UNL     1       6.242   4.023  13.884  0.00  0.00    +0.000 A 
ATOM     25  C   UNL     1       7.343   4.842  13.968  0.00  0.00    +0.000 A 
ATOM     26  O   UNL     1       7.270   5.629  15.072  0.00  0.00    +0.000 OA
ENDBRANCH  21  22
ENDBRANCH  19  21
ENDBRANCH   1  18
TORSDOF 5
ENDMDL
MODEL 8
REMARK VINA RESULT:      -7.9      0.917      1.508
REMARK  Name = 
REMARK  5 active torsions:
REMARK  status: ('A' for Active; 'I' for Inactive)
REMARK    1  A    between atoms: C_2  and  C_10
REMARK    2  A    between atoms: N_3  and  C_4
REMARK    3  A    between atoms: C_4  and  C_5
REMARK    4  A    between atoms: C_15  and  C_16
REMARK    5  A    between atoms: C_19  and  C_20
REMARK                            x       y       z     vdW  Elec       q    Type
REMARK                         _______ _______ _______ _____ _____    ______ ____
ROOT
ATOM      1  C   UNL     1       5.265   4.492  16.967  0.00  0.00    +0.000 A 
ATOM      2  C   UNL     1       6.107   3.977  15.957  0.00  0.00    +0.000 A 
ATOM      3  C   UNL     1       6.394   4.721  14.816  0.00  0.00    +0.000 A 
ATOM      4  C   UNL     1       5.847   5.987  14.670  0.00  0.00    +0.000 A 
ATOM      5  C   UNL     1       5.024   6.510  15.672  0.00  0.00    +0.000 A 
ATOM      6  C   UNL     1       4.696   5.786  16.846  0.00  0.00    +0.000 A 
ENDROOT
BRANCH   6   7
ATOM      7  C   UNL     1       3.796   6.430  17.845  0.00  0.00    +0.000 A 
ATOM      8  C   UNL     1       3.195   7.678  17.584  0.00  0.00    +0.000 A 
ATOM      9  C   UNL     1       2.341   8.300  18.505  0.00  0.00    +0.000 A 
ATOM     10  C   UNL     1       2.033   7.680  19.718  0.00  0.00    +0.000 A 
ATOM     11  C   UNL     1       2.633   6.447  20.004  0.00  0.00    +0.000 A 
ATOM     12  C   UNL     1       3.517   5.850  19.096  0.00  0.00    +0.000 A 
BRANCH  10  13
ATOM     13  C   UNL     1       1.066   8.300  20.696  0.00  0.00    +0.000 C 
ATOM     14  F   UNL     1       0.182   7.410  21.229  0.00  0.00    +0.000 F 
ATOM     15  F   UNL     1       1.693   8.881  21.755  0.00  0.00    +0.000 F 
ATOM     16  F   UNL     1       0.307   9.279  20.130  0.00  0.00    +0.000 F 
ENDBRANCH  10  13
ENDBRANCH   6   7
BRANCH   1  18
ATOM     17  O   UNL     1       5.533   3.627  19.156  0.00  0.00    +0.000 OA
ATOM     18  C   UNL     1       4.942   3.555  18.088  0.00  0.00    +0.000 C 
ATOM     19  N   UNL     1       3.945   2.639  17.833  0.00  0.00    +0.000 N 
ATOM     20  H   UNL     1       3.552   2.549  16.908  0.00  0.00    +0.000 HD
BRANCH  19  21
ATOM     21  C   UNL     1       3.551   1.650  18.816  0.00  0.00    +0.000 C 
BRANCH  21  22
ATOM     22  C   UNL     1       2.620   2.275  19.787  0.00  0.00    +0.000 A 
ATOM     23  C   UNL     1       1.298   2.664  19.710  0.00  0.00    +0.000 A 
ATOM     24  C   UNL     1       0.951   3.157  20.990  0.00  0.00    +0.000 A 
ATOM     25  C   UNL     1       2.083   3.046  21.763  0.00  0.00    +0.000 A 
ATOM     26  O   UNL     1       3.105   2.519  21.040  0.00  0.00    +0.000 OA
ENDBRANCH  21  22
ENDBRANCH  19  21
ENDBRANCH   1  18
TORSDOF 5
ENDMDL
MODEL 9
REMARK VINA RESULT:      -7.8      1.147      1.705
REMARK  Name = 
REMARK  5 active torsions:
REMARK  status: ('A' for Active; 'I' for Inactive)
REMARK    1  A    between atoms: C_2  and  C_10
REMARK    2  A    between atoms: N_3  and  C_4
REMARK    3  A    between atoms: C_4  and  C_5
REMARK    4  A    between atoms: C_15  and  C_16
REMARK    5  A    between atoms: C_19  and  C_20
REMARK                            x       y       z     vdW  Elec       q    Type
REMARK                         _______ _______ _______ _____ _____    ______ ____
ROOT
ATOM      1  C   UNL     1       5.469   4.778  17.254  0.00  0.00    +0.000 A 
ATOM      2  C   UNL     1       6.338   4.192  16.307  0.00  0.00    +0.000 A 
ATOM      3  C   UNL     1       6.467   4.725  15.027  0.00  0.00    +0.000 A 
ATOM      4  C   UNL     1       5.733   5.848  14.678  0.00  0.00    +0.000 A 
ATOM      5  C   UNL     1       4.882   6.444  15.613  0.00  0.00    +0.000 A 
ATOM      6  C   UNL     1       4.710   5.931  16.924  0.00  0.00    +0.000 A 
ENDROOT
BRANCH   6   7
ATOM      7  C   UNL     1       3.765   6.633  17.839  0.00  0.00    +0.000 A 
ATOM      8  C   UNL     1       3.307   7.935  17.553  0.00  0.00    +0.000 A 
ATOM      9  C   UNL     1       2.414   8.613  18.394  0.00  0.00    +0.000 A 
ATOM     10  C   UNL     1       1.922   7.997  19.547  0.00  0.00    +0.000 A 
ATOM     11  C   UNL     1       2.377   6.711  19.859  0.00  0.00    +0.000 A 
ATOM     12  C   UNL     1       3.301   6.055  19.034  0.00  0.00    +0.000 A 
BRANCH  10  13
ATOM     13  C   UNL     1       0.909   8.682  20.432  0.00  0.00    +0.000 C 
ATOM     14  F   UNL     1       1.462   9.555  21.321  0.00  0.00    +0.000 F 
ATOM     15  F   UNL     1      -0.004   9.401  19.722  0.00  0.00    +0.000 F 
ATOM     16  F   UNL     1       0.189   7.801  21.180  0.00  0.00    +0.000 F 
ENDBRANCH  10  13
ENDBRANCH   6   7
BRANCH   1  18
ATOM     17  O   UNL     1       5.907   4.445  19.558  0.00  0.00    +0.000 OA
ATOM     18  C   UNL     1       5.332   4.050  18.554  0.00  0.00    +0.000 C 
ATOM     19  N   UNL     1       4.520   2.938  18.533  0.00  0.00    +0.000 N 
ATOM     20  H   UNL     1       4.144   2.590  17.663  0.00  0.00    +0.000 HD
BRANCH  19  21
ATOM     21  C   UNL     1       4.322   2.118  19.711  0.00  0.00    +0.000 C 
BRANCH  21  22
ATOM     22  C   UNL     1       3.021   2.467  20.332  0.00  0.00    +0.000 A 
ATOM     23  C   UNL     1       2.605   2.601  21.641  0.00  0.00    +0.000 A 
ATOM     24  C   UNL     1       1.249   3.000  21.592  0.00  0.00    +0.000 A 
ATOM     25  C   UNL     1       0.921   3.078  20.259  0.00  0.00    +0.000 A 
ATOM     26  O   UNL     1       1.987   2.748  19.484  0.00  0.00    +0.000 OA
ENDBRANCH  21  22
ENDBRANCH  19  21
ENDBRANCH   1  18
TORSDOF 5
ENDMDL
