MODEL 1
REMARK VINA RESULT:      -7.8      0.000      0.000
REMARK  Name = 
REMARK  6 active torsions:
REMARK  status: ('A' for Active; 'I' for Inactive)
REMARK    1  A    between atoms: C_1  and  O_2
REMARK    2  A    between atoms: O_2  and  C_3
REMARK    3  A    between atoms: C_6  and  C_7
REMARK    4  A    between atoms: C_15  and  C_16
REMARK    5  A    between atoms: C_16  and  C_18
REMARK    6  A    between atoms: C_24  and  C_26
REMARK                            x       y       z     vdW  Elec       q    Type
REMARK                         _______ _______ _______ _____ _____    ______ ____
ROOT
ATOM      1  C   UNL     1       0.733  11.595  20.209  0.00  0.00    +0.000 C 
ATOM      2  O   UNL     1       1.525  11.887  21.105  0.00  0.00    +0.000 OA
ENDROOT
BRANCH   1  10
ATOM      3  C   UNL     1      -1.645  11.662  22.772  0.00  0.00    +0.000 A 
ATOM      4  C   UNL     1      -2.820  11.959  23.469  0.00  0.00    +0.000 A 
ATOM      5  N   UNL     1      -3.946  12.472  22.938  0.00  0.00    +0.000 NA
ATOM      6  C   UNL     1      -3.986  12.708  21.614  0.00  0.00    +0.000 A 
ATOM      7  C   UNL     1      -2.848  12.464  20.841  0.00  0.00    +0.000 A 
ATOM      8  N   UNL     1      -2.646  12.656  19.494  0.00  0.00    +0.000 N 
ATOM      9  C   UNL     1      -1.372  12.338  19.154  0.00  0.00    +0.000 A 
ATOM     10  C   UNL     1      -0.690  11.939  20.292  0.00  0.00    +0.000 A 
ATOM     11  C   UNL     1      -1.644  11.970  21.382  0.00  0.00    +0.000 A 
ATOM     12  H   UNL     1      -3.357  12.990  18.854  0.00  0.00    +0.000 HD
BRANCH   6  13
ATOM     13  C   UNL     1      -5.206  13.321  21.116  0.00  0.00    +0.000 A 
ATOM     14  C   UNL     1      -5.430  14.661  20.844  0.00  0.00    +0.000 A 
ATOM     15  N   UNL     1      -6.683  14.984  20.359  0.00  0.00    +0.000 NA
ATOM     16  C   UNL     1      -7.413  13.897  20.303  0.00  0.00    +0.000 A 
ATOM     17  S   UNL     1      -6.655  12.449  20.816  0.00  0.00    +0.000 S 
ENDBRANCH   6  13
BRANCH   3  19
ATOM     18  C   UNL     1      -0.421   9.694  23.277  0.00  0.00    +0.000 C 
ATOM     19  O   UNL     1      -0.536  11.115  23.358  0.00  0.00    +0.000 OA
ENDBRANCH   3  19
ENDBRANCH   1  10
BRANCH   1  20
ATOM     20  C   UNL     1       1.343  10.926  18.994  0.00  0.00    +0.000 C 
ATOM     21  O   UNL     1       1.540  11.601  17.990  0.00  0.00    +0.000 OA
ATOM     22  N   UNL     1       1.609   9.558  19.103  0.00  0.00    +0.000 N 
ATOM     23  C   UNL     1       1.426   8.799  20.352  0.00  0.00    +0.000 C 
ATOM     24  C   UNL     1       1.261   7.287  20.113  0.00  0.00    +0.000 C 
ATOM     25  N   UNL     1       2.261   6.785  19.165  0.00  0.00    +0.000 N 
ATOM     26  C   UNL     1       3.075   5.719  19.539  0.00  0.00    +0.000 C 
ATOM     27  O   UNL     1       2.913   5.109  20.595  0.00  0.00    +0.000 OA
ATOM     28  C   UNL     1       2.233   7.496  17.880  0.00  0.00    +0.000 C 
ATOM     29  C   UNL     1       2.524   8.977  18.124  0.00  0.00    +0.000 C 
BRANCH  26  30
ATOM     30  C   UNL     1       4.183   5.261  18.655  0.00  0.00    +0.000 A 
ATOM     31  C   UNL     1       5.528   5.522  18.937  0.00  0.00    +0.000 A 
ATOM     32  C   UNL     1       6.524   5.139  18.039  0.00  0.00    +0.000 A 
ATOM     33  C   UNL     1       6.189   4.416  16.896  0.00  0.00    +0.000 A 
ATOM     34  C   UNL     1       4.861   4.062  16.659  0.00  0.00    +0.000 A 
ATOM     35  C   UNL     1       3.858   4.487  17.534  0.00  0.00    +0.000 A 
ENDBRANCH  26  30
ENDBRANCH   1  20
TORSDOF 5
ENDMDL
MODEL 2
REMARK VINA RESULT:      -7.5      1.380      1.433
REMARK  Name = 
REMARK  6 active torsions:
REMARK  status: ('A' for Active; 'I' for Inactive)
REMARK    1  A    between atoms: C_1  and  O_2
REMARK    2  A    between atoms: O_2  and  C_3
REMARK    3  A    between atoms: C_6  and  C_7
REMARK    4  A    between atoms: C_15  and  C_16
REMARK    5  A    between atoms: C_16  and  C_18
REMARK    6  A    between atoms: C_24  and  C_26
REMARK                            x       y       z     vdW  Elec       q    Type
REMARK                         _______ _______ _______ _____ _____    ______ ____
ROOT
ATOM      1  C   UNL     1       0.926  12.748  20.354  0.00  0.00    +0.000 C 
ATOM      2  O   UNL     1       1.812  13.043  21.156  0.00  0.00    +0.000 OA
ENDROOT
BRANCH   1  10
ATOM      3  C   UNL     1      -1.385  11.719  22.769  0.00  0.00    +0.000 A 
ATOM      4  C   UNL     1      -2.536  11.694  23.561  0.00  0.00    +0.000 A 
ATOM      5  N   UNL     1      -3.665  12.395  23.339  0.00  0.00    +0.000 NA
ATOM      6  C   UNL     1      -3.733  13.180  22.249  0.00  0.00    +0.000 A 
ATOM      7  C   UNL     1      -2.619  13.285  21.411  0.00  0.00    +0.000 A 
ATOM      8  N   UNL     1      -2.447  14.039  20.274  0.00  0.00    +0.000 N 
ATOM      9  C   UNL     1      -1.189  13.889  19.790  0.00  0.00    +0.000 A 
ATOM     10  C   UNL     1      -0.487  13.033  20.622  0.00  0.00    +0.000 A 
ATOM     11  C   UNL     1      -1.412  12.597  21.648  0.00  0.00    +0.000 A 
ATOM     12  H   UNL     1      -3.167  14.622  19.863  0.00  0.00    +0.000 HD
BRANCH   6  13
ATOM     13  C   UNL     1      -4.951  13.958  22.103  0.00  0.00    +0.000 A 
ATOM     14  C   UNL     1      -6.188  13.518  21.659  0.00  0.00    +0.000 A 
ATOM     15  N   UNL     1      -7.196  14.462  21.627  0.00  0.00    +0.000 NA
ATOM     16  C   UNL     1      -6.710  15.619  22.008  0.00  0.00    +0.000 A 
ATOM     17  S   UNL     1      -5.048  15.642  22.422  0.00  0.00    +0.000 S 
ENDBRANCH   6  13
BRANCH   3  19
ATOM     18  C   UNL     1      -0.505   9.588  23.328  0.00  0.00    +0.000 C 
ATOM     19  O   UNL     1      -0.273  10.965  23.026  0.00  0.00    +0.000 OA
ENDBRANCH   3  19
ENDBRANCH   1  10
BRANCH   1  20
ATOM     20  C   UNL     1       1.406  12.141  19.052  0.00  0.00    +0.000 C 
ATOM     21  O   UNL     1       1.621  12.886  18.102  0.00  0.00    +0.000 OA
ATOM     22  N   UNL     1       1.536  10.750  19.022  0.00  0.00    +0.000 N 
ATOM     23  C   UNL     1       1.337   9.897  20.207  0.00  0.00    +0.000 C 
ATOM     24  C   UNL     1       1.007   8.438  19.844  0.00  0.00    +0.000 C 
ATOM     25  N   UNL     1       1.904   7.933  18.799  0.00  0.00    +0.000 N 
ATOM     26  C   UNL     1       2.623   6.762  19.029  0.00  0.00    +0.000 C 
ATOM     27  O   UNL     1       2.450   6.074  20.034  0.00  0.00    +0.000 OA
ATOM     28  C   UNL     1       1.887   8.761  17.586  0.00  0.00    +0.000 C 
ATOM     29  C   UNL     1       2.338  10.177  17.945  0.00  0.00    +0.000 C 
BRANCH  26  30
ATOM     30  C   UNL     1       3.633   6.285  18.045  0.00  0.00    +0.000 A 
ATOM     31  C   UNL     1       4.703   7.079  17.620  0.00  0.00    +0.000 A 
ATOM     32  C   UNL     1       5.580   6.615  16.639  0.00  0.00    +0.000 A 
ATOM     33  C   UNL     1       5.444   5.320  16.141  0.00  0.00    +0.000 A 
ATOM     34  C   UNL     1       4.443   4.485  16.636  0.00  0.00    +0.000 A 
ATOM     35  C   UNL     1       3.536   4.966  17.583  0.00  0.00    +0.000 A 
ENDBRANCH  26  30
ENDBRANCH   1  20
TORSDOF 5
ENDMDL
MODEL 3
REMARK VINA RESULT:      -7.4      3.401      9.780
REMARK  Name = 
REMARK  6 active torsions:
REMARK  status: ('A' for Active; 'I' for Inactive)
REMARK    1  A    between atoms: C_1  and  O_2
REMARK    2  A    between atoms: O_2  and  C_3
REMARK    3  A    between atoms: C_6  and  C_7
REMARK    4  A    between atoms: C_15  and  C_16
REMARK    5  A    between atoms: C_16  and  C_18
REMARK    6  A    between atoms: C_24  and  C_26
REMARK                            x       y       z     vdW  Elec       q    Type
REMARK                         _______ _______ _______ _____ _____    ______ ____
ROOT
ATOM      1  C   UNL     1       1.707   9.958  18.135  0.00  0.00    +0.000 C 
ATOM      2  O   UNL     1       2.501  10.872  17.913  0.00  0.00    +0.000 OA
ENDROOT
BRANCH   1  10
ATOM      3  C   UNL     1       1.436   7.586  20.690  0.00  0.00    +0.000 A 
ATOM      4  C   UNL     1       1.446   6.351  21.345  0.00  0.00    +0.000 A 
ATOM      5  N   UNL     1       1.971   5.206  20.867  0.00  0.00    +0.000 NA
ATOM      6  C   UNL     1       2.571   5.225  19.664  0.00  0.00    +0.000 A 
ATOM      7  C   UNL     1       2.588   6.412  18.926  0.00  0.00    +0.000 A 
ATOM      8  N   UNL     1       3.108   6.660  17.677  0.00  0.00    +0.000 N 
ATOM      9  C   UNL     1       2.865   7.941  17.306  0.00  0.00    +0.000 A 
ATOM     10  C   UNL     1       2.152   8.572  18.312  0.00  0.00    +0.000 A 
ATOM     11  C   UNL     1       2.007   7.610  19.385  0.00  0.00    +0.000 A 
ATOM     12  H   UNL     1       3.603   5.973  17.120  0.00  0.00    +0.000 HD
BRANCH   6  13
ATOM     13  C   UNL     1       3.059   3.945  19.178  0.00  0.00    +0.000 A 
ATOM     14  C   UNL     1       4.151   3.227  19.634  0.00  0.00    +0.000 A 
ATOM     15  N   UNL     1       4.395   2.020  19.007  0.00  0.00    +0.000 NA
ATOM     16  C   UNL     1       3.511   1.848  18.054  0.00  0.00    +0.000 A 
ATOM     17  S   UNL     1       2.356   3.099  17.859  0.00  0.00    +0.000 S 
ENDBRANCH   6  13
BRANCH   3  19
ATOM     18  C   UNL     1      -0.437   8.639  21.694  0.00  0.00    +0.000 C 
ATOM     19  O   UNL     1       0.912   8.727  21.234  0.00  0.00    +0.000 OA
ENDBRANCH   3  19
ENDBRANCH   1  10
BRANCH   1  20
ATOM     20  C   UNL     1       0.258  10.377  18.282  0.00  0.00    +0.000 C 
ATOM     21  O   UNL     1      -0.584   9.835  17.576  0.00  0.00    +0.000 OA
ATOM     22  N   UNL     1      -0.006  11.393  19.205  0.00  0.00    +0.000 N 
ATOM     23  C   UNL     1       1.025  11.969  20.087  0.00  0.00    +0.000 C 
ATOM     24  C   UNL     1       0.654  13.372  20.601  0.00  0.00    +0.000 C 
ATOM     25  N   UNL     1      -0.733  13.417  21.075  0.00  0.00    +0.000 N 
ATOM     26  C   UNL     1      -0.994  13.863  22.368  0.00  0.00    +0.000 C 
ATOM     27  O   UNL     1      -0.113  14.326  23.092  0.00  0.00    +0.000 OA
ATOM     28  C   UNL     1      -1.698  12.994  20.051  0.00  0.00    +0.000 C 
ATOM     29  C   UNL     1      -1.390  11.553  19.643  0.00  0.00    +0.000 C 
BRANCH  26  30
ATOM     30  C   UNL     1      -2.372  13.807  22.928  0.00  0.00    +0.000 A 
ATOM     31  C   UNL     1      -2.899  12.653  23.517  0.00  0.00    +0.000 A 
ATOM     32  C   UNL     1      -4.222  12.627  23.958  0.00  0.00    +0.000 A 
ATOM     33  C   UNL     1      -5.000  13.782  23.893  0.00  0.00    +0.000 A 
ATOM     34  C   UNL     1      -4.449  14.965  23.402  0.00  0.00    +0.000 A 
ATOM     35  C   UNL     1      -3.140  14.979  22.916  0.00  0.00    +0.000 A 
ENDBRANCH  26  30
ENDBRANCH   1  20
TORSDOF 5
ENDMDL
MODEL 4
REMARK VINA RESULT:      -7.4      2.188      3.533
REMARK  Name = 
REMARK  6 active torsions:
REMARK  status: ('A' for Active; 'I' for Inactive)
REMARK    1  A    between atoms: C_1  and  O_2
REMARK    2  A    between atoms: O_2  and  C_3
REMARK    3  A    between atoms: C_6  and  C_7
REMARK    4  A    between atoms: C_15  and  C_16
REMARK    5  A    between atoms: C_16  and  C_18
REMARK    6  A    between atoms: C_24  and  C_26
REMARK                            x       y       z     vdW  Elec       q    Type
REMARK                         _______ _______ _______ _____ _____    ______ ____
ROOT
ATOM      1  C   UNL     1      -0.038  11.510  19.757  0.00  0.00    +0.000 C 
ATOM      2  O   UNL     1       0.738  11.860  18.868  0.00  0.00    +0.000 OA
ENDROOT
BRANCH   1  10
ATOM      3  C   UNL     1      -2.951  10.816  17.950  0.00  0.00    +0.000 A 
ATOM      4  C   UNL     1      -4.306  10.752  17.614  0.00  0.00    +0.000 A 
ATOM      5  N   UNL     1      -5.302  11.437  18.208  0.00  0.00    +0.000 NA
ATOM      6  C   UNL     1      -4.995  12.289  19.202  0.00  0.00    +0.000 A 
ATOM      7  C   UNL     1      -3.667  12.400  19.623  0.00  0.00    +0.000 A 
ATOM      8  N   UNL     1      -3.127  13.171  20.626  0.00  0.00    +0.000 N 
ATOM      9  C   UNL     1      -1.795  12.941  20.737  0.00  0.00    +0.000 A 
ATOM     10  C   UNL     1      -1.424  11.985  19.806  0.00  0.00    +0.000 A 
ATOM     11  C   UNL     1      -2.614  11.661  19.046  0.00  0.00    +0.000 A 
ATOM     12  H   UNL     1      -3.660  13.817  21.197  0.00  0.00    +0.000 HD
BRANCH   6  13
ATOM     13  C   UNL     1      -6.120  12.947  19.844  0.00  0.00    +0.000 A 
ATOM     14  C   UNL     1      -6.857  14.019  19.368  0.00  0.00    +0.000 A 
ATOM     15  N   UNL     1      -7.896  14.451  20.171  0.00  0.00    +0.000 NA
ATOM     16  C   UNL     1      -7.917  13.731  21.266  0.00  0.00    +0.000 A 
ATOM     17  S   UNL     1      -6.717  12.515  21.396  0.00  0.00    +0.000 S 
ENDBRANCH   6  13
BRANCH   3  19
ATOM     18  C   UNL     1      -2.280   9.718  15.957  0.00  0.00    +0.000 C 
ATOM     19  O   UNL     1      -1.974  10.117  17.294  0.00  0.00    +0.000 OA
ENDBRANCH   3  19
ENDBRANCH   1  10
BRANCH   1  20
ATOM     20  C   UNL     1       0.518  10.505  20.745  0.00  0.00    +0.000 C 
ATOM     21  O   UNL     1       0.440  10.756  21.943  0.00  0.00    +0.000 OA
ATOM     22  N   UNL     1       1.117   9.364  20.204  0.00  0.00    +0.000 N 
ATOM     23  C   UNL     1       1.125   9.066  18.762  0.00  0.00    +0.000 C 
ATOM     24  C   UNL     1       2.253   8.098  18.359  0.00  0.00    +0.000 C 
ATOM     25  N   UNL     1       2.331   6.958  19.279  0.00  0.00    +0.000 N 
ATOM     26  C   UNL     1       2.268   5.666  18.764  0.00  0.00    +0.000 C 
ATOM     27  O   UNL     1       2.261   5.442  17.554  0.00  0.00    +0.000 OA
ATOM     28  C   UNL     1       2.507   7.368  20.678  0.00  0.00    +0.000 C 
ATOM     29  C   UNL     1       1.313   8.226  21.098  0.00  0.00    +0.000 C 
BRANCH  26  30
ATOM     30  C   UNL     1       2.220   4.487  19.672  0.00  0.00    +0.000 A 
ATOM     31  C   UNL     1       1.071   4.133  20.386  0.00  0.00    +0.000 A 
ATOM     32  C   UNL     1       1.098   3.066  21.283  0.00  0.00    +0.000 A 
ATOM     33  C   UNL     1       2.250   2.291  21.407  0.00  0.00    +0.000 A 
ATOM     34  C   UNL     1       3.368   2.574  20.623  0.00  0.00    +0.000 A 
ATOM     35  C   UNL     1       3.356   3.672  19.760  0.00  0.00    +0.000 A 
ENDBRANCH  26  30
ENDBRANCH   1  20
TORSDOF 5
ENDMDL
MODEL 5
REMARK VINA RESULT:      -7.4      4.073     10.141
REMARK  Name = 
REMARK  6 active torsions:
REMARK  status: ('A' for Active; 'I' for Inactive)
REMARK    1  A    between atoms: C_1  and  O_2
REMARK    2  A    between atoms: O_2  and  C_3
REMARK    3  A    between atoms: C_6  and  C_7
REMARK    4  A    between atoms: C_15  and  C_16
REMARK    5  A    between atoms: C_16  and  C_18
REMARK    6  A    between atoms: C_24  and  C_26
REMARK                            x       y       z     vdW  Elec       q    Type
REMARK                         _______ _______ _______ _____ _____    ______ ____
ROOT
ATOM      1  C   UNL     1       1.250   7.370  20.699  0.00  0.00    +0.000 C 
ATOM      2  O   UNL     1       0.200   6.764  20.910  0.00  0.00    +0.000 OA
ENDROOT
BRANCH   1  10
ATOM      3  C   UNL     1       2.899   4.304  20.369  0.00  0.00    +0.000 A 
ATOM      4  C   UNL     1       3.660   3.274  19.809  0.00  0.00    +0.000 A 
ATOM      5  N   UNL     1       4.437   3.369  18.714  0.00  0.00    +0.000 NA
ATOM      6  C   UNL     1       4.533   4.558  18.092  0.00  0.00    +0.000 A 
ATOM      7  C   UNL     1       3.788   5.641  18.568  0.00  0.00    +0.000 A 
ATOM      8  N   UNL     1       3.702   6.925  18.083  0.00  0.00    +0.000 N 
ATOM      9  C   UNL     1       2.820   7.651  18.814  0.00  0.00    +0.000 A 
ATOM     10  C   UNL     1       2.282   6.842  19.802  0.00  0.00    +0.000 A 
ATOM     11  C   UNL     1       2.934   5.553  19.685  0.00  0.00    +0.000 A 
ATOM     12  H   UNL     1       4.230   7.271  17.290  0.00  0.00    +0.000 HD
BRANCH   6  13
ATOM     13  C   UNL     1       5.336   4.578  16.881  0.00  0.00    +0.000 A 
ATOM     14  C   UNL     1       4.902   4.419  15.575  0.00  0.00    +0.000 A 
ATOM     15  N   UNL     1       5.872   4.496  14.595  0.00  0.00    +0.000 NA
ATOM     16  C   UNL     1       7.040   4.674  15.164  0.00  0.00    +0.000 A 
ATOM     17  S   UNL     1       7.043   4.761  16.875  0.00  0.00    +0.000 S 
ENDBRANCH   6  13
BRANCH   3  19
ATOM     18  C   UNL     1       1.600   2.860  21.730  0.00  0.00    +0.000 C 
ATOM     19  O   UNL     1       2.146   4.160  21.502  0.00  0.00    +0.000 OA
ENDBRANCH   3  19
ENDBRANCH   1  10
BRANCH   1  20
ATOM     20  C   UNL     1       1.365   8.724  21.370  0.00  0.00    +0.000 C 
ATOM     21  O   UNL     1       1.962   8.800  22.438  0.00  0.00    +0.000 OA
ATOM     22  N   UNL     1       0.740   9.795  20.725  0.00  0.00    +0.000 N 
ATOM     23  C   UNL     1       0.094   9.675  19.406  0.00  0.00    +0.000 C 
ATOM     24  C   UNL     1      -0.950  10.777  19.151  0.00  0.00    +0.000 C 
ATOM     25  N   UNL     1      -0.433  12.098  19.526  0.00  0.00    +0.000 N 
ATOM     26  C   UNL     1      -0.448  13.124  18.584  0.00  0.00    +0.000 C 
ATOM     27  O   UNL     1      -0.980  12.995  17.483  0.00  0.00    +0.000 OA
ATOM     28  C   UNL     1       0.017  12.157  20.922  0.00  0.00    +0.000 C 
ATOM     29  C   UNL     1       1.141  11.140  21.126  0.00  0.00    +0.000 C 
BRANCH  26  30
ATOM     30  C   UNL     1       0.179  14.441  18.885  0.00  0.00    +0.000 A 
ATOM     31  C   UNL     1      -0.547  15.519  19.401  0.00  0.00    +0.000 A 
ATOM     32  C   UNL     1       0.068  16.756  19.594  0.00  0.00    +0.000 A 
ATOM     33  C   UNL     1       1.434  16.898  19.354  0.00  0.00    +0.000 A 
ATOM     34  C   UNL     1       2.186  15.801  18.938  0.00  0.00    +0.000 A 
ATOM     35  C   UNL     1       1.561  14.575  18.699  0.00  0.00    +0.000 A 
ENDBRANCH  26  30
ENDBRANCH   1  20
TORSDOF 5
ENDMDL
MODEL 6
REMARK VINA RESULT:      -7.4      2.277      3.609
REMARK  Name = 
REMARK  6 active torsions:
REMARK  status: ('A' for Active; 'I' for Inactive)
REMARK    1  A    between atoms: C_1  and  O_2
REMARK    2  A    between atoms: O_2  and  C_3
REMARK    3  A    between atoms: C_6  and  C_7
REMARK    4  A    between atoms: C_15  and  C_16
REMARK    5  A    between atoms: C_16  and  C_18
REMARK    6  A    between atoms: C_24  and  C_26
REMARK                            x       y       z     vdW  Elec       q    Type
REMARK                         _______ _______ _______ _____ _____    ______ ____
ROOT
ATOM      1  C   UNL     1      -0.109  11.440  19.494  0.00  0.00    +0.000 C 
ATOM      2  O   UNL     1       0.553  11.734  18.499  0.00  0.00    +0.000 OA
ENDROOT
BRANCH   1  10
ATOM      3  C   UNL     1      -3.082  11.165  17.673  0.00  0.00    +0.000 A 
ATOM      4  C   UNL     1      -4.446  11.189  17.371  0.00  0.00    +0.000 A 
ATOM      5  N   UNL     1      -5.412  11.755  18.119  0.00  0.00    +0.000 NA
ATOM      6  C   UNL     1      -5.062  12.386  19.254  0.00  0.00    +0.000 A 
ATOM      7  C   UNL     1      -3.721  12.392  19.648  0.00  0.00    +0.000 A 
ATOM      8  N   UNL     1      -3.139  12.938  20.769  0.00  0.00    +0.000 N 
ATOM      9  C   UNL     1      -1.810  12.671  20.792  0.00  0.00    +0.000 A 
ATOM     10  C   UNL     1      -1.484  11.916  19.678  0.00  0.00    +0.000 A 
ATOM     11  C   UNL     1      -2.700  11.768  18.905  0.00  0.00    +0.000 A 
ATOM     12  H   UNL     1      -3.644  13.464  21.473  0.00  0.00    +0.000 HD
BRANCH   6  13
ATOM     13  C   UNL     1      -6.157  12.919  20.047  0.00  0.00    +0.000 A 
ATOM     14  C   UNL     1      -6.877  12.274  21.038  0.00  0.00    +0.000 A 
ATOM     15  N   UNL     1      -7.866  13.014  21.656  0.00  0.00    +0.000 NA
ATOM     16  C   UNL     1      -7.916  14.203  21.105  0.00  0.00    +0.000 A 
ATOM     17  S   UNL     1      -6.801  14.498  19.839  0.00  0.00    +0.000 S 
ENDBRANCH   6  13
BRANCH   3  19
ATOM     18  C   UNL     1      -2.622   9.994  15.661  0.00  0.00    +0.000 C 
ATOM     19  O   UNL     1      -2.137  10.597  16.861  0.00  0.00    +0.000 OA
ENDBRANCH   3  19
ENDBRANCH   1  10
BRANCH   1  20
ATOM     20  C   UNL     1       0.569  10.500  20.470  0.00  0.00    +0.000 C 
ATOM     21  O   UNL     1       0.629  10.824  21.651  0.00  0.00    +0.000 OA
ATOM     22  N   UNL     1       1.113   9.330  19.933  0.00  0.00    +0.000 N 
ATOM     23  C   UNL     1       0.956   8.943  18.520  0.00  0.00    +0.000 C 
ATOM     24  C   UNL     1       2.040   7.956  18.048  0.00  0.00    +0.000 C 
ATOM     25  N   UNL     1       2.237   6.876  19.020  0.00  0.00    +0.000 N 
ATOM     26  C   UNL     1       2.128   5.554  18.596  0.00  0.00    +0.000 C 
ATOM     27  O   UNL     1       1.982   5.255  17.411  0.00  0.00    +0.000 OA
ATOM     28  C   UNL     1       2.570   7.372  20.362  0.00  0.00    +0.000 C 
ATOM     29  C   UNL     1       1.425   8.250  20.865  0.00  0.00    +0.000 C 
BRANCH  26  30
ATOM     30  C   UNL     1       2.200   4.433  19.574  0.00  0.00    +0.000 A 
ATOM     31  C   UNL     1       3.377   3.716  19.812  0.00  0.00    +0.000 A 
ATOM     32  C   UNL     1       3.374   2.625  20.681  0.00  0.00    +0.000 A 
ATOM     33  C   UNL     1       2.216   2.298  21.384  0.00  0.00    +0.000 A 
ATOM     34  C   UNL     1       1.065   3.071  21.229  0.00  0.00    +0.000 A 
ATOM     35  C   UNL     1       1.054   4.135  20.323  0.00  0.00    +0.000 A 
ENDBRANCH  26  30
ENDBRANCH   1  20
TORSDOF 5
ENDMDL
MODEL 7
REMARK VINA RESULT:      -7.3      3.905      5.443
REMARK  Name = 
REMARK  6 active torsions:
REMARK  status: ('A' for Active; 'I' for Inactive)
REMARK    1  A    between atoms: C_1  and  O_2
REMARK    2  A    between atoms: O_2  and  C_3
REMARK    3  A    between atoms: C_6  and  C_7
REMARK    4  A    between atoms: C_15  and  C_16
REMARK    5  A    between atoms: C_16  and  C_18
REMARK    6  A    between atoms: C_24  and  C_26
REMARK                            x       y       z     vdW  Elec       q    Type
REMARK                         _______ _______ _______ _____ _____    ______ ____
ROOT
ATOM      1  C   UNL     1       0.594  10.558  18.911  0.00  0.00    +0.000 C 
ATOM      2  O   UNL     1      -0.307  10.433  18.081  0.00  0.00    +0.000 OA
ENDROOT
BRANCH   1  10
ATOM      3  C   UNL     1       0.313  13.175  21.213  0.00  0.00    +0.000 A 
ATOM      4  C   UNL     1       0.636  14.316  21.953  0.00  0.00    +0.000 A 
ATOM      5  N   UNL     1       1.638  15.176  21.685  0.00  0.00    +0.000 NA
ATOM      6  C   UNL     1       2.399  14.960  20.598  0.00  0.00    +0.000 A 
ATOM      7  C   UNL     1       2.164  13.828  19.811  0.00  0.00    +0.000 A 
ATOM      8  N   UNL     1       2.825  13.390  18.687  0.00  0.00    +0.000 N 
ATOM      9  C   UNL     1       2.306  12.213  18.259  0.00  0.00    +0.000 A 
ATOM     10  C   UNL     1       1.286  11.834  19.117  0.00  0.00    +0.000 A 
ATOM     11  C   UNL     1       1.151  12.892  20.097  0.00  0.00    +0.000 A 
ATOM     12  H   UNL     1       3.592  13.886  18.248  0.00  0.00    +0.000 HD
BRANCH   6  13
ATOM     13  C   UNL     1       3.502  15.886  20.401  0.00  0.00    +0.000 A 
ATOM     14  C   UNL     1       3.448  17.168  19.881  0.00  0.00    +0.000 A 
ATOM     15  N   UNL     1       4.647  17.851  19.814  0.00  0.00    +0.000 NA
ATOM     16  C   UNL     1       5.608  17.071  20.246  0.00  0.00    +0.000 A 
ATOM     17  S   UNL     1       5.139  15.502  20.751  0.00  0.00    +0.000 S 
ENDBRANCH   6  13
BRANCH   3  19
ATOM     18  C   UNL     1      -1.194  12.388  22.866  0.00  0.00    +0.000 C 
ATOM     19  O   UNL     1      -0.735  12.349  21.515  0.00  0.00    +0.000 OA
ENDBRANCH   3  19
ENDBRANCH   1  10
BRANCH   1  20
ATOM     20  C   UNL     1       0.881   9.327  19.746  0.00  0.00    +0.000 C 
ATOM     21  O   UNL     1       0.318   9.208  20.828  0.00  0.00    +0.000 OA
ATOM     22  N   UNL     1       1.810   8.422  19.224  0.00  0.00    +0.000 N 
ATOM     23  C   UNL     1       2.410   8.565  17.886  0.00  0.00    +0.000 C 
ATOM     24  C   UNL     1       3.742   7.805  17.745  0.00  0.00    +0.000 C 
ATOM     25  N   UNL     1       3.641   6.448  18.291  0.00  0.00    +0.000 N 
ATOM     26  C   UNL     1       3.978   5.365  17.484  0.00  0.00    +0.000 C 
ATOM     27  O   UNL     1       4.465   5.510  16.363  0.00  0.00    +0.000 OA
ATOM     28  C   UNL     1       3.207   6.430  19.695  0.00  0.00    +0.000 C 
ATOM     29  C   UNL     1       1.826   7.078  19.796  0.00  0.00    +0.000 C 
BRANCH  26  30
ATOM     30  C   UNL     1       3.773   3.969  17.958  0.00  0.00    +0.000 A 
ATOM     31  C   UNL     1       4.536   3.403  18.985  0.00  0.00    +0.000 A 
ATOM     32  C   UNL     1       4.357   2.067  19.342  0.00  0.00    +0.000 A 
ATOM     33  C   UNL     1       3.355   1.312  18.735  0.00  0.00    +0.000 A 
ATOM     34  C   UNL     1       2.522   1.898  17.782  0.00  0.00    +0.000 A 
ATOM     35  C   UNL     1       2.732   3.223  17.391  0.00  0.00    +0.000 A 
ENDBRANCH  26  30
ENDBRANCH   1  20
TORSDOF 5
ENDMDL
MODEL 8
REMARK VINA RESULT:      -7.3      4.506      6.539
REMARK  Name = 
REMARK  6 active torsions:
REMARK  status: ('A' for Active; 'I' for Inactive)
REMARK    1  A    between atoms: C_1  and  O_2
REMARK    2  A    between atoms: O_2  and  C_3
REMARK    3  A    between atoms: C_6  and  C_7
REMARK    4  A    between atoms: C_15  and  C_16
REMARK    5  A    between atoms: C_16  and  C_18
REMARK    6  A    between atoms: C_24  and  C_26
REMARK                            x       y       z     vdW  Elec       q    Type
REMARK                         _______ _______ _______ _____ _____    ______ ____
ROOT
ATOM      1  C   UNL     1       0.511  11.913  19.093  0.00  0.00    +0.000 C 
ATOM      2  O   UNL     1      -0.485  12.013  18.378  0.00  0.00    +0.000 OA
ENDROOT
BRANCH   1  10
ATOM      3  C   UNL     1       1.886  14.229  21.323  0.00  0.00    +0.000 A 
ATOM      4  C   UNL     1       2.791  15.129  21.893  0.00  0.00    +0.000 A 
ATOM      5  N   UNL     1       3.868  15.661  21.283  0.00  0.00    +0.000 NA
ATOM      6  C   UNL     1       4.108  15.338  20.000  0.00  0.00    +0.000 A 
ATOM      7  C   UNL     1       3.268  14.425  19.356  0.00  0.00    +0.000 A 
ATOM      8  N   UNL     1       3.334  13.926  18.075  0.00  0.00    +0.000 N 
ATOM      9  C   UNL     1       2.347  13.019  17.868  0.00  0.00    +0.000 A 
ATOM     10  C   UNL     1       1.608  12.884  19.032  0.00  0.00    +0.000 A 
ATOM     11  C   UNL     1       2.162  13.821  19.987  0.00  0.00    +0.000 A 
ATOM     12  H   UNL     1       4.027  14.205  17.391  0.00  0.00    +0.000 HD
BRANCH   6  13
ATOM     13  C   UNL     1       5.319  15.893  19.421  0.00  0.00    +0.000 A 
ATOM     14  C   UNL     1       5.620  17.228  19.207  0.00  0.00    +0.000 A 
ATOM     15  N   UNL     1       6.857  17.495  18.651  0.00  0.00    +0.000 NA
ATOM     16  C   UNL     1       7.470  16.361  18.410  0.00  0.00    +0.000 A 
ATOM     17  S   UNL     1       6.617  14.936  18.831  0.00  0.00    +0.000 S 
ENDBRANCH   6  13
BRANCH   3  19
ATOM     18  C   UNL     1      -0.434  14.441  21.766  0.00  0.00    +0.000 C 
ATOM     19  O   UNL     1       0.791  13.740  21.981  0.00  0.00    +0.000 OA
ENDBRANCH   3  19
ENDBRANCH   1  10
BRANCH   1  20
ATOM     20  C   UNL     1       0.488  10.767  20.084  0.00  0.00    +0.000 C 
ATOM     21  O   UNL     1      -0.106  10.921  21.145  0.00  0.00    +0.000 OA
ATOM     22  N   UNL     1       1.186   9.612  19.718  0.00  0.00    +0.000 N 
ATOM     23  C   UNL     1       1.825   9.440  18.402  0.00  0.00    +0.000 C 
ATOM     24  C   UNL     1       2.942   8.381  18.414  0.00  0.00    +0.000 C 
ATOM     25  N   UNL     1       2.516   7.165  19.116  0.00  0.00    +0.000 N 
ATOM     26  C   UNL     1       2.602   5.939  18.461  0.00  0.00    +0.000 C 
ATOM     27  O   UNL     1       3.128   5.823  17.354  0.00  0.00    +0.000 OA
ATOM     28  C   UNL     1       2.067   7.429  20.489  0.00  0.00    +0.000 C 
ATOM     29  C   UNL     1       0.876   8.386  20.448  0.00  0.00    +0.000 C 
BRANCH  26  30
ATOM     30  C   UNL     1       2.067   4.701  19.091  0.00  0.00    +0.000 A 
ATOM     31  C   UNL     1       1.284   3.778  18.390  0.00  0.00    +0.000 A 
ATOM     32  C   UNL     1       0.741   2.672  19.044  0.00  0.00    +0.000 A 
ATOM     33  C   UNL     1       1.050   2.436  20.383  0.00  0.00    +0.000 A 
ATOM     34  C   UNL     1       1.913   3.296  21.061  0.00  0.00    +0.000 A 
ATOM     35  C   UNL     1       2.418   4.429  20.420  0.00  0.00    +0.000 A 
ENDBRANCH  26  30
ENDBRANCH   1  20
TORSDOF 5
ENDMDL
MODEL 9
REMARK VINA RESULT:      -7.3      3.390     10.513
REMARK  Name = 
REMARK  6 active torsions:
REMARK  status: ('A' for Active; 'I' for Inactive)
REMARK    1  A    between atoms: C_1  and  O_2
REMARK    2  A    between atoms: O_2  and  C_3
REMARK    3  A    between atoms: C_6  and  C_7
REMARK    4  A    between atoms: C_15  and  C_16
REMARK    5  A    between atoms: C_16  and  C_18
REMARK    6  A    between atoms: C_24  and  C_26
REMARK                            x       y       z     vdW  Elec       q    Type
REMARK                         _______ _______ _______ _____ _____    ______ ____
ROOT
ATOM      1  C   UNL     1       0.652  10.581  20.805  0.00  0.00    +0.000 C 
ATOM      2  O   UNL     1       1.334  11.415  21.400  0.00  0.00    +0.000 OA
ENDROOT
BRANCH   1  10
ATOM      3  C   UNL     1       2.057   8.846  18.113  0.00  0.00    +0.000 A 
ATOM      4  C   UNL     1       2.734   7.855  17.397  0.00  0.00    +0.000 A 
ATOM      5  N   UNL     1       3.055   6.629  17.853  0.00  0.00    +0.000 NA
ATOM      6  C   UNL     1       2.683   6.286  19.099  0.00  0.00    +0.000 A 
ATOM      7  C   UNL     1       2.022   7.223  19.898  0.00  0.00    +0.000 A 
ATOM      8  N   UNL     1       1.580   7.111  21.196  0.00  0.00    +0.000 N 
ATOM      9  C   UNL     1       1.033   8.280  21.613  0.00  0.00    +0.000 A 
ATOM     10  C   UNL     1       1.121   9.209  20.589  0.00  0.00    +0.000 A 
ATOM     11  C   UNL     1       1.715   8.526  19.458  0.00  0.00    +0.000 A 
ATOM     12  H   UNL     1       1.656   6.268  21.752  0.00  0.00    +0.000 HD
BRANCH   6  13
ATOM     13  C   UNL     1       3.117   4.975  19.553  0.00  0.00    +0.000 A 
ATOM     14  C   UNL     1       2.467   4.126  20.433  0.00  0.00    +0.000 A 
ATOM     15  N   UNL     1       3.089   2.920  20.690  0.00  0.00    +0.000 NA
ATOM     16  C   UNL     1       4.224   2.876  20.035  0.00  0.00    +0.000 A 
ATOM     17  S   UNL     1       4.604   4.252  19.088  0.00  0.00    +0.000 S 
ENDBRANCH   6  13
BRANCH   3  19
ATOM     18  C   UNL     1       2.633  11.135  17.884  0.00  0.00    +0.000 C 
ATOM     19  O   UNL     1       1.731  10.067  17.591  0.00  0.00    +0.000 OA
ENDBRANCH   3  19
ENDBRANCH   1  10
BRANCH   1  20
ATOM     20  C   UNL     1      -0.724  11.052  20.379  0.00  0.00    +0.000 C 
ATOM     21  O   UNL     1      -1.177  10.650  19.313  0.00  0.00    +0.000 OA
ATOM     22  N   UNL     1      -1.368  11.950  21.234  0.00  0.00    +0.000 N 
ATOM     23  C   UNL     1      -0.820  12.352  22.542  0.00  0.00    +0.000 C 
ATOM     24  C   UNL     1      -1.388  13.693  23.041  0.00  0.00    +0.000 C 
ATOM     25  N   UNL     1      -2.846  13.746  22.880  0.00  0.00    +0.000 N 
ATOM     26  C   UNL     1      -3.640  14.032  23.988  0.00  0.00    +0.000 C 
ATOM     27  O   UNL     1      -3.159  14.350  25.075  0.00  0.00    +0.000 OA
ATOM     28  C   UNL     1      -3.274  13.512  21.495  0.00  0.00    +0.000 C 
ATOM     29  C   UNL     1      -2.807  12.123  21.059  0.00  0.00    +0.000 C 
BRANCH  26  30
ATOM     30  C   UNL     1      -5.124  13.975  23.894  0.00  0.00    +0.000 A 
ATOM     31  C   UNL     1      -5.905  15.102  23.617  0.00  0.00    +0.000 A 
ATOM     32  C   UNL     1      -7.297  15.013  23.615  0.00  0.00    +0.000 A 
ATOM     33  C   UNL     1      -7.915  13.779  23.805  0.00  0.00    +0.000 A 
ATOM     34  C   UNL     1      -7.142  12.632  23.980  0.00  0.00    +0.000 A 
ATOM     35  C   UNL     1      -5.749  12.728  24.029  0.00  0.00    +0.000 A 
ENDBRANCH  26  30
ENDBRANCH   1  20
TORSDOF 5
ENDMDL
