MODEL 1
REMARK VINA RESULT:      -8.3      0.000      0.000
REMARK  Name = 
REMARK  13 active torsions:
REMARK  status: ('A' for Active; 'I' for Inactive)
REMARK    1  A    between atoms: C_1  and  C_2
REMARK    2  A    between atoms: C_2  and  C_3
REMARK    3  A    between atoms: C_3  and  C_4
REMARK    4  A    between atoms: C_4  and  C_5
REMARK    5  A    between atoms: C_5  and  C_6
REMARK    6  A    between atoms: C_6  and  C_7
REMARK    7  A    between atoms: C_8  and  C_9
REMARK    8  A    between atoms: N_11  and  C_12
REMARK    9  A    between atoms: C_12  and  C_13
REMARK   10  A    between atoms: C_13  and  C_14
REMARK   11  A    between atoms: C_17  and  N_18
REMARK   12  A    between atoms: N_18  and  C_19
REMARK   13  A    between atoms: N_18  and  C_20
REMARK                            x       y       z     vdW  Elec       q    Type
REMARK                         _______ _______ _______ _____ _____    ______ ____
ROOT
ATOM      1  C   UNL     1       4.965   4.502  17.472  0.00  0.00    +0.000 A 
ATOM      2  C   UNL     1       5.662   5.445  18.226  0.00  0.00    +0.000 A 
ATOM      3  N   UNL     1       4.944   5.621  19.386  0.00  0.00    +0.000 N 
ATOM      4  C   UNL     1       3.826   4.832  19.410  0.00  0.00    +0.000 A 
ATOM      5  C   UNL     1       2.852   4.681  20.405  0.00  0.00    +0.000 A 
ATOM      6  C   UNL     1       1.783   3.826  20.142  0.00  0.00    +0.000 A 
ATOM      7  C   UNL     1       1.696   3.162  18.920  0.00  0.00    +0.000 A 
ATOM      8 CL   UNL     1       0.342   2.131  18.612  0.00  0.00    +0.000 Cl
ATOM      9  C   UNL     1       2.680   3.305  17.942  0.00  0.00    +0.000 A 
ATOM     10  C   UNL     1       3.777   4.155  18.194  0.00  0.00    +0.000 A 
ATOM     11  H   UNL     1       5.197   6.267  20.120  0.00  0.00    +0.000 HD
ENDROOT
BRANCH   2  12
ATOM     12  C   UNL     1       6.890   6.168  17.941  0.00  0.00    +0.000 C 
ATOM     13  O   UNL     1       8.000   5.648  17.908  0.00  0.00    +0.000 OA
ATOM     14  N   UNL     1       6.697   7.521  17.722  0.00  0.00    +0.000 N 
ATOM     15  H   UNL     1       5.860   7.925  18.114  0.00  0.00    +0.000 HD
BRANCH  14  16
ATOM     16  C   UNL     1       7.820   8.417  17.483  0.00  0.00    +0.000 C 
BRANCH  16  17
ATOM     17  C   UNL     1       8.609   8.687  18.768  0.00  0.00    +0.000 C 
BRANCH  17  18
ATOM     18  C   UNL     1       9.065  10.117  18.884  0.00  0.00    +0.000 A 
ATOM     19  C   UNL     1       9.680  10.594  20.042  0.00  0.00    +0.000 A 
ATOM     20  C   UNL     1      10.071  11.941  20.146  0.00  0.00    +0.000 A 
ATOM     21  C   UNL     1       9.874  12.867  19.108  0.00  0.00    +0.000 A 
ATOM     22  C   UNL     1       9.258  12.355  17.954  0.00  0.00    +0.000 A 
ATOM     23  C   UNL     1       8.858  11.016  17.840  0.00  0.00    +0.000 A 
BRANCH  21  24
ATOM     24  N   UNL     1      10.211  14.210  19.241  0.00  0.00    +0.000 N 
ATOM     25  C   UNL     1      10.851  14.723  20.451  0.00  0.00    +0.000 C 
ATOM     26  C   UNL     1      10.338  15.099  18.086  0.00  0.00    +0.000 C 
ENDBRANCH  21  24
ENDBRANCH  17  18
ENDBRANCH  16  17
ENDBRANCH  14  16
ENDBRANCH   2  12
BRANCH   1  27
ATOM     27  C   UNL     1       5.392   3.885  16.169  0.00  0.00    +0.000 C 
BRANCH  27  28
ATOM     28  C   UNL     1       5.404   4.933  15.054  0.00  0.00    +0.000 C 
BRANCH  28  29
ATOM     29  C   UNL     1       6.424   4.619  13.965  0.00  0.00    +0.000 C 
BRANCH  29  30
ATOM     30  C   UNL     1       6.107   3.262  13.338  0.00  0.00    +0.000 C 
BRANCH  30  32
ATOM     31  C   UNL     1       4.388   3.227  11.511  0.00  0.00    +0.000 C 
ATOM     32  C   UNL     1       5.864   3.382  11.839  0.00  0.00    +0.000 C 
ENDBRANCH  30  32
ENDBRANCH  29  30
ENDBRANCH  28  29
ENDBRANCH  27  28
ENDBRANCH   1  27
TORSDOF 10
ENDMDL
MODEL 2
REMARK VINA RESULT:      -8.1      0.761      1.130
REMARK  Name = 
REMARK  13 active torsions:
REMARK  status: ('A' for Active; 'I' for Inactive)
REMARK    1  A    between atoms: C_1  and  C_2
REMARK    2  A    between atoms: C_2  and  C_3
REMARK    3  A    between atoms: C_3  and  C_4
REMARK    4  A    between atoms: C_4  and  C_5
REMARK    5  A    between atoms: C_5  and  C_6
REMARK    6  A    between atoms: C_6  and  C_7
REMARK    7  A    between atoms: C_8  and  C_9
REMARK    8  A    between atoms: N_11  and  C_12
REMARK    9  A    between atoms: C_12  and  C_13
REMARK   10  A    between atoms: C_13  and  C_14
REMARK   11  A    between atoms: C_17  and  N_18
REMARK   12  A    between atoms: N_18  and  C_19
REMARK   13  A    between atoms: N_18  and  C_20
REMARK                            x       y       z     vdW  Elec       q    Type
REMARK                         _______ _______ _______ _____ _____    ______ ____
ROOT
ATOM      1  C   UNL     1       5.087   4.730  16.995  0.00  0.00    +0.000 A 
ATOM      2  C   UNL     1       5.638   5.892  17.534  0.00  0.00    +0.000 A 
ATOM      3  N   UNL     1       4.844   6.239  18.602  0.00  0.00    +0.000 N 
ATOM      4  C   UNL     1       3.817   5.351  18.774  0.00  0.00    +0.000 A 
ATOM      5  C   UNL     1       2.813   5.315  19.749  0.00  0.00    +0.000 A 
ATOM      6  C   UNL     1       1.856   4.305  19.658  0.00  0.00    +0.000 A 
ATOM      7  C   UNL     1       1.907   3.378  18.619  0.00  0.00    +0.000 A 
ATOM      8 CL   UNL     1       0.688   2.155  18.517  0.00  0.00    +0.000 Cl
ATOM      9  C   UNL     1       2.921   3.412  17.663  0.00  0.00    +0.000 A 
ATOM     10  C   UNL     1       3.906   4.418  17.744  0.00  0.00    +0.000 A 
ATOM     11  H   UNL     1       4.987   7.057  19.176  0.00  0.00    +0.000 HD
ENDROOT
BRANCH   2  12
ATOM     12  C   UNL     1       6.796   6.670  17.125  0.00  0.00    +0.000 C 
ATOM     13  O   UNL     1       7.603   6.305  16.277  0.00  0.00    +0.000 OA
ATOM     14  N   UNL     1       6.921   7.871  17.802  0.00  0.00    +0.000 N 
ATOM     15  H   UNL     1       6.465   7.932  18.699  0.00  0.00    +0.000 HD
BRANCH  14  16
ATOM     16  C   UNL     1       8.056   8.755  17.570  0.00  0.00    +0.000 C 
BRANCH  16  17
ATOM     17  C   UNL     1       8.810   9.057  18.869  0.00  0.00    +0.000 C 
BRANCH  17  18
ATOM     18  C   UNL     1       9.279  10.485  18.953  0.00  0.00    +0.000 A 
ATOM     19  C   UNL     1       9.688  11.186  17.819  0.00  0.00    +0.000 A 
ATOM     20  C   UNL     1      10.153  12.509  17.919  0.00  0.00    +0.000 A 
ATOM     21  C   UNL     1      10.227  13.193  19.144  0.00  0.00    +0.000 A 
ATOM     22  C   UNL     1       9.803  12.463  20.267  0.00  0.00    +0.000 A 
ATOM     23  C   UNL     1       9.343  11.141  20.181  0.00  0.00    +0.000 A 
BRANCH  21  24
ATOM     24  N   UNL     1      10.743  14.481  19.243  0.00  0.00    +0.000 N 
ATOM     25  C   UNL     1      11.218  15.020  20.517  0.00  0.00    +0.000 C 
ATOM     26  C   UNL     1      11.225  15.219  18.076  0.00  0.00    +0.000 C 
ENDBRANCH  21  24
ENDBRANCH  17  18
ENDBRANCH  16  17
ENDBRANCH  14  16
ENDBRANCH   2  12
BRANCH   1  27
ATOM     27  C   UNL     1       5.647   3.890  15.880  0.00  0.00    +0.000 C 
BRANCH  27  28
ATOM     28  C   UNL     1       5.344   4.527  14.522  0.00  0.00    +0.000 C 
BRANCH  28  29
ATOM     29  C   UNL     1       6.160   3.911  13.391  0.00  0.00    +0.000 C 
BRANCH  29  30
ATOM     30  C   UNL     1       5.298   2.913  12.617  0.00  0.00    +0.000 C 
BRANCH  30  32
ATOM     31  C   UNL     1       3.517   3.248  10.883  0.00  0.00    +0.000 C 
ATOM     32  C   UNL     1       4.992   3.412  11.211  0.00  0.00    +0.000 C 
ENDBRANCH  30  32
ENDBRANCH  29  30
ENDBRANCH  28  29
ENDBRANCH  27  28
ENDBRANCH   1  27
TORSDOF 10
ENDMDL
MODEL 3
REMARK VINA RESULT:      -8.0      1.072      1.130
REMARK  Name = 
REMARK  13 active torsions:
REMARK  status: ('A' for Active; 'I' for Inactive)
REMARK    1  A    between atoms: C_1  and  C_2
REMARK    2  A    between atoms: C_2  and  C_3
REMARK    3  A    between atoms: C_3  and  C_4
REMARK    4  A    between atoms: C_4  and  C_5
REMARK    5  A    between atoms: C_5  and  C_6
REMARK    6  A    between atoms: C_6  and  C_7
REMARK    7  A    between atoms: C_8  and  C_9
REMARK    8  A    between atoms: N_11  and  C_12
REMARK    9  A    between atoms: C_12  and  C_13
REMARK   10  A    between atoms: C_13  and  C_14
REMARK   11  A    between atoms: C_17  and  N_18
REMARK   12  A    between atoms: N_18  and  C_19
REMARK   13  A    between atoms: N_18  and  C_20
REMARK                            x       y       z     vdW  Elec       q    Type
REMARK                         _______ _______ _______ _____ _____    ______ ____
ROOT
ATOM      1  C   UNL     1       4.930   4.750  17.729  0.00  0.00    +0.000 A 
ATOM      2  C   UNL     1       6.008   4.805  18.612  0.00  0.00    +0.000 A 
ATOM      3  N   UNL     1       5.667   4.020  19.689  0.00  0.00    +0.000 N 
ATOM      4  C   UNL     1       4.427   3.462  19.533  0.00  0.00    +0.000 A 
ATOM      5  C   UNL     1       3.723   2.584  20.365  0.00  0.00    +0.000 A 
ATOM      6  C   UNL     1       2.441   2.203  19.972  0.00  0.00    +0.000 A 
ATOM      7  C   UNL     1       1.890   2.698  18.792  0.00  0.00    +0.000 A 
ATOM      8 CL   UNL     1       0.286   2.231  18.346  0.00  0.00    +0.000 Cl
ATOM      9  C   UNL     1       2.606   3.559  17.960  0.00  0.00    +0.000 A 
ATOM     10  C   UNL     1       3.909   3.946  18.333  0.00  0.00    +0.000 A 
ATOM     11  H   UNL     1       6.248   3.887  20.504  0.00  0.00    +0.000 HD
ENDROOT
BRANCH   2  12
ATOM     12  C   UNL     1       7.269   5.521  18.525  0.00  0.00    +0.000 C 
ATOM     13  O   UNL     1       8.367   5.000  18.687  0.00  0.00    +0.000 OA
ATOM     14  N   UNL     1       7.120   6.872  18.257  0.00  0.00    +0.000 N 
ATOM     15  H   UNL     1       6.231   7.282  18.497  0.00  0.00    +0.000 HD
BRANCH  14  16
ATOM     16  C   UNL     1       8.271   7.762  18.196  0.00  0.00    +0.000 C 
BRANCH  16  17
ATOM     17  C   UNL     1       7.902   9.120  17.591  0.00  0.00    +0.000 C 
BRANCH  17  18
ATOM     18  C   UNL     1       8.624  10.267  18.248  0.00  0.00    +0.000 A 
ATOM     19  C   UNL     1       9.255  10.119  19.482  0.00  0.00    +0.000 A 
ATOM     20  C   UNL     1       9.897  11.209  20.097  0.00  0.00    +0.000 A 
ATOM     21  C   UNL     1       9.944  12.486  19.513  0.00  0.00    +0.000 A 
ATOM     22  C   UNL     1       9.304  12.601  18.267  0.00  0.00    +0.000 A 
ATOM     23  C   UNL     1       8.655  11.524  17.647  0.00  0.00    +0.000 A 
BRANCH  21  24
ATOM     24  N   UNL     1      10.530  13.572  20.154  0.00  0.00    +0.000 N 
ATOM     25  C   UNL     1      10.117  13.985  21.494  0.00  0.00    +0.000 C 
ATOM     26  C   UNL     1      11.830  14.107  19.748  0.00  0.00    +0.000 C 
ENDBRANCH  21  24
ENDBRANCH  17  18
ENDBRANCH  16  17
ENDBRANCH  14  16
ENDBRANCH   2  12
BRANCH   1  27
ATOM     27  C   UNL     1       4.852   5.351  16.353  0.00  0.00    +0.000 C 
BRANCH  27  28
ATOM     28  C   UNL     1       5.963   4.797  15.459  0.00  0.00    +0.000 C 
BRANCH  28  29
ATOM     29  C   UNL     1       5.425   4.152  14.186  0.00  0.00    +0.000 C 
BRANCH  29  30
ATOM     30  C   UNL     1       6.589   3.764  13.273  0.00  0.00    +0.000 C 
BRANCH  30  32
ATOM     31  C   UNL     1       4.581   3.349  11.828  0.00  0.00    +0.000 C 
ATOM     32  C   UNL     1       6.096   3.266  11.920  0.00  0.00    +0.000 C 
ENDBRANCH  30  32
ENDBRANCH  29  30
ENDBRANCH  28  29
ENDBRANCH  27  28
ENDBRANCH   1  27
TORSDOF 10
ENDMDL
MODEL 4
REMARK VINA RESULT:      -7.9      2.079      4.684
REMARK  Name = 
REMARK  13 active torsions:
REMARK  status: ('A' for Active; 'I' for Inactive)
REMARK    1  A    between atoms: C_1  and  C_2
REMARK    2  A    between atoms: C_2  and  C_3
REMARK    3  A    between atoms: C_3  and  C_4
REMARK    4  A    between atoms: C_4  and  C_5
REMARK    5  A    between atoms: C_5  and  C_6
REMARK    6  A    between atoms: C_6  and  C_7
REMARK    7  A    between atoms: C_8  and  C_9
REMARK    8  A    between atoms: N_11  and  C_12
REMARK    9  A    between atoms: C_12  and  C_13
REMARK   10  A    between atoms: C_13  and  C_14
REMARK   11  A    between atoms: C_17  and  N_18
REMARK   12  A    between atoms: N_18  and  C_19
REMARK   13  A    between atoms: N_18  and  C_20
REMARK                            x       y       z     vdW  Elec       q    Type
REMARK                         _______ _______ _______ _____ _____    ______ ____
ROOT
ATOM      1  C   UNL     1       5.795   5.069  15.783  0.00  0.00    +0.000 A 
ATOM      2  C   UNL     1       6.862   5.904  16.111  0.00  0.00    +0.000 A 
ATOM      3  N   UNL     1       7.719   5.880  15.037  0.00  0.00    +0.000 N 
ATOM      4  C   UNL     1       7.249   5.074  14.035  0.00  0.00    +0.000 A 
ATOM      5  C   UNL     1       7.787   4.799  12.773  0.00  0.00    +0.000 A 
ATOM      6  C   UNL     1       7.107   3.895  11.960  0.00  0.00    +0.000 A 
ATOM      7  C   UNL     1       5.937   3.285  12.409  0.00  0.00    +0.000 A 
ATOM      8 CL   UNL     1       5.132   2.144  11.389  0.00  0.00    +0.000 Cl
ATOM      9  C   UNL     1       5.399   3.579  13.661  0.00  0.00    +0.000 A 
ATOM     10  C   UNL     1       6.065   4.502  14.494  0.00  0.00    +0.000 A 
ATOM     11  H   UNL     1       8.597   6.378  14.997  0.00  0.00    +0.000 HD
ENDROOT
BRANCH   2  12
ATOM     12  C   UNL     1       7.125   6.676  17.315  0.00  0.00    +0.000 C 
ATOM     13  O   UNL     1       7.142   6.200  18.445  0.00  0.00    +0.000 OA
ATOM     14  N   UNL     1       7.341   8.022  17.072  0.00  0.00    +0.000 N 
ATOM     15  H   UNL     1       6.959   8.391  16.213  0.00  0.00    +0.000 HD
BRANCH  14  16
ATOM     16  C   UNL     1       7.558   8.962  18.162  0.00  0.00    +0.000 C 
BRANCH  16  17
ATOM     17  C   UNL     1       9.027   8.994  18.596  0.00  0.00    +0.000 C 
BRANCH  17  18
ATOM     18  C   UNL     1       9.490  10.372  18.990  0.00  0.00    +0.000 A 
ATOM     19  C   UNL     1       9.586  10.753  20.327  0.00  0.00    +0.000 A 
ATOM     20  C   UNL     1       9.990  12.054  20.677  0.00  0.00    +0.000 A 
ATOM     21  C   UNL     1      10.319  13.026  19.718  0.00  0.00    +0.000 A 
ATOM     22  C   UNL     1      10.218  12.610  18.380  0.00  0.00    +0.000 A 
ATOM     23  C   UNL     1       9.811  11.318  18.018  0.00  0.00    +0.000 A 
BRANCH  21  24
ATOM     24  N   UNL     1      10.661  14.327  20.071  0.00  0.00    +0.000 N 
ATOM     25  C   UNL     1      11.068  15.311  19.069  0.00  0.00    +0.000 C 
ATOM     26  C   UNL     1      10.261  14.920  21.347  0.00  0.00    +0.000 C 
ENDBRANCH  21  24
ENDBRANCH  17  18
ENDBRANCH  16  17
ENDBRANCH  14  16
ENDBRANCH   2  12
BRANCH   1  27
ATOM     27  C   UNL     1       4.540   4.841  16.578  0.00  0.00    +0.000 C 
BRANCH  27  28
ATOM     28  C   UNL     1       4.656   3.564  17.414  0.00  0.00    +0.000 C 
BRANCH  28  29
ATOM     29  C   UNL     1       3.657   3.525  18.565  0.00  0.00    +0.000 C 
BRANCH  29  30
ATOM     30  C   UNL     1       2.532   4.527  18.305  0.00  0.00    +0.000 C 
BRANCH  30  32
ATOM     31  C   UNL     1       1.045   2.549  18.716  0.00  0.00    +0.000 C 
ATOM     32  C   UNL     1       1.237   3.826  17.914  0.00  0.00    +0.000 C 
ENDBRANCH  30  32
ENDBRANCH  29  30
ENDBRANCH  28  29
ENDBRANCH  27  28
ENDBRANCH   1  27
TORSDOF 10
ENDMDL
MODEL 5
REMARK VINA RESULT:      -7.8      2.100      4.943
REMARK  Name = 
REMARK  13 active torsions:
REMARK  status: ('A' for Active; 'I' for Inactive)
REMARK    1  A    between atoms: C_1  and  C_2
REMARK    2  A    between atoms: C_2  and  C_3
REMARK    3  A    between atoms: C_3  and  C_4
REMARK    4  A    between atoms: C_4  and  C_5
REMARK    5  A    between atoms: C_5  and  C_6
REMARK    6  A    between atoms: C_6  and  C_7
REMARK    7  A    between atoms: C_8  and  C_9
REMARK    8  A    between atoms: N_11  and  C_12
REMARK    9  A    between atoms: C_12  and  C_13
REMARK   10  A    between atoms: C_13  and  C_14
REMARK   11  A    between atoms: C_17  and  N_18
REMARK   12  A    between atoms: N_18  and  C_19
REMARK   13  A    between atoms: N_18  and  C_20
REMARK                            x       y       z     vdW  Elec       q    Type
REMARK                         _______ _______ _______ _____ _____    ______ ____
ROOT
ATOM      1  C   UNL     1       5.749   5.108  15.844  0.00  0.00    +0.000 A 
ATOM      2  C   UNL     1       6.890   5.844  16.159  0.00  0.00    +0.000 A 
ATOM      3  N   UNL     1       7.714   5.771  15.060  0.00  0.00    +0.000 N 
ATOM      4  C   UNL     1       7.151   5.030  14.057  0.00  0.00    +0.000 A 
ATOM      5  C   UNL     1       7.631   4.738  12.774  0.00  0.00    +0.000 A 
ATOM      6  C   UNL     1       6.855   3.912  11.963  0.00  0.00    +0.000 A 
ATOM      7  C   UNL     1       5.650   3.393  12.433  0.00  0.00    +0.000 A 
ATOM      8 CL   UNL     1       4.725   2.347  11.414  0.00  0.00    +0.000 Cl
ATOM      9  C   UNL     1       5.172   3.703  13.706  0.00  0.00    +0.000 A 
ATOM     10  C   UNL     1       5.935   4.549  14.537  0.00  0.00    +0.000 A 
ATOM     11  H   UNL     1       8.629   6.194  15.005  0.00  0.00    +0.000 HD
ENDROOT
BRANCH   2  12
ATOM     12  C   UNL     1       7.250   6.564  17.369  0.00  0.00    +0.000 C 
ATOM     13  O   UNL     1       7.085   6.126  18.502  0.00  0.00    +0.000 OA
ATOM     14  N   UNL     1       7.787   7.818  17.127  0.00  0.00    +0.000 N 
ATOM     15  H   UNL     1       7.556   8.242  16.241  0.00  0.00    +0.000 HD
BRANCH  14  16
ATOM     16  C   UNL     1       8.147   8.710  18.220  0.00  0.00    +0.000 C 
BRANCH  16  17
ATOM     17  C   UNL     1       8.876   9.959  17.712  0.00  0.00    +0.000 C 
BRANCH  17  18
ATOM     18  C   UNL     1       9.098  10.984  18.792  0.00  0.00    +0.000 A 
ATOM     19  C   UNL     1       9.345  10.610  20.112  0.00  0.00    +0.000 A 
ATOM     20  C   UNL     1       9.519  11.581  21.115  0.00  0.00    +0.000 A 
ATOM     21  C   UNL     1       9.460  12.959  20.849  0.00  0.00    +0.000 A 
ATOM     22  C   UNL     1       9.215  13.304  19.510  0.00  0.00    +0.000 A 
ATOM     23  C   UNL     1       9.034  12.346  18.502  0.00  0.00    +0.000 A 
BRANCH  21  24
ATOM     24  N   UNL     1       9.575  13.912  21.856  0.00  0.00    +0.000 N 
ATOM     25  C   UNL     1      10.310  15.160  21.650  0.00  0.00    +0.000 C 
ATOM     26  C   UNL     1       8.668  13.947  23.003  0.00  0.00    +0.000 C 
ENDBRANCH  21  24
ENDBRANCH  17  18
ENDBRANCH  16  17
ENDBRANCH  14  16
ENDBRANCH   2  12
BRANCH   1  27
ATOM     27  C   UNL     1       4.500   4.969  16.670  0.00  0.00    +0.000 C 
BRANCH  27  28
ATOM     28  C   UNL     1       4.600   3.756  17.597  0.00  0.00    +0.000 C 
BRANCH  28  29
ATOM     29  C   UNL     1       3.280   3.439  18.292  0.00  0.00    +0.000 C 
BRANCH  29  30
ATOM     30  C   UNL     1       3.487   3.421  19.807  0.00  0.00    +0.000 C 
BRANCH  30  32
ATOM     31  C   UNL     1       0.992   3.586  19.613  0.00  0.00    +0.000 C 
ATOM     32  C   UNL     1       2.183   3.675  20.552  0.00  0.00    +0.000 C 
ENDBRANCH  30  32
ENDBRANCH  29  30
ENDBRANCH  28  29
ENDBRANCH  27  28
ENDBRANCH   1  27
TORSDOF 10
ENDMDL
MODEL 6
REMARK VINA RESULT:      -7.8      5.447      8.560
REMARK  Name = 
REMARK  13 active torsions:
REMARK  status: ('A' for Active; 'I' for Inactive)
REMARK    1  A    between atoms: C_1  and  C_2
REMARK    2  A    between atoms: C_2  and  C_3
REMARK    3  A    between atoms: C_3  and  C_4
REMARK    4  A    between atoms: C_4  and  C_5
REMARK    5  A    between atoms: C_5  and  C_6
REMARK    6  A    between atoms: C_6  and  C_7
REMARK    7  A    between atoms: C_8  and  C_9
REMARK    8  A    between atoms: N_11  and  C_12
REMARK    9  A    between atoms: C_12  and  C_13
REMARK   10  A    between atoms: C_13  and  C_14
REMARK   11  A    between atoms: C_17  and  N_18
REMARK   12  A    between atoms: N_18  and  C_19
REMARK   13  A    between atoms: N_18  and  C_20
REMARK                            x       y       z     vdW  Elec       q    Type
REMARK                         _______ _______ _______ _____ _____    ______ ____
ROOT
ATOM      1  C   UNL     1       2.803   5.388  17.933  0.00  0.00    +0.000 A 
ATOM      2  C   UNL     1       3.003   6.285  18.982  0.00  0.00    +0.000 A 
ATOM      3  N   UNL     1       4.312   6.695  18.898  0.00  0.00    +0.000 N 
ATOM      4  C   UNL     1       4.957   6.109  17.842  0.00  0.00    +0.000 A 
ATOM      5  C   UNL     1       6.269   6.274  17.384  0.00  0.00    +0.000 A 
ATOM      6  C   UNL     1       6.678   5.507  16.294  0.00  0.00    +0.000 A 
ATOM      7  C   UNL     1       5.800   4.604  15.700  0.00  0.00    +0.000 A 
ATOM      8 CL   UNL     1       6.346   3.645  14.368  0.00  0.00    +0.000 Cl
ATOM      9  C   UNL     1       4.488   4.459  16.151  0.00  0.00    +0.000 A 
ATOM     10  C   UNL     1       4.051   5.235  17.245  0.00  0.00    +0.000 A 
ATOM     11  H   UNL     1       4.752   7.333  19.545  0.00  0.00    +0.000 HD
ENDROOT
BRANCH   2  12
ATOM     12  C   UNL     1       2.094   6.749  20.017  0.00  0.00    +0.000 C 
ATOM     13  O   UNL     1       1.580   6.018  20.857  0.00  0.00    +0.000 OA
ATOM     14  N   UNL     1       1.842   8.109  19.961  0.00  0.00    +0.000 N 
ATOM     15  H   UNL     1       1.988   8.557  19.070  0.00  0.00    +0.000 HD
BRANCH  14  16
ATOM     16  C   UNL     1       0.906   8.743  20.880  0.00  0.00    +0.000 C 
BRANCH  16  17
ATOM     17  C   UNL     1       0.717  10.229  20.557  0.00  0.00    +0.000 C 
BRANCH  17  18
ATOM     18  C   UNL     1      -0.371  10.473  19.545  0.00  0.00    +0.000 A 
ATOM     19  C   UNL     1      -1.455  11.303  19.827  0.00  0.00    +0.000 A 
ATOM     20  C   UNL     1      -2.479  11.495  18.882  0.00  0.00    +0.000 A 
ATOM     21  C   UNL     1      -2.468  10.878  17.620  0.00  0.00    +0.000 A 
ATOM     22  C   UNL     1      -1.360  10.052  17.364  0.00  0.00    +0.000 A 
ATOM     23  C   UNL     1      -0.336   9.848  18.300  0.00  0.00    +0.000 A 
BRANCH  21  24
ATOM     24  N   UNL     1      -3.513  11.027  16.714  0.00  0.00    +0.000 N 
ATOM     25  C   UNL     1      -4.758  11.698  17.084  0.00  0.00    +0.000 C 
ATOM     26  C   UNL     1      -3.313  10.912  15.269  0.00  0.00    +0.000 C 
ENDBRANCH  21  24
ENDBRANCH  17  18
ENDBRANCH  16  17
ENDBRANCH  14  16
ENDBRANCH   2  12
BRANCH   1  27
ATOM     27  C   UNL     1       1.509   4.741  17.524  0.00  0.00    +0.000 C 
BRANCH  27  28
ATOM     28  C   UNL     1       1.609   3.218  17.637  0.00  0.00    +0.000 C 
BRANCH  28  29
ATOM     29  C   UNL     1       1.233   2.708  19.024  0.00  0.00    +0.000 C 
BRANCH  29  30
ATOM     30  C   UNL     1       2.468   2.119  19.708  0.00  0.00    +0.000 C 
BRANCH  30  32
ATOM     31  C   UNL     1       1.575   2.710  21.976  0.00  0.00    +0.000 C 
ATOM     32  C   UNL     1       2.760   2.816  21.030  0.00  0.00    +0.000 C 
ENDBRANCH  30  32
ENDBRANCH  29  30
ENDBRANCH  28  29
ENDBRANCH  27  28
ENDBRANCH   1  27
TORSDOF 10
ENDMDL
MODEL 7
REMARK VINA RESULT:      -7.8      1.001      1.211
REMARK  Name = 
REMARK  13 active torsions:
REMARK  status: ('A' for Active; 'I' for Inactive)
REMARK    1  A    between atoms: C_1  and  C_2
REMARK    2  A    between atoms: C_2  and  C_3
REMARK    3  A    between atoms: C_3  and  C_4
REMARK    4  A    between atoms: C_4  and  C_5
REMARK    5  A    between atoms: C_5  and  C_6
REMARK    6  A    between atoms: C_6  and  C_7
REMARK    7  A    between atoms: C_8  and  C_9
REMARK    8  A    between atoms: N_11  and  C_12
REMARK    9  A    between atoms: C_12  and  C_13
REMARK   10  A    between atoms: C_13  and  C_14
REMARK   11  A    between atoms: C_17  and  N_18
REMARK   12  A    between atoms: N_18  and  C_19
REMARK   13  A    between atoms: N_18  and  C_20
REMARK                            x       y       z     vdW  Elec       q    Type
REMARK                         _______ _______ _______ _____ _____    ______ ____
ROOT
ATOM      1  C   UNL     1       4.961   5.348  16.844  0.00  0.00    +0.000 A 
ATOM      2  C   UNL     1       5.907   6.020  17.618  0.00  0.00    +0.000 A 
ATOM      3  N   UNL     1       5.603   5.741  18.930  0.00  0.00    +0.000 N 
ATOM      4  C   UNL     1       4.514   4.919  19.031  0.00  0.00    +0.000 A 
ATOM      5  C   UNL     1       3.900   4.373  20.165  0.00  0.00    +0.000 A 
ATOM      6  C   UNL     1       2.763   3.590  19.973  0.00  0.00    +0.000 A 
ATOM      7  C   UNL     1       2.260   3.379  18.691  0.00  0.00    +0.000 A 
ATOM      8 CL   UNL     1       0.830   2.428  18.489  0.00  0.00    +0.000 Cl
ATOM      9  C   UNL     1       2.889   3.912  17.566  0.00  0.00    +0.000 A 
ATOM     10  C   UNL     1       4.049   4.696  17.737  0.00  0.00    +0.000 A 
ATOM     11  H   UNL     1       6.107   6.113  19.722  0.00  0.00    +0.000 HD
ENDROOT
BRANCH   2  12
ATOM     12  C   UNL     1       7.014   6.877  17.228  0.00  0.00    +0.000 C 
ATOM     13  O   UNL     1       7.869   6.562  16.408  0.00  0.00    +0.000 OA
ATOM     14  N   UNL     1       7.030   8.094  17.889  0.00  0.00    +0.000 N 
ATOM     15  H   UNL     1       6.546   8.132  18.773  0.00  0.00    +0.000 HD
BRANCH  14  16
ATOM     16  C   UNL     1       8.101   9.057  17.674  0.00  0.00    +0.000 C 
BRANCH  16  17
ATOM     17  C   UNL     1       8.955   9.241  18.933  0.00  0.00    +0.000 C 
BRANCH  17  18
ATOM     18  C   UNL     1       9.555  10.618  19.035  0.00  0.00    +0.000 A 
ATOM     19  C   UNL     1       9.706  11.257  20.265  0.00  0.00    +0.000 A 
ATOM     20  C   UNL     1      10.240  12.556  20.340  0.00  0.00    +0.000 A 
ATOM     21  C   UNL     1      10.648  13.272  19.202  0.00  0.00    +0.000 A 
ATOM     22  C   UNL     1      10.489  12.599  17.979  0.00  0.00    +0.000 A 
ATOM     23  C   UNL     1       9.953  11.306  17.890  0.00  0.00    +0.000 A 
BRANCH  21  24
ATOM     24  N   UNL     1      11.120  14.578  19.279  0.00  0.00    +0.000 N 
ATOM     25  C   UNL     1      11.353  15.381  18.079  0.00  0.00    +0.000 C 
ATOM     26  C   UNL     1      11.027  15.369  20.507  0.00  0.00    +0.000 C 
ENDBRANCH  21  24
ENDBRANCH  17  18
ENDBRANCH  16  17
ENDBRANCH  14  16
ENDBRANCH   2  12
BRANCH   1  27
ATOM     27  C   UNL     1       4.922   5.242  15.345  0.00  0.00    +0.000 C 
BRANCH  27  28
ATOM     28  C   UNL     1       5.853   4.130  14.859  0.00  0.00    +0.000 C 
BRANCH  28  29
ATOM     29  C   UNL     1       5.596   3.744  13.406  0.00  0.00    +0.000 C 
BRANCH  29  30
ATOM     30  C   UNL     1       6.907   3.791  12.620  0.00  0.00    +0.000 C 
BRANCH  30  32
ATOM     31  C   UNL     1       5.843   1.810  11.508  0.00  0.00    +0.000 C 
ATOM     32  C   UNL     1       6.825   2.959  11.347  0.00  0.00    +0.000 C 
ENDBRANCH  30  32
ENDBRANCH  29  30
ENDBRANCH  28  29
ENDBRANCH  27  28
ENDBRANCH   1  27
TORSDOF 10
ENDMDL
MODEL 8
REMARK VINA RESULT:      -7.7      2.175      4.722
REMARK  Name = 
REMARK  13 active torsions:
REMARK  status: ('A' for Active; 'I' for Inactive)
REMARK    1  A    between atoms: C_1  and  C_2
REMARK    2  A    between atoms: C_2  and  C_3
REMARK    3  A    between atoms: C_3  and  C_4
REMARK    4  A    between atoms: C_4  and  C_5
REMARK    5  A    between atoms: C_5  and  C_6
REMARK    6  A    between atoms: C_6  and  C_7
REMARK    7  A    between atoms: C_8  and  C_9
REMARK    8  A    between atoms: N_11  and  C_12
REMARK    9  A    between atoms: C_12  and  C_13
REMARK   10  A    between atoms: C_13  and  C_14
REMARK   11  A    between atoms: C_17  and  N_18
REMARK   12  A    between atoms: N_18  and  C_19
REMARK   13  A    between atoms: N_18  and  C_20
REMARK                            x       y       z     vdW  Elec       q    Type
REMARK                         _______ _______ _______ _____ _____    ______ ____
ROOT
ATOM      1  C   UNL     1       5.957   4.920  15.940  0.00  0.00    +0.000 A 
ATOM      2  C   UNL     1       7.004   5.796  16.224  0.00  0.00    +0.000 A 
ATOM      3  N   UNL     1       7.759   5.883  15.077  0.00  0.00    +0.000 N 
ATOM      4  C   UNL     1       7.240   5.110  14.074  0.00  0.00    +0.000 A 
ATOM      5  C   UNL     1       7.674   4.940  12.754  0.00  0.00    +0.000 A 
ATOM      6  C   UNL     1       6.969   4.046  11.949  0.00  0.00    +0.000 A 
ATOM      7  C   UNL     1       5.880   3.345  12.462  0.00  0.00    +0.000 A 
ATOM      8 CL   UNL     1       5.044   2.220  11.449  0.00  0.00    +0.000 Cl
ATOM      9  C   UNL     1       5.444   3.534  13.774  0.00  0.00    +0.000 A 
ATOM     10  C   UNL     1       6.135   4.445  14.599  0.00  0.00    +0.000 A 
ATOM     11  H   UNL     1       8.602   6.432  14.991  0.00  0.00    +0.000 HD
ENDROOT
BRANCH   2  12
ATOM     12  C   UNL     1       7.337   6.512  17.445  0.00  0.00    +0.000 C 
ATOM     13  O   UNL     1       7.320   6.006  18.562  0.00  0.00    +0.000 OA
ATOM     14  N   UNL     1       7.662   7.841  17.235  0.00  0.00    +0.000 N 
ATOM     15  H   UNL     1       7.309   8.262  16.389  0.00  0.00    +0.000 HD
BRANCH  14  16
ATOM     16  C   UNL     1       7.962   8.731  18.348  0.00  0.00    +0.000 C 
BRANCH  16  17
ATOM     17  C   UNL     1       9.192   9.598  18.061  0.00  0.00    +0.000 C 
BRANCH  17  18
ATOM     18  C   UNL     1       9.187  10.892  18.830  0.00  0.00    +0.000 A 
ATOM     19  C   UNL     1       9.405  10.922  20.208  0.00  0.00    +0.000 A 
ATOM     20  C   UNL     1       9.365  12.136  20.916  0.00  0.00    +0.000 A 
ATOM     21  C   UNL     1       9.113  13.368  20.290  0.00  0.00    +0.000 A 
ATOM     22  C   UNL     1       8.903  13.306  18.903  0.00  0.00    +0.000 A 
ATOM     23  C   UNL     1       8.934  12.101  18.185  0.00  0.00    +0.000 A 
BRANCH  21  24
ATOM     24  N   UNL     1       9.017  14.556  21.007  0.00  0.00    +0.000 N 
ATOM     25  C   UNL     1       7.905  15.485  20.806  0.00  0.00    +0.000 C 
ATOM     26  C   UNL     1       9.747  14.773  22.256  0.00  0.00    +0.000 C 
ENDBRANCH  21  24
ENDBRANCH  17  18
ENDBRANCH  16  17
ENDBRANCH  14  16
ENDBRANCH   2  12
BRANCH   1  27
ATOM     27  C   UNL     1       4.794   4.575  16.828  0.00  0.00    +0.000 C 
BRANCH  27  28
ATOM     28  C   UNL     1       4.006   5.833  17.197  0.00  0.00    +0.000 C 
BRANCH  28  29
ATOM     29  C   UNL     1       2.798   5.531  18.077  0.00  0.00    +0.000 C 
BRANCH  29  30
ATOM     30  C   UNL     1       2.032   4.335  17.508  0.00  0.00    +0.000 C 
BRANCH  30  32
ATOM     31  C   UNL     1       2.260   2.094  18.611  0.00  0.00    +0.000 C 
ATOM     32  C   UNL     1       1.520   3.421  18.614  0.00  0.00    +0.000 C 
ENDBRANCH  30  32
ENDBRANCH  29  30
ENDBRANCH  28  29
ENDBRANCH  27  28
ENDBRANCH   1  27
TORSDOF 10
ENDMDL
MODEL 9
REMARK VINA RESULT:      -7.7      2.073      4.866
REMARK  Name = 
REMARK  13 active torsions:
REMARK  status: ('A' for Active; 'I' for Inactive)
REMARK    1  A    between atoms: C_1  and  C_2
REMARK    2  A    between atoms: C_2  and  C_3
REMARK    3  A    between atoms: C_3  and  C_4
REMARK    4  A    between atoms: C_4  and  C_5
REMARK    5  A    between atoms: C_5  and  C_6
REMARK    6  A    between atoms: C_6  and  C_7
REMARK    7  A    between atoms: C_8  and  C_9
REMARK    8  A    between atoms: N_11  and  C_12
REMARK    9  A    between atoms: C_12  and  C_13
REMARK   10  A    between atoms: C_13  and  C_14
REMARK   11  A    between atoms: C_17  and  N_18
REMARK   12  A    between atoms: N_18  and  C_19
REMARK   13  A    between atoms: N_18  and  C_20
REMARK                            x       y       z     vdW  Elec       q    Type
REMARK                         _______ _______ _______ _____ _____    ______ ____
ROOT
ATOM      1  C   UNL     1       6.180   4.698  15.870  0.00  0.00    +0.000 A 
ATOM      2  C   UNL     1       7.071   5.743  16.107  0.00  0.00    +0.000 A 
ATOM      3  N   UNL     1       7.732   5.966  14.922  0.00  0.00    +0.000 N 
ATOM      4  C   UNL     1       7.302   5.117  13.938  0.00  0.00    +0.000 A 
ATOM      5  C   UNL     1       7.682   5.031  12.594  0.00  0.00    +0.000 A 
ATOM      6  C   UNL     1       7.101   4.029  11.818  0.00  0.00    +0.000 A 
ATOM      7  C   UNL     1       6.182   3.146  12.381  0.00  0.00    +0.000 A 
ATOM      8 CL   UNL     1       5.501   1.895  11.400  0.00  0.00    +0.000 Cl
ATOM      9  C   UNL     1       5.796   3.251  13.717  0.00  0.00    +0.000 A 
ATOM     10  C   UNL     1       6.362   4.266  14.515  0.00  0.00    +0.000 A 
ATOM     11  H   UNL     1       8.460   6.655  14.797  0.00  0.00    +0.000 HD
ENDROOT
BRANCH   2  12
ATOM     12  C   UNL     1       7.342   6.502  17.317  0.00  0.00    +0.000 C 
ATOM     13  O   UNL     1       7.528   5.994  18.418  0.00  0.00    +0.000 OA
ATOM     14  N   UNL     1       7.353   7.872  17.119  0.00  0.00    +0.000 N 
ATOM     15  H   UNL     1       6.848   8.215  16.317  0.00  0.00    +0.000 HD
BRANCH  14  16
ATOM     16  C   UNL     1       7.545   8.795  18.229  0.00  0.00    +0.000 C 
BRANCH  16  17
ATOM     17  C   UNL     1       9.022   9.166  18.406  0.00  0.00    +0.000 C 
BRANCH  17  18
ATOM     18  C   UNL     1       9.249  10.653  18.452  0.00  0.00    +0.000 A 
ATOM     19  C   UNL     1       8.448  11.535  17.728  0.00  0.00    +0.000 A 
ATOM     20  C   UNL     1       8.693  12.920  17.757  0.00  0.00    +0.000 A 
ATOM     21  C   UNL     1       9.738  13.486  18.506  0.00  0.00    +0.000 A 
ATOM     22  C   UNL     1      10.524  12.572  19.229  0.00  0.00    +0.000 A 
ATOM     23  C   UNL     1      10.293  11.189  19.204  0.00  0.00    +0.000 A 
BRANCH  21  24
ATOM     24  N   UNL     1      10.010  14.849  18.484  0.00  0.00    +0.000 N 
ATOM     25  C   UNL     1      11.378  15.356  18.379  0.00  0.00    +0.000 C 
ATOM     26  C   UNL     1       8.988  15.843  18.152  0.00  0.00    +0.000 C 
ENDBRANCH  21  24
ENDBRANCH  17  18
ENDBRANCH  16  17
ENDBRANCH  14  16
ENDBRANCH   2  12
BRANCH   1  27
ATOM     27  C   UNL     1       5.148   4.150  16.817  0.00  0.00    +0.000 C 
BRANCH  27  28
ATOM     28  C   UNL     1       4.042   5.178  17.061  0.00  0.00    +0.000 C 
BRANCH  28  29
ATOM     29  C   UNL     1       3.087   4.758  18.174  0.00  0.00    +0.000 C 
BRANCH  29  30
ATOM     30  C   UNL     1       2.168   3.644  17.672  0.00  0.00    +0.000 C 
BRANCH  30  32
ATOM     31  C   UNL     1       1.359   3.984  20.021  0.00  0.00    +0.000 C 
ATOM     32  C   UNL     1       1.076   3.322  18.683  0.00  0.00    +0.000 C 
ENDBRANCH  30  32
ENDBRANCH  29  30
ENDBRANCH  28  29
ENDBRANCH  27  28
ENDBRANCH   1  27
TORSDOF 10
ENDMDL
