MODEL 1
REMARK VINA RESULT:      -9.7      0.000      0.000
REMARK  Name = 
REMARK  7 active torsions:
REMARK  status: ('A' for Active; 'I' for Inactive)
REMARK    1  A    between atoms: S_2  and  N_4
REMARK    2  A    between atoms: S_2  and  C_26
REMARK    3  A    between atoms: N_4  and  C_5
REMARK    4  A    between atoms: C_8  and  S_9
REMARK    5  A    between atoms: S_9  and  C_12
REMARK    6  A    between atoms: C_17  and  O_18
REMARK    7  A    between atoms: O_18  and  C_19
REMARK                            x       y       z     vdW  Elec       q    Type
REMARK                         _______ _______ _______ _____ _____    ______ ____
ROOT
ATOM      1  C   UNL     1       4.502   5.395  17.436  0.00  0.00    +0.000 A 
ATOM      2  C   UNL     1       4.791   4.058  17.736  0.00  0.00    +0.000 A 
ATOM      3  C   UNL     1       3.897   3.277  18.470  0.00  0.00    +0.000 A 
ATOM      4  C   UNL     1       2.695   3.837  18.907  0.00  0.00    +0.000 A 
ATOM      5  C   UNL     1       2.376   5.161  18.594  0.00  0.00    +0.000 A 
ATOM      6  C   UNL     1       3.272   5.946  17.847  0.00  0.00    +0.000 A 
ENDROOT
BRANCH   4   7
ATOM      7  S   UNL     1       1.508   2.805  19.762  0.00  0.00    +0.000 S 
ATOM      8  O   UNL     1       0.215   3.440  19.556  0.00  0.00    +0.000 OA
ATOM      9  O   UNL     1       1.724   1.458  19.252  0.00  0.00    +0.000 OA
BRANCH   7  10
ATOM     10  C   UNL     1       2.028   2.929  21.510  0.00  0.00    +0.000 C 
ATOM     11  F   UNL     1       2.282   4.214  21.893  0.00  0.00    +0.000 F 
ATOM     12  F   UNL     1       1.085   2.453  22.372  0.00  0.00    +0.000 F 
ATOM     13  F   UNL     1       3.170   2.227  21.765  0.00  0.00    +0.000 F 
ENDBRANCH   7  10
ENDBRANCH   4   7
BRANCH   1  14
ATOM     14  N   UNL     1       5.426   6.069  16.597  0.00  0.00    +0.000 N 
ATOM     15  H   UNL     1       5.129   6.871  16.047  0.00  0.00    +0.000 HD
BRANCH  14  17
ATOM     16  O   UNL     1       7.812   6.721  16.313  0.00  0.00    +0.000 OA
ATOM     17  S   UNL     1       6.979   5.539  16.316  0.00  0.00    +0.000 S 
ATOM     18  O   UNL     1       7.266   4.412  17.180  0.00  0.00    +0.000 OA
BRANCH  17  19
ATOM     19  C   UNL     1       6.898   4.942  14.644  0.00  0.00    +0.000 A 
ATOM     20  C   UNL     1       7.772   5.452  13.675  0.00  0.00    +0.000 A 
ATOM     21  C   UNL     1       7.709   4.962  12.372  0.00  0.00    +0.000 A 
ATOM     22  C   UNL     1       6.787   3.964  12.041  0.00  0.00    +0.000 A 
ATOM     23  C   UNL     1       5.932   3.448  13.017  0.00  0.00    +0.000 A 
ATOM     24  C   UNL     1       5.990   3.930  14.323  0.00  0.00    +0.000 A 
ENDBRANCH  17  19
ENDBRANCH  14  17
ENDBRANCH   1  14
BRANCH   6  25
ATOM     25  O   UNL     1       2.847   7.244  17.671  0.00  0.00    +0.000 OA
BRANCH  25  26
ATOM     26  C   UNL     1       2.179   7.926  18.657  0.00  0.00    +0.000 A 
ATOM     27  C   UNL     1       2.120   7.547  19.999  0.00  0.00    +0.000 A 
ATOM     28  C   UNL     1       1.317   8.261  20.891  0.00  0.00    +0.000 A 
ATOM     29  C   UNL     1       0.651   9.408  20.463  0.00  0.00    +0.000 A 
ATOM     30 CL   UNL     1      -0.344  10.278  21.564  0.00  0.00    +0.000 Cl
ATOM     31  C   UNL     1       0.794   9.857  19.152  0.00  0.00    +0.000 A 
ATOM     32  C   UNL     1       1.554   9.110  18.249  0.00  0.00    +0.000 A 
ENDBRANCH  25  26
ENDBRANCH   6  25
TORSDOF 7
ENDMDL
MODEL 2
REMARK VINA RESULT:      -9.6      0.688      1.255
REMARK  Name = 
REMARK  7 active torsions:
REMARK  status: ('A' for Active; 'I' for Inactive)
REMARK    1  A    between atoms: S_2  and  N_4
REMARK    2  A    between atoms: S_2  and  C_26
REMARK    3  A    between atoms: N_4  and  C_5
REMARK    4  A    between atoms: C_8  and  S_9
REMARK    5  A    between atoms: S_9  and  C_12
REMARK    6  A    between atoms: C_17  and  O_18
REMARK    7  A    between atoms: O_18  and  C_19
REMARK                            x       y       z     vdW  Elec       q    Type
REMARK                         _______ _______ _______ _____ _____    ______ ____
ROOT
ATOM      1  C   UNL     1       4.276   5.270  17.189  0.00  0.00    +0.000 A 
ATOM      2  C   UNL     1       4.093   3.882  17.174  0.00  0.00    +0.000 A 
ATOM      3  C   UNL     1       3.177   3.269  18.031  0.00  0.00    +0.000 A 
ATOM      4  C   UNL     1       2.430   4.054  18.912  0.00  0.00    +0.000 A 
ATOM      5  C   UNL     1       2.579   5.443  18.923  0.00  0.00    +0.000 A 
ATOM      6  C   UNL     1       3.495   6.062  18.054  0.00  0.00    +0.000 A 
ENDROOT
BRANCH   4   7
ATOM      7  S   UNL     1       1.187   3.275  19.939  0.00  0.00    +0.000 S 
ATOM      8  O   UNL     1       0.224   4.321  20.251  0.00  0.00    +0.000 OA
ATOM      9  O   UNL     1       0.743   2.104  19.194  0.00  0.00    +0.000 OA
BRANCH   7  10
ATOM     10  C   UNL     1       2.123   2.780  21.428  0.00  0.00    +0.000 C 
ATOM     11  F   UNL     1       3.335   2.227  21.128  0.00  0.00    +0.000 F 
ATOM     12  F   UNL     1       2.379   3.831  22.258  0.00  0.00    +0.000 F 
ATOM     13  F   UNL     1       1.460   1.852  22.177  0.00  0.00    +0.000 F 
ENDBRANCH   7  10
ENDBRANCH   4   7
BRANCH   1  14
ATOM     14  N   UNL     1       5.151   5.804  16.209  0.00  0.00    +0.000 N 
ATOM     15  H   UNL     1       4.800   6.443  15.501  0.00  0.00    +0.000 HD
BRANCH  14  17
ATOM     16  O   UNL     1       7.531   6.534  16.138  0.00  0.00    +0.000 OA
ATOM     17  S   UNL     1       6.737   5.331  16.029  0.00  0.00    +0.000 S 
ATOM     18  O   UNL     1       6.993   4.177  16.866  0.00  0.00    +0.000 OA
BRANCH  17  19
ATOM     19  C   UNL     1       6.804   4.804  14.332  0.00  0.00    +0.000 A 
ATOM     20  C   UNL     1       7.727   5.385  13.454  0.00  0.00    +0.000 A 
ATOM     21  C   UNL     1       7.779   4.950  12.131  0.00  0.00    +0.000 A 
ATOM     22  C   UNL     1       6.922   3.936  11.692  0.00  0.00    +0.000 A 
ATOM     23  C   UNL     1       6.017   3.349  12.578  0.00  0.00    +0.000 A 
ATOM     24  C   UNL     1       5.960   3.776  13.903  0.00  0.00    +0.000 A 
ENDBRANCH  17  19
ENDBRANCH  14  17
ENDBRANCH   1  14
BRANCH   6  25
ATOM     25  O   UNL     1       3.572   7.427  18.222  0.00  0.00    +0.000 OA
BRANCH  25  26
ATOM     26  C   UNL     1       2.469   8.179  18.543  0.00  0.00    +0.000 A 
ATOM     27  C   UNL     1       1.725   8.940  17.641  0.00  0.00    +0.000 A 
ATOM     28  C   UNL     1       0.687   9.753  18.104  0.00  0.00    +0.000 A 
ATOM     29  C   UNL     1       0.333   9.730  19.452  0.00  0.00    +0.000 A 
ATOM     30 CL   UNL     1      -0.939  10.740  20.017  0.00  0.00    +0.000 Cl
ATOM     31  C   UNL     1       0.999   8.888  20.340  0.00  0.00    +0.000 A 
ATOM     32  C   UNL     1       2.071   8.117  19.884  0.00  0.00    +0.000 A 
ENDBRANCH  25  26
ENDBRANCH   6  25
TORSDOF 7
ENDMDL
MODEL 3
REMARK VINA RESULT:      -9.6      0.131      1.108
REMARK  Name = 
REMARK  7 active torsions:
REMARK  status: ('A' for Active; 'I' for Inactive)
REMARK    1  A    between atoms: S_2  and  N_4
REMARK    2  A    between atoms: S_2  and  C_26
REMARK    3  A    between atoms: N_4  and  C_5
REMARK    4  A    between atoms: C_8  and  S_9
REMARK    5  A    between atoms: S_9  and  C_12
REMARK    6  A    between atoms: C_17  and  O_18
REMARK    7  A    between atoms: O_18  and  C_19
REMARK                            x       y       z     vdW  Elec       q    Type
REMARK                         _______ _______ _______ _____ _____    ______ ____
ROOT
ATOM      1  C   UNL     1       4.543   5.410  17.498  0.00  0.00    +0.000 A 
ATOM      2  C   UNL     1       4.891   4.105  17.868  0.00  0.00    +0.000 A 
ATOM      3  C   UNL     1       4.002   3.300  18.582  0.00  0.00    +0.000 A 
ATOM      4  C   UNL     1       2.747   3.803  18.929  0.00  0.00    +0.000 A 
ATOM      5  C   UNL     1       2.370   5.093  18.545  0.00  0.00    +0.000 A 
ATOM      6  C   UNL     1       3.262   5.901  17.818  0.00  0.00    +0.000 A 
ENDROOT
BRANCH   4   7
ATOM      7  S   UNL     1       1.574   2.733  19.758  0.00  0.00    +0.000 S 
ATOM      8  O   UNL     1       0.261   3.298  19.476  0.00  0.00    +0.000 OA
ATOM      9  O   UNL     1       1.879   1.387  19.295  0.00  0.00    +0.000 OA
BRANCH   7  10
ATOM     10  C   UNL     1       2.006   2.927  21.523  0.00  0.00    +0.000 C 
ATOM     11  F   UNL     1       1.007   2.515  22.357  0.00  0.00    +0.000 F 
ATOM     12  F   UNL     1       3.113   2.213  21.872  0.00  0.00    +0.000 F 
ATOM     13  F   UNL     1       2.265   4.224  21.856  0.00  0.00    +0.000 F 
ENDBRANCH   7  10
ENDBRANCH   4   7
BRANCH   1  14
ATOM     14  N   UNL     1       5.473   6.107  16.685  0.00  0.00    +0.000 N 
ATOM     15  H   UNL     1       5.183   6.929  16.162  0.00  0.00    +0.000 HD
BRANCH  14  17
ATOM     16  O   UNL     1       7.851   6.762  16.341  0.00  0.00    +0.000 OA
ATOM     17  S   UNL     1       7.024   5.577  16.391  0.00  0.00    +0.000 S 
ATOM     18  O   UNL     1       7.332   4.475  17.280  0.00  0.00    +0.000 OA
BRANCH  17  19
ATOM     19  C   UNL     1       6.916   4.935  14.737  0.00  0.00    +0.000 A 
ATOM     20  C   UNL     1       5.961   3.959  14.425  0.00  0.00    +0.000 A 
ATOM     21  C   UNL     1       5.877   3.478  13.120  0.00  0.00    +0.000 A 
ATOM     22  C   UNL     1       6.734   3.973  12.133  0.00  0.00    +0.000 A 
ATOM     23  C   UNL     1       7.672   4.959  12.448  0.00  0.00    +0.000 A 
ATOM     24  C   UNL     1       7.761   5.448  13.749  0.00  0.00    +0.000 A 
ENDBRANCH  17  19
ENDBRANCH  14  17
ENDBRANCH   1  14
BRANCH   6  25
ATOM     25  O   UNL     1       2.773   7.164  17.565  0.00  0.00    +0.000 OA
BRANCH  25  26
ATOM     26  C   UNL     1       2.156   7.909  18.540  0.00  0.00    +0.000 A 
ATOM     27  C   UNL     1       2.086   7.565  19.890  0.00  0.00    +0.000 A 
ATOM     28  C   UNL     1       1.336   8.348  20.771  0.00  0.00    +0.000 A 
ATOM     29  C   UNL     1       0.737   9.524  20.320  0.00  0.00    +0.000 A 
ATOM     30 CL   UNL     1      -0.194  10.478  21.407  0.00  0.00    +0.000 Cl
ATOM     31  C   UNL     1       0.896   9.932  18.998  0.00  0.00    +0.000 A 
ATOM     32  C   UNL     1       1.602   9.119  18.108  0.00  0.00    +0.000 A 
ENDBRANCH  25  26
ENDBRANCH   6  25
TORSDOF 7
ENDMDL
MODEL 4
REMARK VINA RESULT:      -9.6      0.718      1.042
REMARK  Name = 
REMARK  7 active torsions:
REMARK  status: ('A' for Active; 'I' for Inactive)
REMARK    1  A    between atoms: S_2  and  N_4
REMARK    2  A    between atoms: S_2  and  C_26
REMARK    3  A    between atoms: N_4  and  C_5
REMARK    4  A    between atoms: C_8  and  S_9
REMARK    5  A    between atoms: S_9  and  C_12
REMARK    6  A    between atoms: C_17  and  O_18
REMARK    7  A    between atoms: O_18  and  C_19
REMARK                            x       y       z     vdW  Elec       q    Type
REMARK                         _______ _______ _______ _____ _____    ______ ____
ROOT
ATOM      1  C   UNL     1       4.293   5.263  17.227  0.00  0.00    +0.000 A 
ATOM      2  C   UNL     1       4.100   3.876  17.189  0.00  0.00    +0.000 A 
ATOM      3  C   UNL     1       3.187   3.254  18.042  0.00  0.00    +0.000 A 
ATOM      4  C   UNL     1       2.453   4.028  18.943  0.00  0.00    +0.000 A 
ATOM      5  C   UNL     1       2.611   5.416  18.977  0.00  0.00    +0.000 A 
ATOM      6  C   UNL     1       3.525   6.044  18.113  0.00  0.00    +0.000 A 
ENDROOT
BRANCH   4   7
ATOM      7  S   UNL     1       1.212   3.239  19.966  0.00  0.00    +0.000 S 
ATOM      8  O   UNL     1       0.223   4.270  20.248  0.00  0.00    +0.000 OA
ATOM      9  O   UNL     1       0.804   2.048  19.234  0.00  0.00    +0.000 OA
BRANCH   7  10
ATOM     10  C   UNL     1       2.139   2.789  21.475  0.00  0.00    +0.000 C 
ATOM     11  F   UNL     1       1.477   1.878  22.247  0.00  0.00    +0.000 F 
ATOM     12  F   UNL     1       3.356   2.241  21.198  0.00  0.00    +0.000 F 
ATOM     13  F   UNL     1       2.377   3.864  22.281  0.00  0.00    +0.000 F 
ENDBRANCH   7  10
ENDBRANCH   4   7
BRANCH   1  14
ATOM     14  N   UNL     1       5.164   5.808  16.250  0.00  0.00    +0.000 N 
ATOM     15  H   UNL     1       4.808   6.446  15.543  0.00  0.00    +0.000 HD
BRANCH  14  17
ATOM     16  O   UNL     1       7.537   6.561  16.185  0.00  0.00    +0.000 OA
ATOM     17  S   UNL     1       6.755   5.350  16.069  0.00  0.00    +0.000 S 
ATOM     18  O   UNL     1       7.021   4.195  16.902  0.00  0.00    +0.000 OA
BRANCH  17  19
ATOM     19  C   UNL     1       6.829   4.832  14.371  0.00  0.00    +0.000 A 
ATOM     20  C   UNL     1       7.747   5.426  13.496  0.00  0.00    +0.000 A 
ATOM     21  C   UNL     1       7.806   4.997  12.171  0.00  0.00    +0.000 A 
ATOM     22  C   UNL     1       6.960   3.976  11.727  0.00  0.00    +0.000 A 
ATOM     23  C   UNL     1       6.059   3.376  12.609  0.00  0.00    +0.000 A 
ATOM     24  C   UNL     1       5.996   3.797  13.936  0.00  0.00    +0.000 A 
ENDBRANCH  17  19
ENDBRANCH  14  17
ENDBRANCH   1  14
BRANCH   6  25
ATOM     25  O   UNL     1       3.613   7.405  18.305  0.00  0.00    +0.000 OA
BRANCH  25  26
ATOM     26  C   UNL     1       2.530   8.151  18.700  0.00  0.00    +0.000 A 
ATOM     27  C   UNL     1       2.011   8.190  19.995  0.00  0.00    +0.000 A 
ATOM     28  C   UNL     1       0.837   8.902  20.255  0.00  0.00    +0.000 A 
ATOM     29  C   UNL     1       0.239   9.650  19.242  0.00  0.00    +0.000 A 
ATOM     30 CL   UNL     1      -1.212  10.515  19.566  0.00  0.00    +0.000 Cl
ATOM     31  C   UNL     1       0.813   9.705  17.974  0.00  0.00    +0.000 A 
ATOM     32  C   UNL     1       1.956   8.950  17.704  0.00  0.00    +0.000 A 
ENDBRANCH  25  26
ENDBRANCH   6  25
TORSDOF 7
ENDMDL
MODEL 5
REMARK VINA RESULT:      -9.4      3.268      5.935
REMARK  Name = 
REMARK  7 active torsions:
REMARK  status: ('A' for Active; 'I' for Inactive)
REMARK    1  A    between atoms: S_2  and  N_4
REMARK    2  A    between atoms: S_2  and  C_26
REMARK    3  A    between atoms: N_4  and  C_5
REMARK    4  A    between atoms: C_8  and  S_9
REMARK    5  A    between atoms: S_9  and  C_12
REMARK    6  A    between atoms: C_17  and  O_18
REMARK    7  A    between atoms: O_18  and  C_19
REMARK                            x       y       z     vdW  Elec       q    Type
REMARK                         _______ _______ _______ _____ _____    ______ ____
ROOT
ATOM      1  C   UNL     1       2.784   4.754  17.654  0.00  0.00    +0.000 A 
ATOM      2  C   UNL     1       3.447   4.124  16.593  0.00  0.00    +0.000 A 
ATOM      3  C   UNL     1       4.792   4.387  16.328  0.00  0.00    +0.000 A 
ATOM      4  C   UNL     1       5.487   5.290  17.136  0.00  0.00    +0.000 A 
ATOM      5  C   UNL     1       4.850   5.908  18.216  0.00  0.00    +0.000 A 
ATOM      6  C   UNL     1       3.498   5.637  18.489  0.00  0.00    +0.000 A 
ENDROOT
BRANCH   4   7
ATOM      7  S   UNL     1       7.236   5.550  16.854  0.00  0.00    +0.000 S 
ATOM      8  O   UNL     1       7.914   4.503  17.605  0.00  0.00    +0.000 OA
ATOM      9  O   UNL     1       7.394   5.599  15.407  0.00  0.00    +0.000 OA
BRANCH   7  10
ATOM     10  C   UNL     1       7.539   7.192  17.597  0.00  0.00    +0.000 C 
ATOM     11  F   UNL     1       6.411   7.958  17.659  0.00  0.00    +0.000 F 
ATOM     12  F   UNL     1       8.015   7.109  18.872  0.00  0.00    +0.000 F 
ATOM     13  F   UNL     1       8.453   7.921  16.893  0.00  0.00    +0.000 F 
ENDBRANCH   7  10
ENDBRANCH   4   7
BRANCH   1  14
ATOM     14  N   UNL     1       1.451   4.339  17.903  0.00  0.00    +0.000 N 
ATOM     15  H   UNL     1       0.676   4.786  17.421  0.00  0.00    +0.000 HD
BRANCH  14  17
ATOM     16  O   UNL     1       0.663   4.016  20.243  0.00  0.00    +0.000 OA
ATOM     17  S   UNL     1       1.030   3.239  19.080  0.00  0.00    +0.000 S 
ATOM     18  O   UNL     1       0.133   2.252  18.515  0.00  0.00    +0.000 OA
BRANCH  17  19
ATOM     19  C   UNL     1       2.573   2.436  19.443  0.00  0.00    +0.000 A 
ATOM     20  C   UNL     1       3.244   2.715  20.640  0.00  0.00    +0.000 A 
ATOM     21  C   UNL     1       4.444   2.064  20.920  0.00  0.00    +0.000 A 
ATOM     22  C   UNL     1       4.965   1.136  20.014  0.00  0.00    +0.000 A 
ATOM     23  C   UNL     1       4.282   0.849  18.830  0.00  0.00    +0.000 A 
ATOM     24  C   UNL     1       3.080   1.492  18.545  0.00  0.00    +0.000 A 
ENDBRANCH  17  19
ENDBRANCH  14  17
ENDBRANCH   1  14
BRANCH   6  25
ATOM     25  O   UNL     1       2.997   6.364  19.545  0.00  0.00    +0.000 OA
BRANCH  25  26
ATOM     26  C   UNL     1       2.270   7.513  19.350  0.00  0.00    +0.000 A 
ATOM     27  C   UNL     1       2.132   8.181  18.133  0.00  0.00    +0.000 A 
ATOM     28  C   UNL     1       1.457   9.403  18.080  0.00  0.00    +0.000 A 
ATOM     29  C   UNL     1       0.841   9.907  19.224  0.00  0.00    +0.000 A 
ATOM     30 CL   UNL     1       0.021  11.417  19.155  0.00  0.00    +0.000 Cl
ATOM     31  C   UNL     1       0.880   9.191  20.418  0.00  0.00    +0.000 A 
ATOM     32  C   UNL     1       1.600   7.997  20.480  0.00  0.00    +0.000 A 
ENDBRANCH  25  26
ENDBRANCH   6  25
TORSDOF 7
ENDMDL
MODEL 6
REMARK VINA RESULT:      -9.4      3.272      5.964
REMARK  Name = 
REMARK  7 active torsions:
REMARK  status: ('A' for Active; 'I' for Inactive)
REMARK    1  A    between atoms: S_2  and  N_4
REMARK    2  A    between atoms: S_2  and  C_26
REMARK    3  A    between atoms: N_4  and  C_5
REMARK    4  A    between atoms: C_8  and  S_9
REMARK    5  A    between atoms: S_9  and  C_12
REMARK    6  A    between atoms: C_17  and  O_18
REMARK    7  A    between atoms: O_18  and  C_19
REMARK                            x       y       z     vdW  Elec       q    Type
REMARK                         _______ _______ _______ _____ _____    ______ ____
ROOT
ATOM      1  C   UNL     1       2.781   4.738  17.644  0.00  0.00    +0.000 A 
ATOM      2  C   UNL     1       3.451   4.099  16.593  0.00  0.00    +0.000 A 
ATOM      3  C   UNL     1       4.798   4.359  16.335  0.00  0.00    +0.000 A 
ATOM      4  C   UNL     1       5.488   5.267  17.142  0.00  0.00    +0.000 A 
ATOM      5  C   UNL     1       4.844   5.893  18.213  0.00  0.00    +0.000 A 
ATOM      6  C   UNL     1       3.490   5.626  18.478  0.00  0.00    +0.000 A 
ENDROOT
BRANCH   4   7
ATOM      7  S   UNL     1       7.239   5.522  16.871  0.00  0.00    +0.000 S 
ATOM      8  O   UNL     1       7.911   4.493  17.652  0.00  0.00    +0.000 OA
ATOM      9  O   UNL     1       7.412   5.540  15.425  0.00  0.00    +0.000 OA
BRANCH   7  10
ATOM     10  C   UNL     1       7.534   7.180  17.580  0.00  0.00    +0.000 C 
ATOM     11  F   UNL     1       8.031   7.128  18.851  0.00  0.00    +0.000 F 
ATOM     12  F   UNL     1       8.427   7.910  16.852  0.00  0.00    +0.000 F 
ATOM     13  F   UNL     1       6.395   7.928  17.651  0.00  0.00    +0.000 F 
ENDBRANCH   7  10
ENDBRANCH   4   7
BRANCH   1  14
ATOM     14  N   UNL     1       1.446   4.327  17.886  0.00  0.00    +0.000 N 
ATOM     15  H   UNL     1       0.674   4.770  17.395  0.00  0.00    +0.000 HD
BRANCH  14  17
ATOM     16  O   UNL     1       0.659   4.022  20.229  0.00  0.00    +0.000 OA
ATOM     17  S   UNL     1       1.014   3.236  19.068  0.00  0.00    +0.000 S 
ATOM     18  O   UNL     1       0.104   2.257  18.510  0.00  0.00    +0.000 OA
BRANCH  17  19
ATOM     19  C   UNL     1       2.548   2.416  19.431  0.00  0.00    +0.000 A 
ATOM     20  C   UNL     1       3.084   1.496  18.521  0.00  0.00    +0.000 A 
ATOM     21  C   UNL     1       4.296   0.874  18.811  0.00  0.00    +0.000 A 
ATOM     22  C   UNL     1       4.973   1.175  19.997  0.00  0.00    +0.000 A 
ATOM     23  C   UNL     1       4.442   2.107  20.891  0.00  0.00    +0.000 A 
ATOM     24  C   UNL     1       3.232   2.736  20.608  0.00  0.00    +0.000 A 
ENDBRANCH  17  19
ENDBRANCH  14  17
ENDBRANCH   1  14
BRANCH   6  25
ATOM     25  O   UNL     1       2.981   6.361  19.525  0.00  0.00    +0.000 OA
BRANCH  25  26
ATOM     26  C   UNL     1       2.264   7.513  19.317  0.00  0.00    +0.000 A 
ATOM     27  C   UNL     1       2.134   8.170  18.093  0.00  0.00    +0.000 A 
ATOM     28  C   UNL     1       1.467   9.396  18.026  0.00  0.00    +0.000 A 
ATOM     29  C   UNL     1       0.851   9.916  19.163  0.00  0.00    +0.000 A 
ATOM     30 CL   UNL     1       0.042  11.431  19.077  0.00  0.00    +0.000 Cl
ATOM     31  C   UNL     1       0.882   9.211  20.364  0.00  0.00    +0.000 A 
ATOM     32  C   UNL     1       1.594   8.012  20.440  0.00  0.00    +0.000 A 
ENDBRANCH  25  26
ENDBRANCH   6  25
TORSDOF 7
ENDMDL
MODEL 7
REMARK VINA RESULT:      -9.4      1.966      2.788
REMARK  Name = 
REMARK  7 active torsions:
REMARK  status: ('A' for Active; 'I' for Inactive)
REMARK    1  A    between atoms: S_2  and  N_4
REMARK    2  A    between atoms: S_2  and  C_26
REMARK    3  A    between atoms: N_4  and  C_5
REMARK    4  A    between atoms: C_8  and  S_9
REMARK    5  A    between atoms: S_9  and  C_12
REMARK    6  A    between atoms: C_17  and  O_18
REMARK    7  A    between atoms: O_18  and  C_19
REMARK                            x       y       z     vdW  Elec       q    Type
REMARK                         _______ _______ _______ _____ _____    ______ ____
ROOT
ATOM      1  C   UNL     1       4.146   4.809  16.751  0.00  0.00    +0.000 A 
ATOM      2  C   UNL     1       3.954   3.427  16.868  0.00  0.00    +0.000 A 
ATOM      3  C   UNL     1       3.119   2.899  17.854  0.00  0.00    +0.000 A 
ATOM      4  C   UNL     1       2.462   3.763  18.733  0.00  0.00    +0.000 A 
ATOM      5  C   UNL     1       2.619   5.147  18.614  0.00  0.00    +0.000 A 
ATOM      6  C   UNL     1       3.453   5.680  17.616  0.00  0.00    +0.000 A 
ENDROOT
BRANCH   4   7
ATOM      7  S   UNL     1       1.316   3.088  19.931  0.00  0.00    +0.000 S 
ATOM      8  O   UNL     1       0.360   4.152  20.203  0.00  0.00    +0.000 OA
ATOM      9  O   UNL     1       0.839   1.839  19.354  0.00  0.00    +0.000 OA
BRANCH   7  10
ATOM     10  C   UNL     1       2.373   2.769  21.387  0.00  0.00    +0.000 C 
ATOM     11  F   UNL     1       1.873   1.788  22.196  0.00  0.00    +0.000 F 
ATOM     12  F   UNL     1       3.632   2.374  21.043  0.00  0.00    +0.000 F 
ATOM     13  F   UNL     1       2.519   3.871  22.177  0.00  0.00    +0.000 F 
ENDBRANCH   7  10
ENDBRANCH   4   7
BRANCH   1  14
ATOM     14  N   UNL     1       4.928   5.249  15.653  0.00  0.00    +0.000 N 
ATOM     15  H   UNL     1       4.486   5.693  14.852  0.00  0.00    +0.000 HD
BRANCH  14  17
ATOM     16  O   UNL     1       6.726   3.526  15.699  0.00  0.00    +0.000 OA
ATOM     17  S   UNL     1       6.559   4.948  15.499  0.00  0.00    +0.000 S 
ATOM     18  O   UNL     1       7.060   5.610  14.313  0.00  0.00    +0.000 OA
BRANCH  17  19
ATOM     19  C   UNL     1       7.248   5.767  16.918  0.00  0.00    +0.000 A 
ATOM     20  C   UNL     1       7.424   7.157  16.908  0.00  0.00    +0.000 A 
ATOM     21  C   UNL     1       7.949   7.788  18.034  0.00  0.00    +0.000 A 
ATOM     22  C   UNL     1       8.288   7.038  19.165  0.00  0.00    +0.000 A 
ATOM     23  C   UNL     1       8.092   5.655  19.174  0.00  0.00    +0.000 A 
ATOM     24  C   UNL     1       7.565   5.017  18.054  0.00  0.00    +0.000 A 
ENDBRANCH  17  19
ENDBRANCH  14  17
ENDBRANCH   1  14
BRANCH   6  25
ATOM     25  O   UNL     1       3.553   7.053  17.662  0.00  0.00    +0.000 OA
BRANCH  25  26
ATOM     26  C   UNL     1       2.662   7.819  18.372  0.00  0.00    +0.000 A 
ATOM     27  C   UNL     1       2.323   7.625  19.711  0.00  0.00    +0.000 A 
ATOM     28  C   UNL     1       1.320   8.401  20.297  0.00  0.00    +0.000 A 
ATOM     29  C   UNL     1       0.725   9.432  19.571  0.00  0.00    +0.000 A 
ATOM     30 CL   UNL     1      -0.516  10.377  20.294  0.00  0.00    +0.000 Cl
ATOM     31  C   UNL     1       1.137   9.704  18.268  0.00  0.00    +0.000 A 
ATOM     32  C   UNL     1       2.102   8.892  17.669  0.00  0.00    +0.000 A 
ENDBRANCH  25  26
ENDBRANCH   6  25
TORSDOF 7
ENDMDL
MODEL 8
REMARK VINA RESULT:      -9.4      1.957      2.992
REMARK  Name = 
REMARK  7 active torsions:
REMARK  status: ('A' for Active; 'I' for Inactive)
REMARK    1  A    between atoms: S_2  and  N_4
REMARK    2  A    between atoms: S_2  and  C_26
REMARK    3  A    between atoms: N_4  and  C_5
REMARK    4  A    between atoms: C_8  and  S_9
REMARK    5  A    between atoms: S_9  and  C_12
REMARK    6  A    between atoms: C_17  and  O_18
REMARK    7  A    between atoms: O_18  and  C_19
REMARK                            x       y       z     vdW  Elec       q    Type
REMARK                         _______ _______ _______ _____ _____    ______ ____
ROOT
ATOM      1  C   UNL     1       4.125   4.723  16.724  0.00  0.00    +0.000 A 
ATOM      2  C   UNL     1       3.842   3.352  16.744  0.00  0.00    +0.000 A 
ATOM      3  C   UNL     1       3.008   2.805  17.720  0.00  0.00    +0.000 A 
ATOM      4  C   UNL     1       2.445   3.640  18.688  0.00  0.00    +0.000 A 
ATOM      5  C   UNL     1       2.693   5.015  18.668  0.00  0.00    +0.000 A 
ATOM      6  C   UNL     1       3.526   5.568  17.680  0.00  0.00    +0.000 A 
ENDROOT
BRANCH   4   7
ATOM      7  S   UNL     1       1.297   2.950  19.878  0.00  0.00    +0.000 S 
ATOM      8  O   UNL     1       0.261   3.958  20.052  0.00  0.00    +0.000 OA
ATOM      9  O   UNL     1       0.931   1.642  19.353  0.00  0.00    +0.000 OA
BRANCH   7  10
ATOM     10  C   UNL     1       2.311   2.784  21.389  0.00  0.00    +0.000 C 
ATOM     11  F   UNL     1       1.783   1.897  22.282  0.00  0.00    +0.000 F 
ATOM     12  F   UNL     1       3.577   2.351  21.124  0.00  0.00    +0.000 F 
ATOM     13  F   UNL     1       2.442   3.964  22.061  0.00  0.00    +0.000 F 
ENDBRANCH   7  10
ENDBRANCH   4   7
BRANCH   1  14
ATOM     14  N   UNL     1       4.897   5.194  15.631  0.00  0.00    +0.000 N 
ATOM     15  H   UNL     1       4.445   5.635  14.835  0.00  0.00    +0.000 HD
BRANCH  14  17
ATOM     16  O   UNL     1       6.738   3.517  15.658  0.00  0.00    +0.000 OA
ATOM     17  S   UNL     1       6.535   4.937  15.477  0.00  0.00    +0.000 S 
ATOM     18  O   UNL     1       7.021   5.627  14.300  0.00  0.00    +0.000 OA
BRANCH  17  19
ATOM     19  C   UNL     1       7.202   5.755  16.907  0.00  0.00    +0.000 A 
ATOM     20  C   UNL     1       7.552   5.010  18.040  0.00  0.00    +0.000 A 
ATOM     21  C   UNL     1       8.090   5.663  19.148  0.00  0.00    +0.000 A 
ATOM     22  C   UNL     1       8.284   7.047  19.121  0.00  0.00    +0.000 A 
ATOM     23  C   UNL     1       7.949   7.781  17.981  0.00  0.00    +0.000 A 
ATOM     24  C   UNL     1       7.413   7.136  16.868  0.00  0.00    +0.000 A 
ENDBRANCH  17  19
ENDBRANCH  14  17
ENDBRANCH   1  14
BRANCH   6  25
ATOM     25  O   UNL     1       3.724   6.922  17.826  0.00  0.00    +0.000 OA
BRANCH  25  26
ATOM     26  C   UNL     1       2.748   7.744  18.335  0.00  0.00    +0.000 A 
ATOM     27  C   UNL     1       2.088   8.745  17.621  0.00  0.00    +0.000 A 
ATOM     28  C   UNL     1       1.190   9.592  18.276  0.00  0.00    +0.000 A 
ATOM     29  C   UNL     1       0.883   9.377  19.618  0.00  0.00    +0.000 A 
ATOM     30 CL   UNL     1      -0.215  10.429  20.421  0.00  0.00    +0.000 Cl
ATOM     31  C   UNL     1       1.454   8.310  20.308  0.00  0.00    +0.000 A 
ATOM     32  C   UNL     1       2.392   7.498  19.666  0.00  0.00    +0.000 A 
ENDBRANCH  25  26
ENDBRANCH   6  25
TORSDOF 7
ENDMDL
MODEL 9
REMARK VINA RESULT:      -9.4      2.947      5.771
REMARK  Name = 
REMARK  7 active torsions:
REMARK  status: ('A' for Active; 'I' for Inactive)
REMARK    1  A    between atoms: S_2  and  N_4
REMARK    2  A    between atoms: S_2  and  C_26
REMARK    3  A    between atoms: N_4  and  C_5
REMARK    4  A    between atoms: C_8  and  S_9
REMARK    5  A    between atoms: S_9  and  C_12
REMARK    6  A    between atoms: C_17  and  O_18
REMARK    7  A    between atoms: O_18  and  C_19
REMARK                            x       y       z     vdW  Elec       q    Type
REMARK                         _______ _______ _______ _____ _____    ______ ____
ROOT
ATOM      1  C   UNL     1       2.602   4.945  17.760  0.00  0.00    +0.000 A 
ATOM      2  C   UNL     1       3.410   4.346  16.785  0.00  0.00    +0.000 A 
ATOM      3  C   UNL     1       4.720   4.778  16.572  0.00  0.00    +0.000 A 
ATOM      4  C   UNL     1       5.233   5.820  17.348  0.00  0.00    +0.000 A 
ATOM      5  C   UNL     1       4.452   6.411  18.345  0.00  0.00    +0.000 A 
ATOM      6  C   UNL     1       3.136   5.971  18.565  0.00  0.00    +0.000 A 
ENDROOT
BRANCH   4   7
ATOM      7  S   UNL     1       6.945   6.304  17.140  0.00  0.00    +0.000 S 
ATOM      8  O   UNL     1       7.406   5.610  15.946  0.00  0.00    +0.000 OA
ATOM      9  O   UNL     1       6.942   7.760  17.157  0.00  0.00    +0.000 OA
BRANCH   7  10
ATOM     10  C   UNL     1       7.752   5.638  18.638  0.00  0.00    +0.000 C 
ATOM     11  F   UNL     1       6.859   5.328  19.623  0.00  0.00    +0.000 F 
ATOM     12  F   UNL     1       8.457   4.498  18.390  0.00  0.00    +0.000 F 
ATOM     13  F   UNL     1       8.633   6.521  19.192  0.00  0.00    +0.000 F 
ENDBRANCH   7  10
ENDBRANCH   4   7
BRANCH   1  14
ATOM     14  N   UNL     1       1.325   4.364  17.969  0.00  0.00    +0.000 N 
ATOM     15  H   UNL     1       0.528   4.664  17.414  0.00  0.00    +0.000 HD
BRANCH  14  17
ATOM     16  O   UNL     1       0.717   4.102  20.369  0.00  0.00    +0.000 OA
ATOM     17  S   UNL     1       0.985   3.296  19.199  0.00  0.00    +0.000 S 
ATOM     18  O   UNL     1       0.037   2.307  18.729  0.00  0.00    +0.000 OA
BRANCH  17  19
ATOM     19  C   UNL     1       2.543   2.482  19.461  0.00  0.00    +0.000 A 
ATOM     20  C   UNL     1       3.293   2.758  20.611  0.00  0.00    +0.000 A 
ATOM     21  C   UNL     1       4.505   2.100  20.812  0.00  0.00    +0.000 A 
ATOM     22  C   UNL     1       4.959   1.166  19.875  0.00  0.00    +0.000 A 
ATOM     23  C   UNL     1       4.197   0.883  18.740  0.00  0.00    +0.000 A 
ATOM     24  C   UNL     1       2.983   1.534  18.533  0.00  0.00    +0.000 A 
ENDBRANCH  17  19
ENDBRANCH  14  17
ENDBRANCH   1  14
BRANCH   6  25
ATOM     25  O   UNL     1       2.474   6.688  19.537  0.00  0.00    +0.000 OA
BRANCH  25  26
ATOM     26  C   UNL     1       1.939   7.927  19.283  0.00  0.00    +0.000 A 
ATOM     27  C   UNL     1       1.961   8.574  18.047  0.00  0.00    +0.000 A 
ATOM     28  C   UNL     1       1.480   9.881  17.935  0.00  0.00    +0.000 A 
ATOM     29  C   UNL     1       0.892  10.502  19.035  0.00  0.00    +0.000 A 
ATOM     30 CL   UNL     1       0.312  12.115  18.894  0.00  0.00    +0.000 Cl
ATOM     31  C   UNL     1       0.765   9.821  20.244  0.00  0.00    +0.000 A 
ATOM     32  C   UNL     1       1.295   8.535  20.367  0.00  0.00    +0.000 A 
ENDBRANCH  25  26
ENDBRANCH   6  25
TORSDOF 7
ENDMDL
