MODEL 1
REMARK VINA RESULT:      -7.5      0.000      0.000
REMARK  Name = 
REMARK  10 active torsions:
REMARK  status: ('A' for Active; 'I' for Inactive)
REMARK    1  A    between atoms: C_1  and  O_2
REMARK    2  A    between atoms: O_2  and  C_3
REMARK    3  A    between atoms: C_7  and  O_8
REMARK    4  A    between atoms: O_8  and  C_9
REMARK    5  A    between atoms: C_10  and  C_11
REMARK    6  A    between atoms: C_11  and  O_13
REMARK    7  A    between atoms: O_13  and  C_14
REMARK    8  A    between atoms: C_14  and  C_15
REMARK    9  A    between atoms: N_17  and  C_18
REMARK   10  A    between atoms: N_17  and  C_24
REMARK                            x       y       z     vdW  Elec       q    Type
REMARK                         _______ _______ _______ _____ _____    ______ ____
ROOT
ATOM      1  C   UNL     1       3.431   6.835  18.102  0.00  0.00    +0.000 C 
ATOM      2  O   UNL     1       3.991   7.510  17.227  0.00  0.00    +0.000 OA
ATOM      3  N   UNL     1       3.760   5.467  18.355  0.00  0.00    +0.000 N 
ENDROOT
BRANCH   3   4
ATOM      4  C   UNL     1       4.875   4.979  17.562  0.00  0.00    +0.000 A 
ATOM      5  C   UNL     1       4.699   4.378  16.309  0.00  0.00    +0.000 A 
ATOM      6  C   UNL     1       5.796   4.027  15.513  0.00  0.00    +0.000 A 
ATOM      7  C   UNL     1       7.089   4.201  15.994  0.00  0.00    +0.000 A 
ATOM      8  C   UNL     1       7.284   4.711  17.275  0.00  0.00    +0.000 A 
ATOM      9  C   UNL     1       6.185   5.100  18.051  0.00  0.00    +0.000 A 
ENDBRANCH   3   4
BRANCH   3  10
ATOM     10  C   UNL     1       3.384   4.684  19.607  0.00  0.00    +0.000 C 
ATOM     11  C   UNL     1       1.862   4.511  19.893  0.00  0.00    +0.000 C 
ATOM     12  C   UNL     1       1.148   3.587  18.911  0.00  0.00    +0.000 C 
ATOM     13  C   UNL     1       1.779   2.198  18.881  0.00  0.00    +0.000 C 
ATOM     14  C   UNL     1       3.283   2.279  18.675  0.00  0.00    +0.000 C 
ATOM     15  C   UNL     1       3.918   3.214  19.704  0.00  0.00    +0.000 C 
ENDBRANCH   3  10
BRANCH   1  16
ATOM     16  C   UNL     1       2.311   7.495  18.915  0.00  0.00    +0.000 C 
BRANCH  16  17
ATOM     17  O   UNL     1       1.302   8.162  18.140  0.00  0.00    +0.000 OA
BRANCH  17  18
ATOM     18  C   UNL     1       1.350   9.523  18.131  0.00  0.00    +0.000 C 
ATOM     19  O   UNL     1       2.271  10.139  17.617  0.00  0.00    +0.000 OA
BRANCH  18  25
ATOM     20  C   UNL     1       0.273  10.560  20.168  0.00  0.00    +0.000 A 
ATOM     21  C   UNL     1      -0.735  11.326  20.776  0.00  0.00    +0.000 A 
ATOM     22  C   UNL     1      -1.915  11.607  20.107  0.00  0.00    +0.000 A 
ATOM     23  C   UNL     1      -2.097  11.123  18.819  0.00  0.00    +0.000 A 
ATOM     24  C   UNL     1      -1.075  10.424  18.149  0.00  0.00    +0.000 A 
ATOM     25  C   UNL     1       0.153  10.164  18.808  0.00  0.00    +0.000 A 
BRANCH  20  27
ATOM     26  C   UNL     1       1.144   9.304  21.990  0.00  0.00    +0.000 C 
ATOM     27  O   UNL     1       1.378  10.173  20.887  0.00  0.00    +0.000 OA
ENDBRANCH  20  27
BRANCH  24  28
ATOM     28  O   UNL     1      -1.283   9.927  16.884  0.00  0.00    +0.000 OA
ATOM     29  C   UNL     1      -2.630   9.861  16.422  0.00  0.00    +0.000 C 
ENDBRANCH  24  28
ENDBRANCH  18  25
ENDBRANCH  17  18
ENDBRANCH  16  17
ENDBRANCH   1  16
TORSDOF 8
ENDMDL
MODEL 2
REMARK VINA RESULT:      -7.4      1.381      3.096
REMARK  Name = 
REMARK  10 active torsions:
REMARK  status: ('A' for Active; 'I' for Inactive)
REMARK    1  A    between atoms: C_1  and  O_2
REMARK    2  A    between atoms: O_2  and  C_3
REMARK    3  A    between atoms: C_7  and  O_8
REMARK    4  A    between atoms: O_8  and  C_9
REMARK    5  A    between atoms: C_10  and  C_11
REMARK    6  A    between atoms: C_11  and  O_13
REMARK    7  A    between atoms: O_13  and  C_14
REMARK    8  A    between atoms: C_14  and  C_15
REMARK    9  A    between atoms: N_17  and  C_18
REMARK   10  A    between atoms: N_17  and  C_24
REMARK                            x       y       z     vdW  Elec       q    Type
REMARK                         _______ _______ _______ _____ _____    ______ ____
ROOT
ATOM      1  C   UNL     1       2.684   6.677  18.411  0.00  0.00    +0.000 C 
ATOM      2  O   UNL     1       1.782   6.214  19.125  0.00  0.00    +0.000 OA
ATOM      3  N   UNL     1       3.740   5.874  17.880  0.00  0.00    +0.000 N 
ENDROOT
BRANCH   3   4
ATOM      4  C   UNL     1       3.598   4.458  18.170  0.00  0.00    +0.000 A 
ATOM      5  C   UNL     1       2.758   3.620  17.427  0.00  0.00    +0.000 A 
ATOM      6  C   UNL     1       2.732   2.238  17.650  0.00  0.00    +0.000 A 
ATOM      7  C   UNL     1       3.490   1.683  18.676  0.00  0.00    +0.000 A 
ATOM      8  C   UNL     1       4.261   2.512  19.486  0.00  0.00    +0.000 A 
ATOM      9  C   UNL     1       4.317   3.888  19.233  0.00  0.00    +0.000 A 
ENDBRANCH   3   4
BRANCH   3  10
ATOM     10  C   UNL     1       4.667   6.276  16.739  0.00  0.00    +0.000 C 
ATOM     11  C   UNL     1       5.997   6.984  17.135  0.00  0.00    +0.000 C 
ATOM     12  C   UNL     1       7.000   6.073  17.837  0.00  0.00    +0.000 C 
ATOM     13  C   UNL     1       7.353   4.858  16.984  0.00  0.00    +0.000 C 
ATOM     14  C   UNL     1       6.103   4.144  16.495  0.00  0.00    +0.000 C 
ATOM     15  C   UNL     1       5.161   5.126  15.796  0.00  0.00    +0.000 C 
ENDBRANCH   3  10
BRANCH   1  16
ATOM     16  C   UNL     1       2.678   8.184  18.129  0.00  0.00    +0.000 C 
BRANCH  16  17
ATOM     17  O   UNL     1       1.570   8.909  18.686  0.00  0.00    +0.000 OA
BRANCH  17  18
ATOM     18  C   UNL     1       1.432  10.203  18.285  0.00  0.00    +0.000 C 
ATOM     19  O   UNL     1       2.259  10.757  17.576  0.00  0.00    +0.000 OA
BRANCH  18  25
ATOM     20  C   UNL     1       0.249  11.720  19.922  0.00  0.00    +0.000 A 
ATOM     21  C   UNL     1      -0.860  12.490  20.313  0.00  0.00    +0.000 A 
ATOM     22  C   UNL     1      -2.089  12.329  19.694  0.00  0.00    +0.000 A 
ATOM     23  C   UNL     1      -2.220  11.396  18.676  0.00  0.00    +0.000 A 
ATOM     24  C   UNL     1      -1.111  10.668  18.203  0.00  0.00    +0.000 A 
ATOM     25  C   UNL     1       0.162  10.852  18.800  0.00  0.00    +0.000 A 
BRANCH  20  27
ATOM     26  C   UNL     1       2.043  13.071  20.706  0.00  0.00    +0.000 C 
ATOM     27  O   UNL     1       1.424  11.791  20.630  0.00  0.00    +0.000 OA
ENDBRANCH  20  27
BRANCH  24  28
ATOM     28  O   UNL     1      -1.265   9.727  17.213  0.00  0.00    +0.000 OA
ATOM     29  C   UNL     1      -2.468   9.773  16.450  0.00  0.00    +0.000 C 
ENDBRANCH  24  28
ENDBRANCH  18  25
ENDBRANCH  17  18
ENDBRANCH  16  17
ENDBRANCH   1  16
TORSDOF 8
ENDMDL
MODEL 3
REMARK VINA RESULT:      -7.4      1.193      3.120
REMARK  Name = 
REMARK  10 active torsions:
REMARK  status: ('A' for Active; 'I' for Inactive)
REMARK    1  A    between atoms: C_1  and  O_2
REMARK    2  A    between atoms: O_2  and  C_3
REMARK    3  A    between atoms: C_7  and  O_8
REMARK    4  A    between atoms: O_8  and  C_9
REMARK    5  A    between atoms: C_10  and  C_11
REMARK    6  A    between atoms: C_11  and  O_13
REMARK    7  A    between atoms: O_13  and  C_14
REMARK    8  A    between atoms: C_14  and  C_15
REMARK    9  A    between atoms: N_17  and  C_18
REMARK   10  A    between atoms: N_17  and  C_24
REMARK                            x       y       z     vdW  Elec       q    Type
REMARK                         _______ _______ _______ _____ _____    ______ ____
ROOT
ATOM      1  C   UNL     1       2.697   6.494  18.439  0.00  0.00    +0.000 C 
ATOM      2  O   UNL     1       1.818   5.972  19.139  0.00  0.00    +0.000 OA
ATOM      3  N   UNL     1       3.792   5.756  17.891  0.00  0.00    +0.000 N 
ENDROOT
BRANCH   3   4
ATOM      4  C   UNL     1       3.718   4.328  18.149  0.00  0.00    +0.000 A 
ATOM      5  C   UNL     1       4.443   3.712  19.176  0.00  0.00    +0.000 A 
ATOM      6  C   UNL     1       4.262   2.357  19.480  0.00  0.00    +0.000 A 
ATOM      7  C   UNL     1       3.409   1.578  18.705  0.00  0.00    +0.000 A 
ATOM      8  C   UNL     1       2.750   2.150  17.620  0.00  0.00    +0.000 A 
ATOM      9  C   UNL     1       2.902   3.515  17.346  0.00  0.00    +0.000 A 
ENDBRANCH   3   4
BRANCH   3  10
ATOM     10  C   UNL     1       4.700   6.227  16.763  0.00  0.00    +0.000 C 
ATOM     11  C   UNL     1       6.027   6.931  17.180  0.00  0.00    +0.000 C 
ATOM     12  C   UNL     1       7.048   5.996  17.821  0.00  0.00    +0.000 C 
ATOM     13  C   UNL     1       7.405   4.832  16.901  0.00  0.00    +0.000 C 
ATOM     14  C   UNL     1       6.157   4.129  16.390  0.00  0.00    +0.000 C 
ATOM     15  C   UNL     1       5.196   5.135  15.755  0.00  0.00    +0.000 C 
ENDBRANCH   3  10
BRANCH   1  16
ATOM     16  C   UNL     1       2.619   8.005  18.191  0.00  0.00    +0.000 C 
BRANCH  16  17
ATOM     17  O   UNL     1       1.549   8.684  18.867  0.00  0.00    +0.000 OA
BRANCH  17  18
ATOM     18  C   UNL     1       1.401  10.008  18.586  0.00  0.00    +0.000 C 
ATOM     19  O   UNL     1       2.227  10.633  17.938  0.00  0.00    +0.000 OA
BRANCH  18  25
ATOM     20  C   UNL     1       0.122  11.070  20.488  0.00  0.00    +0.000 A 
ATOM     21  C   UNL     1      -0.975  11.792  20.988  0.00  0.00    +0.000 A 
ATOM     22  C   UNL     1      -2.125  11.950  20.231  0.00  0.00    +0.000 A 
ATOM     23  C   UNL     1      -2.187  11.386  18.965  0.00  0.00    +0.000 A 
ATOM     24  C   UNL     1      -1.077  10.728  18.401  0.00  0.00    +0.000 A 
ATOM     25  C   UNL     1       0.120  10.595  19.150  0.00  0.00    +0.000 A 
BRANCH  20  27
ATOM     26  C   UNL     1       1.066   9.708  22.194  0.00  0.00    +0.000 C 
ATOM     27  O   UNL     1       1.201  10.805  21.296  0.00  0.00    +0.000 OA
ENDBRANCH  20  27
BRANCH  24  28
ATOM     28  O   UNL     1      -1.166  10.151  17.157  0.00  0.00    +0.000 OA
ATOM     29  C   UNL     1      -2.427  10.213  16.497  0.00  0.00    +0.000 C 
ENDBRANCH  24  28
ENDBRANCH  18  25
ENDBRANCH  17  18
ENDBRANCH  16  17
ENDBRANCH   1  16
TORSDOF 8
ENDMDL
MODEL 4
REMARK VINA RESULT:      -7.3      1.424      2.242
REMARK  Name = 
REMARK  10 active torsions:
REMARK  status: ('A' for Active; 'I' for Inactive)
REMARK    1  A    between atoms: C_1  and  O_2
REMARK    2  A    between atoms: O_2  and  C_3
REMARK    3  A    between atoms: C_7  and  O_8
REMARK    4  A    between atoms: O_8  and  C_9
REMARK    5  A    between atoms: C_10  and  C_11
REMARK    6  A    between atoms: C_11  and  O_13
REMARK    7  A    between atoms: O_13  and  C_14
REMARK    8  A    between atoms: C_14  and  C_15
REMARK    9  A    between atoms: N_17  and  C_18
REMARK   10  A    between atoms: N_17  and  C_24
REMARK                            x       y       z     vdW  Elec       q    Type
REMARK                         _______ _______ _______ _____ _____    ______ ____
ROOT
ATOM      1  C   UNL     1       3.321   6.657  18.319  0.00  0.00    +0.000 C 
ATOM      2  O   UNL     1       3.818   7.370  17.436  0.00  0.00    +0.000 OA
ATOM      3  N   UNL     1       3.741   5.312  18.556  0.00  0.00    +0.000 N 
ENDROOT
BRANCH   3   4
ATOM      4  C   UNL     1       4.868   4.900  17.736  0.00  0.00    +0.000 A 
ATOM      5  C   UNL     1       4.705   4.326  16.470  0.00  0.00    +0.000 A 
ATOM      6  C   UNL     1       5.807   4.050  15.652  0.00  0.00    +0.000 A 
ATOM      7  C   UNL     1       7.097   4.272  16.123  0.00  0.00    +0.000 A 
ATOM      8  C   UNL     1       7.283   4.755  17.416  0.00  0.00    +0.000 A 
ATOM      9  C   UNL     1       6.177   5.070  18.215  0.00  0.00    +0.000 A 
ENDBRANCH   3   4
BRANCH   3  10
ATOM     10  C   UNL     1       3.441   4.500  19.810  0.00  0.00    +0.000 C 
ATOM     11  C   UNL     1       1.946   4.402  20.239  0.00  0.00    +0.000 C 
ATOM     12  C   UNL     1       1.086   3.561  19.300  0.00  0.00    +0.000 C 
ATOM     13  C   UNL     1       1.626   2.141  19.158  0.00  0.00    +0.000 C 
ATOM     14  C   UNL     1       3.105   2.145  18.806  0.00  0.00    +0.000 C 
ATOM     15  C   UNL     1       3.892   2.999  19.801  0.00  0.00    +0.000 C 
ENDBRANCH   3  10
BRANCH   1  16
ATOM     16  C   UNL     1       2.177   7.240  19.158  0.00  0.00    +0.000 C 
BRANCH  16  17
ATOM     17  O   UNL     1       2.235   8.659  19.373  0.00  0.00    +0.000 OA
BRANCH  17  18
ATOM     18  C   UNL     1       1.286   9.404  18.742  0.00  0.00    +0.000 C 
ATOM     19  O   UNL     1       0.888   9.137  17.619  0.00  0.00    +0.000 OA
BRANCH  18  25
ATOM     20  C   UNL     1       1.172  11.885  19.209  0.00  0.00    +0.000 A 
ATOM     21  C   UNL     1       0.586  12.998  19.834  0.00  0.00    +0.000 A 
ATOM     22  C   UNL     1      -0.280  12.837  20.904  0.00  0.00    +0.000 A 
ATOM     23  C   UNL     1      -0.568  11.558  21.357  0.00  0.00    +0.000 A 
ATOM     24  C   UNL     1      -0.065  10.418  20.702  0.00  0.00    +0.000 A 
ATOM     25  C   UNL     1       0.791  10.568  19.581  0.00  0.00    +0.000 A 
BRANCH  20  27
ATOM     26  C   UNL     1       2.864  13.281  18.289  0.00  0.00    +0.000 C 
ATOM     27  O   UNL     1       2.131  12.061  18.241  0.00  0.00    +0.000 OA
ENDBRANCH  20  27
BRANCH  24  28
ATOM     28  O   UNL     1      -0.337   9.159  21.183  0.00  0.00    +0.000 OA
ATOM     29  C   UNL     1      -0.437   9.008  22.596  0.00  0.00    +0.000 C 
ENDBRANCH  24  28
ENDBRANCH  18  25
ENDBRANCH  17  18
ENDBRANCH  16  17
ENDBRANCH   1  16
TORSDOF 8
ENDMDL
MODEL 5
REMARK VINA RESULT:      -7.3      1.475      1.982
REMARK  Name = 
REMARK  10 active torsions:
REMARK  status: ('A' for Active; 'I' for Inactive)
REMARK    1  A    between atoms: C_1  and  O_2
REMARK    2  A    between atoms: O_2  and  C_3
REMARK    3  A    between atoms: C_7  and  O_8
REMARK    4  A    between atoms: O_8  and  C_9
REMARK    5  A    between atoms: C_10  and  C_11
REMARK    6  A    between atoms: C_11  and  O_13
REMARK    7  A    between atoms: O_13  and  C_14
REMARK    8  A    between atoms: C_14  and  C_15
REMARK    9  A    between atoms: N_17  and  C_18
REMARK   10  A    between atoms: N_17  and  C_24
REMARK                            x       y       z     vdW  Elec       q    Type
REMARK                         _______ _______ _______ _____ _____    ______ ____
ROOT
ATOM      1  C   UNL     1       3.278   6.651  18.265  0.00  0.00    +0.000 C 
ATOM      2  O   UNL     1       3.771   7.363  17.380  0.00  0.00    +0.000 OA
ATOM      3  N   UNL     1       3.719   5.316  18.521  0.00  0.00    +0.000 N 
ENDROOT
BRANCH   3   4
ATOM      4  C   UNL     1       4.862   4.916  17.718  0.00  0.00    +0.000 A 
ATOM      5  C   UNL     1       4.722   4.341  16.449  0.00  0.00    +0.000 A 
ATOM      6  C   UNL     1       5.838   4.076  15.646  0.00  0.00    +0.000 A 
ATOM      7  C   UNL     1       7.119   4.310  16.135  0.00  0.00    +0.000 A 
ATOM      8  C   UNL     1       7.283   4.794  17.431  0.00  0.00    +0.000 A 
ATOM      9  C   UNL     1       6.162   5.097  18.215  0.00  0.00    +0.000 A 
ENDBRANCH   3   4
BRANCH   3  10
ATOM     10  C   UNL     1       3.422   4.513  19.781  0.00  0.00    +0.000 C 
ATOM     11  C   UNL     1       1.926   4.402  20.204  0.00  0.00    +0.000 C 
ATOM     12  C   UNL     1       1.080   3.544  19.269  0.00  0.00    +0.000 C 
ATOM     13  C   UNL     1       1.635   2.128  19.143  0.00  0.00    +0.000 C 
ATOM     14  C   UNL     1       3.117   2.145  18.799  0.00  0.00    +0.000 C 
ATOM     15  C   UNL     1       3.889   3.017  19.789  0.00  0.00    +0.000 C 
ENDBRANCH   3  10
BRANCH   1  16
ATOM     16  C   UNL     1       2.116   7.222  19.087  0.00  0.00    +0.000 C 
BRANCH  16  17
ATOM     17  O   UNL     1       2.210   8.623  19.393  0.00  0.00    +0.000 OA
BRANCH  17  18
ATOM     18  C   UNL     1       1.322   9.439  18.762  0.00  0.00    +0.000 C 
ATOM     19  O   UNL     1       0.902   9.202  17.640  0.00  0.00    +0.000 OA
BRANCH  18  25
ATOM     20  C   UNL     1       0.014  10.444  20.676  0.00  0.00    +0.000 A 
ATOM     21  C   UNL     1      -0.235  11.480  21.593  0.00  0.00    +0.000 A 
ATOM     22  C   UNL     1       0.300  12.743  21.398  0.00  0.00    +0.000 A 
ATOM     23  C   UNL     1       1.090  12.981  20.284  0.00  0.00    +0.000 A 
ATOM     24  C   UNL     1       1.429  11.947  19.391  0.00  0.00    +0.000 A 
ATOM     25  C   UNL     1       0.921  10.639  19.600  0.00  0.00    +0.000 A 
BRANCH  20  27
ATOM     26  C   UNL     1      -0.431   8.541  22.032  0.00  0.00    +0.000 C 
ATOM     27  O   UNL     1      -0.629   9.237  20.806  0.00  0.00    +0.000 OA
ENDBRANCH  20  27
BRANCH  24  28
ATOM     28  O   UNL     1       2.190  12.207  18.276  0.00  0.00    +0.000 OA
ATOM     29  C   UNL     1       2.581  13.559  18.055  0.00  0.00    +0.000 C 
ENDBRANCH  24  28
ENDBRANCH  18  25
ENDBRANCH  17  18
ENDBRANCH  16  17
ENDBRANCH   1  16
TORSDOF 8
ENDMDL
MODEL 6
REMARK VINA RESULT:      -7.3      1.387      3.810
REMARK  Name = 
REMARK  10 active torsions:
REMARK  status: ('A' for Active; 'I' for Inactive)
REMARK    1  A    between atoms: C_1  and  O_2
REMARK    2  A    between atoms: O_2  and  C_3
REMARK    3  A    between atoms: C_7  and  O_8
REMARK    4  A    between atoms: O_8  and  C_9
REMARK    5  A    between atoms: C_10  and  C_11
REMARK    6  A    between atoms: C_11  and  O_13
REMARK    7  A    between atoms: O_13  and  C_14
REMARK    8  A    between atoms: C_14  and  C_15
REMARK    9  A    between atoms: N_17  and  C_18
REMARK   10  A    between atoms: N_17  and  C_24
REMARK                            x       y       z     vdW  Elec       q    Type
REMARK                         _______ _______ _______ _____ _____    ______ ____
ROOT
ATOM      1  C   UNL     1       2.784   6.655  18.521  0.00  0.00    +0.000 C 
ATOM      2  O   UNL     1       1.897   6.219  19.268  0.00  0.00    +0.000 OA
ATOM      3  N   UNL     1       3.795   5.821  17.950  0.00  0.00    +0.000 N 
ENDROOT
BRANCH   3   4
ATOM      4  C   UNL     1       3.623   4.410  18.247  0.00  0.00    +0.000 A 
ATOM      5  C   UNL     1       2.758   3.589  17.514  0.00  0.00    +0.000 A 
ATOM      6  C   UNL     1       2.701   2.208  17.743  0.00  0.00    +0.000 A 
ATOM      7  C   UNL     1       3.454   1.640  18.765  0.00  0.00    +0.000 A 
ATOM      8  C   UNL     1       4.250   2.454  19.566  0.00  0.00    +0.000 A 
ATOM      9  C   UNL     1       4.336   3.828  19.308  0.00  0.00    +0.000 A 
ENDBRANCH   3   4
BRANCH   3  10
ATOM     10  C   UNL     1       4.690   6.195  16.775  0.00  0.00    +0.000 C 
ATOM     11  C   UNL     1       6.009   6.953  17.113  0.00  0.00    +0.000 C 
ATOM     12  C   UNL     1       7.047   6.098  17.834  0.00  0.00    +0.000 C 
ATOM     13  C   UNL     1       7.416   4.857  17.027  0.00  0.00    +0.000 C 
ATOM     14  C   UNL     1       6.175   4.091  16.595  0.00  0.00    +0.000 C 
ATOM     15  C   UNL     1       5.195   5.018  15.873  0.00  0.00    +0.000 C 
ENDBRANCH   3  10
BRANCH   1  16
ATOM     16  C   UNL     1       2.812   8.161  18.237  0.00  0.00    +0.000 C 
BRANCH  16  17
ATOM     17  O   UNL     1       1.681   8.900  18.727  0.00  0.00    +0.000 OA
BRANCH  17  18
ATOM     18  C   UNL     1       1.583  10.195  18.317  0.00  0.00    +0.000 C 
ATOM     19  O   UNL     1       2.359  10.684  17.510  0.00  0.00    +0.000 OA
BRANCH  18  25
ATOM     20  C   UNL     1      -0.891  10.684  18.476  0.00  0.00    +0.000 A 
ATOM     21  C   UNL     1      -2.007  11.194  19.161  0.00  0.00    +0.000 A 
ATOM     22  C   UNL     1      -1.849  12.046  20.242  0.00  0.00    +0.000 A 
ATOM     23  C   UNL     1      -0.570  12.395  20.649  0.00  0.00    +0.000 A 
ATOM     24  C   UNL     1       0.571  11.838  20.041  0.00  0.00    +0.000 A 
ATOM     25  C   UNL     1       0.422  10.933  18.958  0.00  0.00    +0.000 A 
BRANCH  20  27
ATOM     26  C   UNL     1      -2.369   9.942  16.768  0.00  0.00    +0.000 C 
ATOM     27  O   UNL     1      -1.059   9.952  17.326  0.00  0.00    +0.000 OA
ENDBRANCH  20  27
BRANCH  24  28
ATOM     28  O   UNL     1       1.831  12.217  20.438  0.00  0.00    +0.000 OA
ATOM     29  C   UNL     1       2.110  13.614  20.475  0.00  0.00    +0.000 C 
ENDBRANCH  24  28
ENDBRANCH  18  25
ENDBRANCH  17  18
ENDBRANCH  16  17
ENDBRANCH   1  16
TORSDOF 8
ENDMDL
MODEL 7
REMARK VINA RESULT:      -7.3      1.277      1.869
REMARK  Name = 
REMARK  10 active torsions:
REMARK  status: ('A' for Active; 'I' for Inactive)
REMARK    1  A    between atoms: C_1  and  O_2
REMARK    2  A    between atoms: O_2  and  C_3
REMARK    3  A    between atoms: C_7  and  O_8
REMARK    4  A    between atoms: O_8  and  C_9
REMARK    5  A    between atoms: C_10  and  C_11
REMARK    6  A    between atoms: C_11  and  O_13
REMARK    7  A    between atoms: O_13  and  C_14
REMARK    8  A    between atoms: C_14  and  C_15
REMARK    9  A    between atoms: N_17  and  C_18
REMARK   10  A    between atoms: N_17  and  C_24
REMARK                            x       y       z     vdW  Elec       q    Type
REMARK                         _______ _______ _______ _____ _____    ______ ____
ROOT
ATOM      1  C   UNL     1       2.879   6.889  19.053  0.00  0.00    +0.000 C 
ATOM      2  O   UNL     1       3.339   7.687  18.225  0.00  0.00    +0.000 OA
ATOM      3  N   UNL     1       3.287   5.521  19.121  0.00  0.00    +0.000 N 
ENDROOT
BRANCH   3   4
ATOM      4  C   UNL     1       4.360   5.187  18.199  0.00  0.00    +0.000 A 
ATOM      5  C   UNL     1       5.711   5.317  18.542  0.00  0.00    +0.000 A 
ATOM      6  C   UNL     1       6.723   4.875  17.681  0.00  0.00    +0.000 A 
ATOM      7  C   UNL     1       6.398   4.367  16.427  0.00  0.00    +0.000 A 
ATOM      8  C   UNL     1       5.064   4.316  16.031  0.00  0.00    +0.000 A 
ATOM      9  C   UNL     1       4.053   4.720  16.911  0.00  0.00    +0.000 A 
ENDBRANCH   3   4
BRANCH   3  10
ATOM     10  C   UNL     1       3.043   4.582  20.295  0.00  0.00    +0.000 C 
ATOM     11  C   UNL     1       1.556   4.294  20.664  0.00  0.00    +0.000 C 
ATOM     12  C   UNL     1       0.815   3.448  19.632  0.00  0.00    +0.000 C 
ATOM     13  C   UNL     1       1.507   2.108  19.397  0.00  0.00    +0.000 C 
ATOM     14  C   UNL     1       2.987   2.296  19.098  0.00  0.00    +0.000 C 
ATOM     15  C   UNL     1       3.652   3.143  20.184  0.00  0.00    +0.000 C 
ENDBRANCH   3  10
BRANCH   1  16
ATOM     16  C   UNL     1       1.794   7.391  20.013  0.00  0.00    +0.000 C 
BRANCH  16  17
ATOM     17  O   UNL     1       1.430   8.772  19.861  0.00  0.00    +0.000 OA
BRANCH  17  18
ATOM     18  C   UNL     1       0.277   9.164  20.471  0.00  0.00    +0.000 C 
ATOM     19  O   UNL     1      -0.314   8.450  21.267  0.00  0.00    +0.000 OA
BRANCH  18  25
ATOM     20  C   UNL     1      -0.200  11.577  21.049  0.00  0.00    +0.000 A 
ATOM     21  C   UNL     1      -0.417  12.915  20.681  0.00  0.00    +0.000 A 
ATOM     22  C   UNL     1      -0.725  13.250  19.372  0.00  0.00    +0.000 A 
ATOM     23  C   UNL     1      -0.817  12.246  18.418  0.00  0.00    +0.000 A 
ATOM     24  C   UNL     1      -0.523  10.906  18.734  0.00  0.00    +0.000 A 
ATOM     25  C   UNL     1      -0.168  10.556  20.062  0.00  0.00    +0.000 A 
BRANCH  20  27
ATOM     26  C   UNL     1      -1.205  11.224  23.176  0.00  0.00    +0.000 C 
ATOM     27  O   UNL     1      -0.030  11.242  22.371  0.00  0.00    +0.000 OA
ENDBRANCH  20  27
BRANCH  24  28
ATOM     28  O   UNL     1      -0.647   9.921  17.784  0.00  0.00    +0.000 OA
ATOM     29  C   UNL     1      -1.867   9.873  17.049  0.00  0.00    +0.000 C 
ENDBRANCH  24  28
ENDBRANCH  18  25
ENDBRANCH  17  18
ENDBRANCH  16  17
ENDBRANCH   1  16
TORSDOF 8
ENDMDL
MODEL 8
REMARK VINA RESULT:      -7.2      1.794      3.779
REMARK  Name = 
REMARK  10 active torsions:
REMARK  status: ('A' for Active; 'I' for Inactive)
REMARK    1  A    between atoms: C_1  and  O_2
REMARK    2  A    between atoms: O_2  and  C_3
REMARK    3  A    between atoms: C_7  and  O_8
REMARK    4  A    between atoms: O_8  and  C_9
REMARK    5  A    between atoms: C_10  and  C_11
REMARK    6  A    between atoms: C_11  and  O_13
REMARK    7  A    between atoms: O_13  and  C_14
REMARK    8  A    between atoms: C_14  and  C_15
REMARK    9  A    between atoms: N_17  and  C_18
REMARK   10  A    between atoms: N_17  and  C_24
REMARK                            x       y       z     vdW  Elec       q    Type
REMARK                         _______ _______ _______ _____ _____    ______ ____
ROOT
ATOM      1  C   UNL     1       2.636   6.536  18.507  0.00  0.00    +0.000 C 
ATOM      2  O   UNL     1       1.755   6.034  19.220  0.00  0.00    +0.000 OA
ATOM      3  N   UNL     1       3.696   5.770  17.930  0.00  0.00    +0.000 N 
ENDROOT
BRANCH   3   4
ATOM      4  C   UNL     1       3.582   4.342  18.174  0.00  0.00    +0.000 A 
ATOM      5  C   UNL     1       2.737   3.517  17.421  0.00  0.00    +0.000 A 
ATOM      6  C   UNL     1       2.737   2.128  17.596  0.00  0.00    +0.000 A 
ATOM      7  C   UNL     1       3.527   1.550  18.584  0.00  0.00    +0.000 A 
ATOM      8  C   UNL     1       4.304   2.362  19.405  0.00  0.00    +0.000 A 
ATOM      9  C   UNL     1       4.334   3.747  19.200  0.00  0.00    +0.000 A 
ENDBRANCH   3   4
BRANCH   3  10
ATOM     10  C   UNL     1       4.596   6.225  16.789  0.00  0.00    +0.000 C 
ATOM     11  C   UNL     1       5.910   6.963  17.185  0.00  0.00    +0.000 C 
ATOM     12  C   UNL     1       6.948   6.064  17.852  0.00  0.00    +0.000 C 
ATOM     13  C   UNL     1       7.325   4.881  16.965  0.00  0.00    +0.000 C 
ATOM     14  C   UNL     1       6.089   4.143  16.475  0.00  0.00    +0.000 C 
ATOM     15  C   UNL     1       5.111   5.114  15.812  0.00  0.00    +0.000 C 
ENDBRANCH   3  10
BRANCH   1  16
ATOM     16  C   UNL     1       2.602   8.052  18.277  0.00  0.00    +0.000 C 
BRANCH  16  17
ATOM     17  O   UNL     1       1.892   8.808  19.272  0.00  0.00    +0.000 OA
BRANCH  17  18
ATOM     18  C   UNL     1       0.976   9.703  18.809  0.00  0.00    +0.000 C 
ATOM     19  O   UNL     1       0.388   9.546  17.750  0.00  0.00    +0.000 OA
BRANCH  18  25
ATOM     20  C   UNL     1       1.338  12.136  19.387  0.00  0.00    +0.000 A 
ATOM     21  C   UNL     1       1.017  13.293  20.117  0.00  0.00    +0.000 A 
ATOM     22  C   UNL     1       0.247  13.216  21.267  0.00  0.00    +0.000 A 
ATOM     23  C   UNL     1      -0.210  11.978  21.696  0.00  0.00    +0.000 A 
ATOM     24  C   UNL     1       0.022  10.811  20.943  0.00  0.00    +0.000 A 
ATOM     25  C   UNL     1       0.774  10.882  19.744  0.00  0.00    +0.000 A 
BRANCH  20  27
ATOM     26  C   UNL     1       3.019  13.376  18.251  0.00  0.00    +0.000 C 
ATOM     27  O   UNL     1       2.212  12.206  18.329  0.00  0.00    +0.000 OA
ENDBRANCH  20  27
BRANCH  24  28
ATOM     28  O   UNL     1      -0.414   9.589  21.398  0.00  0.00    +0.000 OA
ATOM     29  C   UNL     1      -0.384   9.368  22.806  0.00  0.00    +0.000 C 
ENDBRANCH  24  28
ENDBRANCH  18  25
ENDBRANCH  17  18
ENDBRANCH  16  17
ENDBRANCH   1  16
TORSDOF 8
ENDMDL
MODEL 9
REMARK VINA RESULT:      -7.2      1.364      1.642
REMARK  Name = 
REMARK  10 active torsions:
REMARK  status: ('A' for Active; 'I' for Inactive)
REMARK    1  A    between atoms: C_1  and  O_2
REMARK    2  A    between atoms: O_2  and  C_3
REMARK    3  A    between atoms: C_7  and  O_8
REMARK    4  A    between atoms: O_8  and  C_9
REMARK    5  A    between atoms: C_10  and  C_11
REMARK    6  A    between atoms: C_11  and  O_13
REMARK    7  A    between atoms: O_13  and  C_14
REMARK    8  A    between atoms: C_14  and  C_15
REMARK    9  A    between atoms: N_17  and  C_18
REMARK   10  A    between atoms: N_17  and  C_24
REMARK                            x       y       z     vdW  Elec       q    Type
REMARK                         _______ _______ _______ _____ _____    ______ ____
ROOT
ATOM      1  C   UNL     1       3.080   6.967  18.621  0.00  0.00    +0.000 C 
ATOM      2  O   UNL     1       3.522   7.645  17.683  0.00  0.00    +0.000 OA
ATOM      3  N   UNL     1       3.479   5.615  18.854  0.00  0.00    +0.000 N 
ENDROOT
BRANCH   3   4
ATOM      4  C   UNL     1       4.520   5.150  17.953  0.00  0.00    +0.000 A 
ATOM      5  C   UNL     1       4.234   4.552  16.720  0.00  0.00    +0.000 A 
ATOM      6  C   UNL     1       5.254   4.225  15.819  0.00  0.00    +0.000 A 
ATOM      7  C   UNL     1       6.585   4.418  16.174  0.00  0.00    +0.000 A 
ATOM      8  C   UNL     1       6.894   4.925  17.433  0.00  0.00    +0.000 A 
ATOM      9  C   UNL     1       5.869   5.291  18.315  0.00  0.00    +0.000 A 
ENDBRANCH   3   4
BRANCH   3  10
ATOM     10  C   UNL     1       3.262   4.839  20.147  0.00  0.00    +0.000 C 
ATOM     11  C   UNL     1       1.807   4.799  20.704  0.00  0.00    +0.000 C 
ATOM     12  C   UNL     1       0.844   3.968  19.862  0.00  0.00    +0.000 C 
ATOM     13  C   UNL     1       1.326   2.528  19.708  0.00  0.00    +0.000 C 
ATOM     14  C   UNL     1       2.769   2.477  19.232  0.00  0.00    +0.000 C 
ATOM     15  C   UNL     1       3.664   3.325  20.136  0.00  0.00    +0.000 C 
ENDBRANCH   3  10
BRANCH   1  16
ATOM     16  C   UNL     1       2.029   7.603  19.539  0.00  0.00    +0.000 C 
BRANCH  16  17
ATOM     17  O   UNL     1       1.566   8.902  19.135  0.00  0.00    +0.000 OA
BRANCH  17  18
ATOM     18  C   UNL     1       0.777   9.564  20.024  0.00  0.00    +0.000 C 
ATOM     19  O   UNL     1       0.575   9.147  21.154  0.00  0.00    +0.000 OA
BRANCH  18  25
ATOM     20  C   UNL     1       0.838  12.079  19.784  0.00  0.00    +0.000 A 
ATOM     21  C   UNL     1       0.460  13.267  19.136  0.00  0.00    +0.000 A 
ATOM     22  C   UNL     1      -0.618  13.289  18.266  0.00  0.00    +0.000 A 
ATOM     23  C   UNL     1      -1.327  12.120  18.035  0.00  0.00    +0.000 A 
ATOM     24  C   UNL     1      -0.926  10.895  18.601  0.00  0.00    +0.000 A 
ATOM     25  C   UNL     1       0.200  10.851  19.462  0.00  0.00    +0.000 A 
BRANCH  20  27
ATOM     26  C   UNL     1       2.521  13.325  20.912  0.00  0.00    +0.000 C 
ATOM     27  O   UNL     1       1.820  12.097  20.745  0.00  0.00    +0.000 OA
ENDBRANCH  20  27
BRANCH  24  28
ATOM     28  O   UNL     1      -1.658   9.752  18.384  0.00  0.00    +0.000 OA
ATOM     29  C   UNL     1      -2.682   9.811  17.395  0.00  0.00    +0.000 C 
ENDBRANCH  24  28
ENDBRANCH  18  25
ENDBRANCH  17  18
ENDBRANCH  16  17
ENDBRANCH   1  16
TORSDOF 8
ENDMDL
