MODEL 1
REMARK VINA RESULT:      -8.0      0.000      0.000
REMARK  Name = 
REMARK  7 active torsions:
REMARK  status: ('A' for Active; 'I' for Inactive)
REMARK    1  A    between atoms: C_1  and  O_2
REMARK    2  A    between atoms: O_2  and  C_3
REMARK    3  A    between atoms: C_8  and  N_9
REMARK    4  A    between atoms: N_12  and  C_13
REMARK    5  A    between atoms: C_13  and  C_14
REMARK    6  A    between atoms: C_14  and  N_15
REMARK    7  A    between atoms: C_16  and  C_18
REMARK                            x       y       z     vdW  Elec       q    Type
REMARK                         _______ _______ _______ _____ _____    ______ ____
ROOT
ATOM      1  C   UNL     1       4.900   5.781  18.740  0.00  0.00    +0.000 C 
ENDROOT
BRANCH   1   2
ATOM      2  N   UNL     1       4.583   4.574  17.900  0.00  0.00    +0.000 N 
ATOM      3  C   UNL     1       3.686   3.498  18.051  0.00  0.00    +0.000 C 
ATOM      4  O   UNL     1       3.458   2.684  17.146  0.00  0.00    +0.000 OA
ATOM      5  C   UNL     1       5.366   4.579  16.694  0.00  0.00    +0.000 A 
ATOM      6  C   UNL     1       4.757   4.473  15.443  0.00  0.00    +0.000 A 
ATOM      7  C   UNL     1       5.551   4.443  14.297  0.00  0.00    +0.000 A 
ATOM      8  C   UNL     1       6.931   4.495  14.429  0.00  0.00    +0.000 A 
ATOM      9  C   UNL     1       7.455   4.630  15.703  0.00  0.00    +0.000 A 
ATOM     10  N   UNL     1       6.705   4.717  16.825  0.00  0.00    +0.000 NA
BRANCH   3  11
ATOM     11  C   UNL     1       2.925   3.191  19.294  0.00  0.00    +0.000 A 
ATOM     12  C   UNL     1       1.522   3.302  19.255  0.00  0.00    +0.000 A 
ATOM     13  C   UNL     1       0.746   3.004  20.379  0.00  0.00    +0.000 A 
ATOM     14  C   UNL     1       1.373   2.639  21.562  0.00  0.00    +0.000 A 
ATOM     15  F   UNL     1       0.642   2.415  22.660  0.00  0.00    +0.000 F 
ATOM     16  C   UNL     1       2.750   2.464  21.605  0.00  0.00    +0.000 A 
ATOM     17  C   UNL     1       3.507   2.646  20.441  0.00  0.00    +0.000 A 
ENDBRANCH   3  11
ENDBRANCH   1   2
BRANCH   1  18
ATOM     18  C   UNL     1       4.030   7.031  18.586  0.00  0.00    +0.000 C 
BRANCH  18  22
ATOM     19  N   UNL     1       1.326   9.304  19.444  0.00  0.00    +0.000 N 
ATOM     20  C   UNL     1       1.749   8.191  20.304  0.00  0.00    +0.000 C 
ATOM     21  C   UNL     1       1.736   6.879  19.493  0.00  0.00    +0.000 C 
ATOM     22  N   UNL     1       2.593   6.909  18.287  0.00  0.00    +0.000 NA
ATOM     23  C   UNL     1       2.185   8.085  17.455  0.00  0.00    +0.000 C 
ATOM     24  C   UNL     1       2.087   9.450  18.196  0.00  0.00    +0.000 C 
BRANCH  19  30
ATOM     25  C   UNL     1       0.050  10.685  21.060  0.00  0.00    +0.000 A 
ATOM     26  C   UNL     1      -1.042  11.536  21.303  0.00  0.00    +0.000 A 
ATOM     27  C   UNL     1      -1.925  11.869  20.285  0.00  0.00    +0.000 A 
ATOM     28  C   UNL     1      -1.737  11.352  19.013  0.00  0.00    +0.000 A 
ATOM     29  C   UNL     1      -0.658  10.497  18.759  0.00  0.00    +0.000 A 
ATOM     30  C   UNL     1       0.262  10.137  19.763  0.00  0.00    +0.000 A 
BRANCH  25  32
ATOM     31  C   UNL     1       0.193   9.569  23.142  0.00  0.00    +0.000 C 
ATOM     32  O   UNL     1       0.860  10.265  22.092  0.00  0.00    +0.000 OA
ENDBRANCH  25  32
ENDBRANCH  19  30
ENDBRANCH  18  22
ENDBRANCH   1  18
TORSDOF 6
ENDMDL
MODEL 2
REMARK VINA RESULT:      -7.9      0.934      1.618
REMARK  Name = 
REMARK  7 active torsions:
REMARK  status: ('A' for Active; 'I' for Inactive)
REMARK    1  A    between atoms: C_1  and  O_2
REMARK    2  A    between atoms: O_2  and  C_3
REMARK    3  A    between atoms: C_8  and  N_9
REMARK    4  A    between atoms: N_12  and  C_13
REMARK    5  A    between atoms: C_13  and  C_14
REMARK    6  A    between atoms: C_14  and  N_15
REMARK    7  A    between atoms: C_16  and  C_18
REMARK                            x       y       z     vdW  Elec       q    Type
REMARK                         _______ _______ _______ _____ _____    ______ ____
ROOT
ATOM      1  C   UNL     1       4.482   6.064  18.406  0.00  0.00    +0.000 C 
ENDROOT
BRANCH   1   2
ATOM      2  N   UNL     1       4.475   4.720  17.729  0.00  0.00    +0.000 N 
ATOM      3  C   UNL     1       3.794   3.513  17.981  0.00  0.00    +0.000 C 
ATOM      4  O   UNL     1       3.803   2.561  17.190  0.00  0.00    +0.000 OA
ATOM      5  C   UNL     1       5.337   4.731  16.579  0.00  0.00    +0.000 A 
ATOM      6  C   UNL     1       4.864   4.344  15.324  0.00  0.00    +0.000 A 
ATOM      7  C   UNL     1       5.740   4.331  14.239  0.00  0.00    +0.000 A 
ATOM      8  C   UNL     1       7.068   4.678  14.436  0.00  0.00    +0.000 A 
ATOM      9  C   UNL     1       7.450   5.078  15.705  0.00  0.00    +0.000 A 
ATOM     10  N   UNL     1       6.609   5.153  16.761  0.00  0.00    +0.000 NA
BRANCH   3  11
ATOM     11  C   UNL     1       3.009   3.219  19.212  0.00  0.00    +0.000 A 
ATOM     12  C   UNL     1       1.606   3.305  19.138  0.00  0.00    +0.000 A 
ATOM     13  C   UNL     1       0.808   3.017  20.250  0.00  0.00    +0.000 A 
ATOM     14  C   UNL     1       1.412   2.688  21.454  0.00  0.00    +0.000 A 
ATOM     15  F   UNL     1       0.658   2.474  22.540  0.00  0.00    +0.000 F 
ATOM     16  C   UNL     1       2.790   2.537  21.534  0.00  0.00    +0.000 A 
ATOM     17  C   UNL     1       3.571   2.708  20.384  0.00  0.00    +0.000 A 
ENDBRANCH   3  11
ENDBRANCH   1   2
BRANCH   1  18
ATOM     18  C   UNL     1       3.558   7.161  17.870  0.00  0.00    +0.000 C 
BRANCH  18  22
ATOM     19  N   UNL     1       1.457   9.083  20.129  0.00  0.00    +0.000 N 
ATOM     20  C   UNL     1       2.084   7.807  20.498  0.00  0.00    +0.000 C 
ATOM     21  C   UNL     1       1.713   6.730  19.458  0.00  0.00    +0.000 C 
ATOM     22  N   UNL     1       2.102   7.075  18.072  0.00  0.00    +0.000 NA
ATOM     23  C   UNL     1       1.502   8.405  17.738  0.00  0.00    +0.000 C 
ATOM     24  C   UNL     1       1.747   9.547  18.766  0.00  0.00    +0.000 C 
BRANCH  19  30
ATOM     25  C   UNL     1       0.125  11.091  20.712  0.00  0.00    +0.000 A 
ATOM     26  C   UNL     1      -0.735  11.731  21.621  0.00  0.00    +0.000 A 
ATOM     27  C   UNL     1      -1.128  11.101  22.794  0.00  0.00    +0.000 A 
ATOM     28  C   UNL     1      -0.663   9.827  23.081  0.00  0.00    +0.000 A 
ATOM     29  C   UNL     1       0.199   9.181  22.187  0.00  0.00    +0.000 A 
ATOM     30  C   UNL     1       0.619   9.784  20.986  0.00  0.00    +0.000 A 
BRANCH  25  32
ATOM     31  C   UNL     1      -0.275  12.737  19.059  0.00  0.00    +0.000 C 
ATOM     32  O   UNL     1       0.604  11.758  19.606  0.00  0.00    +0.000 OA
ENDBRANCH  25  32
ENDBRANCH  19  30
ENDBRANCH  18  22
ENDBRANCH   1  18
TORSDOF 6
ENDMDL
MODEL 3
REMARK VINA RESULT:      -7.9      1.171      1.735
REMARK  Name = 
REMARK  7 active torsions:
REMARK  status: ('A' for Active; 'I' for Inactive)
REMARK    1  A    between atoms: C_1  and  O_2
REMARK    2  A    between atoms: O_2  and  C_3
REMARK    3  A    between atoms: C_8  and  N_9
REMARK    4  A    between atoms: N_12  and  C_13
REMARK    5  A    between atoms: C_13  and  C_14
REMARK    6  A    between atoms: C_14  and  N_15
REMARK    7  A    between atoms: C_16  and  C_18
REMARK                            x       y       z     vdW  Elec       q    Type
REMARK                         _______ _______ _______ _____ _____    ______ ____
ROOT
ATOM      1  C   UNL     1       4.895   5.717  18.948  0.00  0.00    +0.000 C 
ENDROOT
BRANCH   1   2
ATOM      2  N   UNL     1       4.529   4.584  18.029  0.00  0.00    +0.000 N 
ATOM      3  C   UNL     1       3.562   3.561  18.090  0.00  0.00    +0.000 C 
ATOM      4  O   UNL     1       3.312   2.818  17.133  0.00  0.00    +0.000 OA
ATOM      5  C   UNL     1       5.348   4.609  16.848  0.00  0.00    +0.000 A 
ATOM      6  C   UNL     1       4.773   4.615  15.577  0.00  0.00    +0.000 A 
ATOM      7  C   UNL     1       5.601   4.601  14.454  0.00  0.00    +0.000 A 
ATOM      8  C   UNL     1       6.976   4.556  14.627  0.00  0.00    +0.000 A 
ATOM      9  C   UNL     1       7.467   4.582  15.920  0.00  0.00    +0.000 A 
ATOM     10  N   UNL     1       6.689   4.652  17.024  0.00  0.00    +0.000 NA
BRANCH   3  11
ATOM     11  C   UNL     1       2.745   3.232  19.291  0.00  0.00    +0.000 A 
ATOM     12  C   UNL     1       3.413   2.754  20.434  0.00  0.00    +0.000 A 
ATOM     13  C   UNL     1       2.710   2.451  21.604  0.00  0.00    +0.000 A 
ATOM     14  C   UNL     1       1.328   2.578  21.620  0.00  0.00    +0.000 A 
ATOM     15  F   UNL     1       0.641   2.227  22.713  0.00  0.00    +0.000 F 
ATOM     16  C   UNL     1       0.656   3.104  20.525  0.00  0.00    +0.000 A 
ATOM     17  C   UNL     1       1.382   3.521  19.403  0.00  0.00    +0.000 A 
ENDBRANCH   3  11
ENDBRANCH   1   2
BRANCH   1  18
ATOM     18  C   UNL     1       3.958   6.925  19.033  0.00  0.00    +0.000 C 
BRANCH  18  22
ATOM     19  N   UNL     1       1.380   9.485  18.919  0.00  0.00    +0.000 N 
ATOM     20  C   UNL     1       1.753   8.768  20.145  0.00  0.00    +0.000 C 
ATOM     21  C   UNL     1       1.666   7.248  19.900  0.00  0.00    +0.000 C 
ATOM     22  N   UNL     1       2.514   6.770  18.786  0.00  0.00    +0.000 NA
ATOM     23  C   UNL     1       2.160   7.555  17.561  0.00  0.00    +0.000 C 
ATOM     24  C   UNL     1       2.138   9.103  17.721  0.00  0.00    +0.000 C 
BRANCH  19  30
ATOM     25  C   UNL     1       0.580  11.830  19.010  0.00  0.00    +0.000 A 
ATOM     26  C   UNL     1      -0.500  12.727  18.942  0.00  0.00    +0.000 A 
ATOM     27  C   UNL     1      -1.795  12.268  18.738  0.00  0.00    +0.000 A 
ATOM     28  C   UNL     1      -2.031  10.909  18.605  0.00  0.00    +0.000 A 
ATOM     29  C   UNL     1      -0.965  10.004  18.677  0.00  0.00    +0.000 A 
ATOM     30  C   UNL     1       0.362  10.429  18.881  0.00  0.00    +0.000 A 
BRANCH  25  32
ATOM     31  C   UNL     1       2.541  12.926  18.265  0.00  0.00    +0.000 C 
ATOM     32  O   UNL     1       1.846  12.273  19.324  0.00  0.00    +0.000 OA
ENDBRANCH  25  32
ENDBRANCH  19  30
ENDBRANCH  18  22
ENDBRANCH   1  18
TORSDOF 6
ENDMDL
MODEL 4
REMARK VINA RESULT:      -7.9      0.935      1.827
REMARK  Name = 
REMARK  7 active torsions:
REMARK  status: ('A' for Active; 'I' for Inactive)
REMARK    1  A    between atoms: C_1  and  O_2
REMARK    2  A    between atoms: O_2  and  C_3
REMARK    3  A    between atoms: C_8  and  N_9
REMARK    4  A    between atoms: N_12  and  C_13
REMARK    5  A    between atoms: C_13  and  C_14
REMARK    6  A    between atoms: C_14  and  N_15
REMARK    7  A    between atoms: C_16  and  C_18
REMARK                            x       y       z     vdW  Elec       q    Type
REMARK                         _______ _______ _______ _____ _____    ______ ____
ROOT
ATOM      1  C   UNL     1       4.626   5.942  18.628  0.00  0.00    +0.000 C 
ENDROOT
BRANCH   1   2
ATOM      2  N   UNL     1       4.449   4.673  17.841  0.00  0.00    +0.000 N 
ATOM      3  C   UNL     1       3.616   3.547  17.994  0.00  0.00    +0.000 C 
ATOM      4  O   UNL     1       3.506   2.672  17.126  0.00  0.00    +0.000 OA
ATOM      5  C   UNL     1       5.311   4.668  16.691  0.00  0.00    +0.000 A 
ATOM      6  C   UNL     1       4.799   4.452  15.411  0.00  0.00    +0.000 A 
ATOM      7  C   UNL     1       5.673   4.417  14.324  0.00  0.00    +0.000 A 
ATOM      8  C   UNL     1       7.033   4.571  14.543  0.00  0.00    +0.000 A 
ATOM      9  C   UNL     1       7.457   4.811  15.838  0.00  0.00    +0.000 A 
ATOM     10  N   UNL     1       6.627   4.905  16.902  0.00  0.00    +0.000 NA
BRANCH   3  11
ATOM     11  C   UNL     1       2.792   3.255  19.200  0.00  0.00    +0.000 A 
ATOM     12  C   UNL     1       3.455   2.820  20.364  0.00  0.00    +0.000 A 
ATOM     13  C   UNL     1       2.745   2.553  21.538  0.00  0.00    +0.000 A 
ATOM     14  C   UNL     1       1.363   2.673  21.541  0.00  0.00    +0.000 A 
ATOM     15  F   UNL     1       0.670   2.356  22.641  0.00  0.00    +0.000 F 
ATOM     16  C   UNL     1       0.695   3.158  20.424  0.00  0.00    +0.000 A 
ATOM     17  C   UNL     1       1.428   3.540  19.293  0.00  0.00    +0.000 A 
ENDBRANCH   3  11
ENDBRANCH   1   2
BRANCH   1  18
ATOM     18  C   UNL     1       3.790   7.167  18.245  0.00  0.00    +0.000 C 
BRANCH  18  22
ATOM     19  N   UNL     1       1.328   9.485  19.577  0.00  0.00    +0.000 N 
ATOM     20  C   UNL     1       1.863   8.350  20.339  0.00  0.00    +0.000 C 
ATOM     21  C   UNL     1       1.680   7.051  19.527  0.00  0.00    +0.000 C 
ATOM     22  N   UNL     1       2.321   7.081  18.193  0.00  0.00    +0.000 NA
ATOM     23  C   UNL     1       1.806   8.279  17.456  0.00  0.00    +0.000 C 
ATOM     24  C   UNL     1       1.869   9.634  18.219  0.00  0.00    +0.000 C 
BRANCH  19  30
ATOM     25  C   UNL     1      -0.775  10.776  19.333  0.00  0.00    +0.000 A 
ATOM     26  C   UNL     1      -1.730  11.624  19.918  0.00  0.00    +0.000 A 
ATOM     27  C   UNL     1      -1.600  12.039  21.237  0.00  0.00    +0.000 A 
ATOM     28  C   UNL     1      -0.513  11.621  21.987  0.00  0.00    +0.000 A 
ATOM     29  C   UNL     1       0.450  10.782  21.414  0.00  0.00    +0.000 A 
ATOM     30  C   UNL     1       0.354  10.336  20.082  0.00  0.00    +0.000 A 
BRANCH  25  32
ATOM     31  C   UNL     1      -2.107   9.971  17.550  0.00  0.00    +0.000 C 
ATOM     32  O   UNL     1      -0.842  10.455  17.995  0.00  0.00    +0.000 OA
ENDBRANCH  25  32
ENDBRANCH  19  30
ENDBRANCH  18  22
ENDBRANCH   1  18
TORSDOF 6
ENDMDL
MODEL 5
REMARK VINA RESULT:      -7.9      0.938      1.084
REMARK  Name = 
REMARK  7 active torsions:
REMARK  status: ('A' for Active; 'I' for Inactive)
REMARK    1  A    between atoms: C_1  and  O_2
REMARK    2  A    between atoms: O_2  and  C_3
REMARK    3  A    between atoms: C_8  and  N_9
REMARK    4  A    between atoms: N_12  and  C_13
REMARK    5  A    between atoms: C_13  and  C_14
REMARK    6  A    between atoms: C_14  and  N_15
REMARK    7  A    between atoms: C_16  and  C_18
REMARK                            x       y       z     vdW  Elec       q    Type
REMARK                         _______ _______ _______ _____ _____    ______ ____
ROOT
ATOM      1  C   UNL     1       4.989   5.735  18.859  0.00  0.00    +0.000 C 
ENDROOT
BRANCH   1   2
ATOM      2  N   UNL     1       4.613   4.578  17.974  0.00  0.00    +0.000 N 
ATOM      3  C   UNL     1       3.671   3.536  18.091  0.00  0.00    +0.000 C 
ATOM      4  O   UNL     1       3.400   2.771  17.156  0.00  0.00    +0.000 OA
ATOM      5  C   UNL     1       5.383   4.600  16.761  0.00  0.00    +0.000 A 
ATOM      6  C   UNL     1       4.759   4.571  15.514  0.00  0.00    +0.000 A 
ATOM      7  C   UNL     1       5.541   4.555  14.359  0.00  0.00    +0.000 A 
ATOM      8  C   UNL     1       6.923   4.543  14.478  0.00  0.00    +0.000 A 
ATOM      9  C   UNL     1       7.464   4.603  15.750  0.00  0.00    +0.000 A 
ATOM     10  N   UNL     1       6.729   4.675  16.883  0.00  0.00    +0.000 NA
BRANCH   3  11
ATOM     11  C   UNL     1       2.910   3.211  19.328  0.00  0.00    +0.000 A 
ATOM     12  C   UNL     1       1.509   3.350  19.299  0.00  0.00    +0.000 A 
ATOM     13  C   UNL     1       0.732   3.036  20.418  0.00  0.00    +0.000 A 
ATOM     14  C   UNL     1       1.356   2.628  21.588  0.00  0.00    +0.000 A 
ATOM     15  F   UNL     1       0.625   2.389  22.683  0.00  0.00    +0.000 F 
ATOM     16  C   UNL     1       2.730   2.425  21.621  0.00  0.00    +0.000 A 
ATOM     17  C   UNL     1       3.485   2.624  20.458  0.00  0.00    +0.000 A 
ENDBRANCH   3  11
ENDBRANCH   1   2
BRANCH   1  18
ATOM     18  C   UNL     1       4.000   6.893  19.014  0.00  0.00    +0.000 C 
BRANCH  18  22
ATOM     19  N   UNL     1       1.320   9.349  19.049  0.00  0.00    +0.000 N 
ATOM     20  C   UNL     1       1.666   8.514  20.207  0.00  0.00    +0.000 C 
ATOM     21  C   UNL     1       1.658   7.028  19.792  0.00  0.00    +0.000 C 
ATOM     22  N   UNL     1       2.578   6.711  18.677  0.00  0.00    +0.000 NA
ATOM     23  C   UNL     1       2.248   7.614  17.530  0.00  0.00    +0.000 C 
ATOM     24  C   UNL     1       2.150   9.132  17.857  0.00  0.00    +0.000 C 
BRANCH  19  30
ATOM     25  C   UNL     1       0.323  11.524  19.697  0.00  0.00    +0.000 A 
ATOM     26  C   UNL     1      -0.782  12.392  19.652  0.00  0.00    +0.000 A 
ATOM     27  C   UNL     1      -1.943  12.032  18.981  0.00  0.00    +0.000 A 
ATOM     28  C   UNL     1      -2.022  10.800  18.352  0.00  0.00    +0.000 A 
ATOM     29  C   UNL     1      -0.931   9.923  18.395  0.00  0.00    +0.000 A 
ATOM     30  C   UNL     1       0.265  10.251  19.062  0.00  0.00    +0.000 A 
BRANCH  25  32
ATOM     31  C   UNL     1       1.600  13.216  20.748  0.00  0.00    +0.000 C 
ATOM     32  O   UNL     1       1.431  11.832  20.455  0.00  0.00    +0.000 OA
ENDBRANCH  25  32
ENDBRANCH  19  30
ENDBRANCH  18  22
ENDBRANCH   1  18
TORSDOF 6
ENDMDL
MODEL 6
REMARK VINA RESULT:      -7.8      2.319      7.908
REMARK  Name = 
REMARK  7 active torsions:
REMARK  status: ('A' for Active; 'I' for Inactive)
REMARK    1  A    between atoms: C_1  and  O_2
REMARK    2  A    between atoms: O_2  and  C_3
REMARK    3  A    between atoms: C_8  and  N_9
REMARK    4  A    between atoms: N_12  and  C_13
REMARK    5  A    between atoms: C_13  and  C_14
REMARK    6  A    between atoms: C_14  and  N_15
REMARK    7  A    between atoms: C_16  and  C_18
REMARK                            x       y       z     vdW  Elec       q    Type
REMARK                         _______ _______ _______ _____ _____    ______ ____
ROOT
ATOM      1  C   UNL     1       4.035   6.940  18.526  0.00  0.00    +0.000 C 
ENDROOT
BRANCH   1   2
ATOM      2  N   UNL     1       2.736   6.605  19.207  0.00  0.00    +0.000 N 
ATOM      3  C   UNL     1       2.137   5.394  19.607  0.00  0.00    +0.000 C 
ATOM      4  O   UNL     1       1.123   5.351  20.316  0.00  0.00    +0.000 OA
ATOM      5  C   UNL     1       2.005   7.804  19.514  0.00  0.00    +0.000 A 
ATOM      6  C   UNL     1       1.563   8.062  20.812  0.00  0.00    +0.000 A 
ATOM      7  C   UNL     1       0.823   9.217  21.065  0.00  0.00    +0.000 A 
ATOM      8  C   UNL     1       0.522  10.070  20.014  0.00  0.00    +0.000 A 
ATOM      9  C   UNL     1       1.023   9.758  18.763  0.00  0.00    +0.000 A 
ATOM     10  N   UNL     1       1.789   8.675  18.502  0.00  0.00    +0.000 NA
BRANCH   3  11
ATOM     11  C   UNL     1       2.619   4.038  19.225  0.00  0.00    +0.000 A 
ATOM     12  C   UNL     1       3.493   3.374  20.106  0.00  0.00    +0.000 A 
ATOM     13  C   UNL     1       3.962   2.088  19.821  0.00  0.00    +0.000 A 
ATOM     14  C   UNL     1       3.599   1.480  18.628  0.00  0.00    +0.000 A 
ATOM     15  F   UNL     1       4.095   0.277  18.316  0.00  0.00    +0.000 F 
ATOM     16  C   UNL     1       2.690   2.091  17.773  0.00  0.00    +0.000 A 
ATOM     17  C   UNL     1       2.130   3.325  18.128  0.00  0.00    +0.000 A 
ENDBRANCH   3  11
ENDBRANCH   1   2
BRANCH   1  18
ATOM     18  C   UNL     1       5.257   6.060  18.802  0.00  0.00    +0.000 C 
BRANCH  18  22
ATOM     19  N   UNL     1       5.710   4.844  15.407  0.00  0.00    +0.000 N 
ATOM     20  C   UNL     1       6.016   4.043  16.599  0.00  0.00    +0.000 C 
ATOM     21  C   UNL     1       6.973   4.831  17.517  0.00  0.00    +0.000 C 
ATOM     22  N   UNL     1       6.450   6.148  17.943  0.00  0.00    +0.000 NA
ATOM     23  C   UNL     1       6.088   6.924  16.715  0.00  0.00    +0.000 C 
ATOM     24  C   UNL     1       5.188   6.190  15.679  0.00  0.00    +0.000 C 
BRANCH  19  30
ATOM     25  C   UNL     1       7.118   4.647  13.377  0.00  0.00    +0.000 A 
ATOM     26  C   UNL     1       7.278   4.131  12.079  0.00  0.00    +0.000 A 
ATOM     27  C   UNL     1       6.290   3.347  11.498  0.00  0.00    +0.000 A 
ATOM     28  C   UNL     1       5.127   3.073  12.200  0.00  0.00    +0.000 A 
ATOM     29  C   UNL     1       4.952   3.587  13.490  0.00  0.00    +0.000 A 
ATOM     30  C   UNL     1       5.930   4.383  14.116  0.00  0.00    +0.000 A 
BRANCH  25  32
ATOM     31  C   UNL     1       8.963   6.073  12.971  0.00  0.00    +0.000 C 
ATOM     32  O   UNL     1       8.046   5.516  13.908  0.00  0.00    +0.000 OA
ENDBRANCH  25  32
ENDBRANCH  19  30
ENDBRANCH  18  22
ENDBRANCH   1  18
TORSDOF 6
ENDMDL
MODEL 7
REMARK VINA RESULT:      -7.7      3.290      5.693
REMARK  Name = 
REMARK  7 active torsions:
REMARK  status: ('A' for Active; 'I' for Inactive)
REMARK    1  A    between atoms: C_1  and  O_2
REMARK    2  A    between atoms: O_2  and  C_3
REMARK    3  A    between atoms: C_8  and  N_9
REMARK    4  A    between atoms: N_12  and  C_13
REMARK    5  A    between atoms: C_13  and  C_14
REMARK    6  A    between atoms: C_14  and  N_15
REMARK    7  A    between atoms: C_16  and  C_18
REMARK                            x       y       z     vdW  Elec       q    Type
REMARK                         _______ _______ _______ _____ _____    ______ ____
ROOT
ATOM      1  C   UNL     1       5.262   3.765  16.454  0.00  0.00    +0.000 C 
ENDROOT
BRANCH   1   2
ATOM      2  N   UNL     1       6.368   4.607  15.880  0.00  0.00    +0.000 N 
ATOM      3  C   UNL     1       6.890   4.764  14.580  0.00  0.00    +0.000 C 
ATOM      4  O   UNL     1       7.704   5.650  14.289  0.00  0.00    +0.000 OA
ATOM      5  C   UNL     1       6.965   5.420  16.903  0.00  0.00    +0.000 A 
ATOM      6  C   UNL     1       7.072   6.803  16.750  0.00  0.00    +0.000 A 
ATOM      7  C   UNL     1       7.693   7.554  17.748  0.00  0.00    +0.000 A 
ATOM      8  C   UNL     1       8.212   6.906  18.859  0.00  0.00    +0.000 A 
ATOM      9  C   UNL     1       8.038   5.537  18.949  0.00  0.00    +0.000 A 
ATOM     10  N   UNL     1       7.392   4.792  18.023  0.00  0.00    +0.000 NA
BRANCH   3  11
ATOM     11  C   UNL     1       6.558   3.895  13.418  0.00  0.00    +0.000 A 
ATOM     12  C   UNL     1       5.199   3.642  13.148  0.00  0.00    +0.000 A 
ATOM     13  C   UNL     1       4.817   2.856  12.057  0.00  0.00    +0.000 A 
ATOM     14  C   UNL     1       5.794   2.279  11.259  0.00  0.00    +0.000 A 
ATOM     15  F   UNL     1       5.438   1.471  10.252  0.00  0.00    +0.000 F 
ATOM     16  C   UNL     1       7.137   2.563  11.470  0.00  0.00    +0.000 A 
ATOM     17  C   UNL     1       7.502   3.451  12.489  0.00  0.00    +0.000 A 
ENDBRANCH   3  11
ENDBRANCH   1   2
BRANCH   1  18
ATOM     18  C   UNL     1       3.957   4.449  16.870  0.00  0.00    +0.000 C 
BRANCH  18  22
ATOM     19  N   UNL     1       2.347   7.029  18.861  0.00  0.00    +0.000 N 
ATOM     20  C   UNL     1       3.802   6.832  18.817  0.00  0.00    +0.000 C 
ATOM     21  C   UNL     1       4.135   5.365  19.158  0.00  0.00    +0.000 C 
ATOM     22  N   UNL     1       3.488   4.379  18.264  0.00  0.00    +0.000 NA
ATOM     23  C   UNL     1       2.013   4.636  18.277  0.00  0.00    +0.000 C 
ATOM     24  C   UNL     1       1.570   6.106  18.024  0.00  0.00    +0.000 C 
BRANCH  19  30
ATOM     25  C   UNL     1       1.358   9.277  19.194  0.00  0.00    +0.000 A 
ATOM     26  C   UNL     1       0.733  10.191  20.060  0.00  0.00    +0.000 A 
ATOM     27  C   UNL     1       0.469   9.854  21.381  0.00  0.00    +0.000 A 
ATOM     28  C   UNL     1       0.831   8.604  21.858  0.00  0.00    +0.000 A 
ATOM     29  C   UNL     1       1.460   7.687  21.008  0.00  0.00    +0.000 A 
ATOM     30  C   UNL     1       1.743   7.989  19.662  0.00  0.00    +0.000 A 
BRANCH  25  32
ATOM     31  C   UNL     1       2.350  10.926  17.816  0.00  0.00    +0.000 C 
ATOM     32  O   UNL     1       1.721   9.651  17.919  0.00  0.00    +0.000 OA
ENDBRANCH  25  32
ENDBRANCH  19  30
ENDBRANCH  18  22
ENDBRANCH   1  18
TORSDOF 6
ENDMDL
MODEL 8
REMARK VINA RESULT:      -7.5      2.646      5.262
REMARK  Name = 
REMARK  7 active torsions:
REMARK  status: ('A' for Active; 'I' for Inactive)
REMARK    1  A    between atoms: C_1  and  O_2
REMARK    2  A    between atoms: O_2  and  C_3
REMARK    3  A    between atoms: C_8  and  N_9
REMARK    4  A    between atoms: N_12  and  C_13
REMARK    5  A    between atoms: C_13  and  C_14
REMARK    6  A    between atoms: C_14  and  N_15
REMARK    7  A    between atoms: C_16  and  C_18
REMARK                            x       y       z     vdW  Elec       q    Type
REMARK                         _______ _______ _______ _____ _____    ______ ____
ROOT
ATOM      1  C   UNL     1       2.305   5.344  17.625  0.00  0.00    +0.000 C 
ENDROOT
BRANCH   1   2
ATOM      2  N   UNL     1       3.213   4.408  18.375  0.00  0.00    +0.000 N 
ATOM      3  C   UNL     1       4.552   4.008  18.198  0.00  0.00    +0.000 C 
ATOM      4  O   UNL     1       5.170   3.346  19.041  0.00  0.00    +0.000 OA
ATOM      5  C   UNL     1       2.533   3.852  19.513  0.00  0.00    +0.000 A 
ATOM      6  C   UNL     1       3.083   3.945  20.793  0.00  0.00    +0.000 A 
ATOM      7  C   UNL     1       2.413   3.360  21.867  0.00  0.00    +0.000 A 
ATOM      8  C   UNL     1       1.228   2.678  21.636  0.00  0.00    +0.000 A 
ATOM      9  C   UNL     1       0.735   2.658  20.343  0.00  0.00    +0.000 A 
ATOM     10  N   UNL     1       1.335   3.263  19.294  0.00  0.00    +0.000 NA
BRANCH   3  11
ATOM     11  C   UNL     1       5.377   4.304  16.994  0.00  0.00    +0.000 A 
ATOM     12  C   UNL     1       6.682   4.794  17.191  0.00  0.00    +0.000 A 
ATOM     13  C   UNL     1       7.519   5.068  16.104  0.00  0.00    +0.000 A 
ATOM     14  C   UNL     1       7.037   4.899  14.815  0.00  0.00    +0.000 A 
ATOM     15  F   UNL     1       7.809   5.221  13.769  0.00  0.00    +0.000 F 
ATOM     16  C   UNL     1       5.776   4.360  14.598  0.00  0.00    +0.000 A 
ATOM     17  C   UNL     1       4.993   3.973  15.692  0.00  0.00    +0.000 A 
ENDBRANCH   3  11
ENDBRANCH   1   2
BRANCH   1  18
ATOM     18  C   UNL     1       1.655   6.503  18.384  0.00  0.00    +0.000 C 
BRANCH  18  22
ATOM     19  N   UNL     1       0.606   9.842  19.365  0.00  0.00    +0.000 N 
ATOM     20  C   UNL     1       1.032   9.497  18.003  0.00  0.00    +0.000 C 
ATOM     21  C   UNL     1       2.422   8.829  18.051  0.00  0.00    +0.000 C 
ATOM     22  N   UNL     1       2.476   7.615  18.895  0.00  0.00    +0.000 NA
ATOM     23  C   UNL     1       1.980   7.975  20.261  0.00  0.00    +0.000 C 
ATOM     24  C   UNL     1       0.620   8.728  20.322  0.00  0.00    +0.000 C 
BRANCH  19  30
ATOM     25  C   UNL     1      -1.001  11.729  19.416  0.00  0.00    +0.000 A 
ATOM     26  C   UNL     1      -1.297  13.035  19.843  0.00  0.00    +0.000 A 
ATOM     27  C   UNL     1      -0.383  13.763  20.594  0.00  0.00    +0.000 A 
ATOM     28  C   UNL     1       0.841  13.201  20.922  0.00  0.00    +0.000 A 
ATOM     29  C   UNL     1       1.151  11.904  20.497  0.00  0.00    +0.000 A 
ATOM     30  C   UNL     1       0.251  11.132  19.737  0.00  0.00    +0.000 A 
BRANCH  25  32
ATOM     31  C   UNL     1      -3.173  11.594  18.486  0.00  0.00    +0.000 C 
ATOM     32  O   UNL     1      -1.859  11.051  18.578  0.00  0.00    +0.000 OA
ENDBRANCH  25  32
ENDBRANCH  19  30
ENDBRANCH  18  22
ENDBRANCH   1  18
TORSDOF 6
ENDMDL
MODEL 9
REMARK VINA RESULT:      -7.5      3.691      6.724
REMARK  Name = 
REMARK  7 active torsions:
REMARK  status: ('A' for Active; 'I' for Inactive)
REMARK    1  A    between atoms: C_1  and  O_2
REMARK    2  A    between atoms: O_2  and  C_3
REMARK    3  A    between atoms: C_8  and  N_9
REMARK    4  A    between atoms: N_12  and  C_13
REMARK    5  A    between atoms: C_13  and  C_14
REMARK    6  A    between atoms: C_14  and  N_15
REMARK    7  A    between atoms: C_16  and  C_18
REMARK                            x       y       z     vdW  Elec       q    Type
REMARK                         _______ _______ _______ _____ _____    ______ ____
ROOT
ATOM      1  C   UNL     1       0.617   9.462  18.081  0.00  0.00    +0.000 C 
ENDROOT
BRANCH   1   2
ATOM      2  N   UNL     1       1.301   8.769  19.228  0.00  0.00    +0.000 N 
ATOM      3  C   UNL     1       1.195   8.882  20.629  0.00  0.00    +0.000 C 
ATOM      4  O   UNL     1       1.736   8.086  21.407  0.00  0.00    +0.000 OA
ATOM      5  C   UNL     1       2.224   7.781  18.742  0.00  0.00    +0.000 A 
ATOM      6  C   UNL     1       2.155   6.458  19.180  0.00  0.00    +0.000 A 
ATOM      7  C   UNL     1       3.092   5.535  18.715  0.00  0.00    +0.000 A 
ATOM      8  C   UNL     1       4.087   5.960  17.847  0.00  0.00    +0.000 A 
ATOM      9  C   UNL     1       4.067   7.281  17.437  0.00  0.00    +0.000 A 
ATOM     10  N   UNL     1       3.138   8.182  17.829  0.00  0.00    +0.000 NA
BRANCH   3  11
ATOM     11  C   UNL     1       0.454   9.958  21.343  0.00  0.00    +0.000 A 
ATOM     12  C   UNL     1      -0.378   9.587  22.417  0.00  0.00    +0.000 A 
ATOM     13  C   UNL     1      -1.082  10.550  23.148  0.00  0.00    +0.000 A 
ATOM     14  C   UNL     1      -0.995  11.883  22.776  0.00  0.00    +0.000 A 
ATOM     15  F   UNL     1      -1.717  12.803  23.428  0.00  0.00    +0.000 F 
ATOM     16  C   UNL     1      -0.135  12.278  21.759  0.00  0.00    +0.000 A 
ATOM     17  C   UNL     1       0.659  11.321  21.116  0.00  0.00    +0.000 A 
ENDBRANCH   3  11
ENDBRANCH   1   2
BRANCH   1  18
ATOM     18  C   UNL     1      -0.840   9.901  18.252  0.00  0.00    +0.000 C 
BRANCH  18  22
ATOM     19  N   UNL     1      -4.101  11.494  18.441  0.00  0.00    +0.000 N 
ATOM     20  C   UNL     1      -3.849  10.257  17.691  0.00  0.00    +0.000 C 
ATOM     21  C   UNL     1      -2.681  10.479  16.708  0.00  0.00    +0.000 C 
ATOM     22  N   UNL     1      -1.424  10.914  17.357  0.00  0.00    +0.000 NA
ATOM     23  C   UNL     1      -1.717  12.140  18.164  0.00  0.00    +0.000 C 
ATOM     24  C   UNL     1      -2.932  12.051  19.133  0.00  0.00    +0.000 C 
BRANCH  19  30
ATOM     25  C   UNL     1      -6.068  12.378  19.664  0.00  0.00    +0.000 A 
ATOM     26  C   UNL     1      -7.313  13.030  19.613  0.00  0.00    +0.000 A 
ATOM     27  C   UNL     1      -7.851  13.441  18.401  0.00  0.00    +0.000 A 
ATOM     28  C   UNL     1      -7.161  13.202  17.223  0.00  0.00    +0.000 A 
ATOM     29  C   UNL     1      -5.924  12.547  17.260  0.00  0.00    +0.000 A 
ATOM     30  C   UNL     1      -5.342  12.117  18.467  0.00  0.00    +0.000 A 
BRANCH  25  32
ATOM     31  C   UNL     1      -5.711  12.736  21.976  0.00  0.00    +0.000 C 
ATOM     32  O   UNL     1      -5.587  11.870  20.851  0.00  0.00    +0.000 OA
ENDBRANCH  25  32
ENDBRANCH  19  30
ENDBRANCH  18  22
ENDBRANCH   1  18
TORSDOF 6
ENDMDL
