MODEL 1
REMARK VINA RESULT:      -7.3      0.000      0.000
REMARK  Name = 
REMARK  3 active torsions:
REMARK  status: ('A' for Active; 'I' for Inactive)
REMARK    1  A    between atoms: C_1  and  O_2
REMARK    2  A    between atoms: O_2  and  C_3
REMARK    3  A    between atoms: C_6  and  C_7
REMARK                            x       y       z     vdW  Elec       q    Type
REMARK                         _______ _______ _______ _____ _____    ______ ____
ROOT
ATOM      1  C   UNL     1       2.520   7.343  18.758  0.00  0.00    +0.000 A 
ATOM      2  C   UNL     1       2.029   8.554  18.280  0.00  0.00    +0.000 A 
ATOM      3  C   UNL     1       1.280   9.378  19.119  0.00  0.00    +0.000 A 
ATOM      4  C   UNL     1       1.053   8.966  20.421  0.00  0.00    +0.000 A 
ATOM      5  N   UNL     1       0.305   9.762  21.322  0.00  0.00    +0.000 N 
ATOM      6  C   UNL     1      -0.308  10.976  21.095  0.00  0.00    +0.000 A 
ATOM      7  C   UNL     1      -0.895  11.326  22.288  0.00  0.00    +0.000 A 
ATOM      8  N   UNL     1      -0.668  10.375  23.241  0.00  0.00    +0.000 NA
ATOM      9  C   UNL     1       0.049   9.451  22.638  0.00  0.00    +0.000 A 
ATOM     10  N   UNL     1       1.544   7.792  20.874  0.00  0.00    +0.000 NA
ATOM     11  N   UNL     1       2.279   6.982  20.039  0.00  0.00    +0.000 NA
ENDROOT
BRANCH   1  15
ATOM     12  C   UNL     1       4.858   4.622  16.364  0.00  0.00    +0.000 A 
ATOM     13  C   UNL     1       5.135   5.986  16.360  0.00  0.00    +0.000 A 
ATOM     14  C   UNL     1       4.382   6.865  17.148  0.00  0.00    +0.000 A 
ATOM     15  C   UNL     1       3.316   6.407  17.942  0.00  0.00    +0.000 A 
ATOM     16  C   UNL     1       3.048   5.026  17.919  0.00  0.00    +0.000 A 
ATOM     17  C   UNL     1       3.804   4.144  17.137  0.00  0.00    +0.000 A 
BRANCH  12  19
ATOM     18  C   UNL     1       6.743   4.539  14.947  0.00  0.00    +0.000 C 
ATOM     19  O   UNL     1       5.653   3.856  15.556  0.00  0.00    +0.000 OA
ENDBRANCH  12  19
ENDBRANCH   1  15
TORSDOF 2
ENDMDL
MODEL 2
REMARK VINA RESULT:      -7.3      0.194      1.118
REMARK  Name = 
REMARK  3 active torsions:
REMARK  status: ('A' for Active; 'I' for Inactive)
REMARK    1  A    between atoms: C_1  and  O_2
REMARK    2  A    between atoms: O_2  and  C_3
REMARK    3  A    between atoms: C_6  and  C_7
REMARK                            x       y       z     vdW  Elec       q    Type
REMARK                         _______ _______ _______ _____ _____    ______ ____
ROOT
ATOM      1  C   UNL     1       2.540   7.361  18.740  0.00  0.00    +0.000 A 
ATOM      2  C   UNL     1       2.015   8.555  18.256  0.00  0.00    +0.000 A 
ATOM      3  C   UNL     1       1.258   9.371  19.095  0.00  0.00    +0.000 A 
ATOM      4  C   UNL     1       1.057   8.967  20.405  0.00  0.00    +0.000 A 
ATOM      5  N   UNL     1       0.303   9.756  21.307  0.00  0.00    +0.000 N 
ATOM      6  C   UNL     1      -0.341  10.953  21.076  0.00  0.00    +0.000 A 
ATOM      7  C   UNL     1      -0.921  11.302  22.272  0.00  0.00    +0.000 A 
ATOM      8  N   UNL     1      -0.659  10.367  23.233  0.00  0.00    +0.000 NA
ATOM      9  C   UNL     1       0.071   9.454  22.630  0.00  0.00    +0.000 A 
ATOM     10  N   UNL     1       1.581   7.811  20.863  0.00  0.00    +0.000 NA
ATOM     11  N   UNL     1       2.323   7.008  20.027  0.00  0.00    +0.000 NA
ENDROOT
BRANCH   1  15
ATOM     12  C   UNL     1       4.891   4.639  16.360  0.00  0.00    +0.000 A 
ATOM     13  C   UNL     1       3.872   4.164  17.182  0.00  0.00    +0.000 A 
ATOM     14  C   UNL     1       3.103   5.051  17.944  0.00  0.00    +0.000 A 
ATOM     15  C   UNL     1       3.347   6.435  17.923  0.00  0.00    +0.000 A 
ATOM     16  C   UNL     1       4.391   6.889  17.095  0.00  0.00    +0.000 A 
ATOM     17  C   UNL     1       5.157   6.004  16.327  0.00  0.00    +0.000 A 
BRANCH  12  19
ATOM     18  C   UNL     1       6.230   4.141  14.482  0.00  0.00    +0.000 C 
ATOM     19  O   UNL     1       5.580   3.685  15.664  0.00  0.00    +0.000 OA
ENDBRANCH  12  19
ENDBRANCH   1  15
TORSDOF 2
ENDMDL
MODEL 3
REMARK VINA RESULT:      -6.9      1.046      1.812
REMARK  Name = 
REMARK  3 active torsions:
REMARK  status: ('A' for Active; 'I' for Inactive)
REMARK    1  A    between atoms: C_1  and  O_2
REMARK    2  A    between atoms: O_2  and  C_3
REMARK    3  A    between atoms: C_6  and  C_7
REMARK                            x       y       z     vdW  Elec       q    Type
REMARK                         _______ _______ _______ _____ _____    ______ ____
ROOT
ATOM      1  C   UNL     1       2.719   6.943  18.808  0.00  0.00    +0.000 A 
ATOM      2  C   UNL     1       2.284   6.486  20.048  0.00  0.00    +0.000 A 
ATOM      3  C   UNL     1       1.520   7.317  20.865  0.00  0.00    +0.000 A 
ATOM      4  C   UNL     1       1.205   8.586  20.409  0.00  0.00    +0.000 A 
ATOM      5  N   UNL     1       0.426   9.474  21.190  0.00  0.00    +0.000 N 
ATOM      6  C   UNL     1      -0.099   9.280  22.449  0.00  0.00    +0.000 A 
ATOM      7  C   UNL     1      -0.772  10.439  22.756  0.00  0.00    +0.000 A 
ATOM      8  N   UNL     1      -0.682  11.340  21.734  0.00  0.00    +0.000 NA
ATOM      9  C   UNL     1       0.040  10.740  20.812  0.00  0.00    +0.000 A 
ATOM     10  N   UNL     1       1.626   9.013  19.199  0.00  0.00    +0.000 NA
ATOM     11  N   UNL     1       2.384   8.188  18.399  0.00  0.00    +0.000 NA
ENDROOT
BRANCH   1  15
ATOM     12  C   UNL     1       5.095   4.565  16.106  0.00  0.00    +0.000 A 
ATOM     13  C   UNL     1       4.145   3.967  16.929  0.00  0.00    +0.000 A 
ATOM     14  C   UNL     1       3.367   4.742  17.796  0.00  0.00    +0.000 A 
ATOM     15  C   UNL     1       3.534   6.135  17.882  0.00  0.00    +0.000 A 
ATOM     16  C   UNL     1       4.510   6.715  17.050  0.00  0.00    +0.000 A 
ATOM     17  C   UNL     1       5.284   5.942  16.177  0.00  0.00    +0.000 A 
BRANCH  12  19
ATOM     18  C   UNL     1       6.382   4.305  14.146  0.00  0.00    +0.000 C 
ATOM     19  O   UNL     1       5.800   3.713  15.302  0.00  0.00    +0.000 OA
ENDBRANCH  12  19
ENDBRANCH   1  15
TORSDOF 2
ENDMDL
MODEL 4
REMARK VINA RESULT:      -6.9      1.275      1.608
REMARK  Name = 
REMARK  3 active torsions:
REMARK  status: ('A' for Active; 'I' for Inactive)
REMARK    1  A    between atoms: C_1  and  O_2
REMARK    2  A    between atoms: O_2  and  C_3
REMARK    3  A    between atoms: C_6  and  C_7
REMARK                            x       y       z     vdW  Elec       q    Type
REMARK                         _______ _______ _______ _____ _____    ______ ____
ROOT
ATOM      1  C   UNL     1       2.809   7.088  18.431  0.00  0.00    +0.000 A 
ATOM      2  C   UNL     1       2.410   6.831  19.739  0.00  0.00    +0.000 A 
ATOM      3  C   UNL     1       1.647   7.772  20.429  0.00  0.00    +0.000 A 
ATOM      4  C   UNL     1       1.298   8.945  19.781  0.00  0.00    +0.000 A 
ATOM      5  N   UNL     1       0.520   9.936  20.427  0.00  0.00    +0.000 N 
ATOM      6  C   UNL     1       0.026   9.940  21.714  0.00  0.00    +0.000 A 
ATOM      7  C   UNL     1      -0.663  11.123  21.846  0.00  0.00    +0.000 A 
ATOM      8  N   UNL     1      -0.612  11.848  20.689  0.00  0.00    +0.000 NA
ATOM      9  C   UNL     1       0.101  11.117  19.859  0.00  0.00    +0.000 A 
ATOM     10  N   UNL     1       1.684   9.177  18.508  0.00  0.00    +0.000 NA
ATOM     11  N   UNL     1       2.441   8.245  17.834  0.00  0.00    +0.000 NA
ENDROOT
BRANCH   1  15
ATOM     12  C   UNL     1       5.187   4.372  16.072  0.00  0.00    +0.000 A 
ATOM     13  C   UNL     1       5.353   5.749  15.949  0.00  0.00    +0.000 A 
ATOM     14  C   UNL     1       4.588   6.628  16.725  0.00  0.00    +0.000 A 
ATOM     15  C   UNL     1       3.620   6.154  17.627  0.00  0.00    +0.000 A 
ATOM     16  C   UNL     1       3.462   4.759  17.723  0.00  0.00    +0.000 A 
ATOM     17  C   UNL     1       4.230   3.878  16.953  0.00  0.00    +0.000 A 
BRANCH  12  19
ATOM     18  C   UNL     1       6.455   4.251  14.086  0.00  0.00    +0.000 C 
ATOM     19  O   UNL     1       5.983   3.607  15.264  0.00  0.00    +0.000 OA
ENDBRANCH  12  19
ENDBRANCH   1  15
TORSDOF 2
ENDMDL
MODEL 5
REMARK VINA RESULT:      -6.5      3.514      7.957
REMARK  Name = 
REMARK  3 active torsions:
REMARK  status: ('A' for Active; 'I' for Inactive)
REMARK    1  A    between atoms: C_1  and  O_2
REMARK    2  A    between atoms: O_2  and  C_3
REMARK    3  A    between atoms: C_6  and  C_7
REMARK                            x       y       z     vdW  Elec       q    Type
REMARK                         _______ _______ _______ _____ _____    ______ ____
ROOT
ATOM      1  C   UNL     1       1.388   8.294  20.304  0.00  0.00    +0.000 A 
ATOM      2  C   UNL     1       1.928   8.520  19.042  0.00  0.00    +0.000 A 
ATOM      3  C   UNL     1       2.604   7.494  18.383  0.00  0.00    +0.000 A 
ATOM      4  C   UNL     1       2.711   6.263  19.008  0.00  0.00    +0.000 A 
ATOM      5  N   UNL     1       3.380   5.181  18.387  0.00  0.00    +0.000 N 
ATOM      6  C   UNL     1       4.019   5.149  17.166  0.00  0.00    +0.000 A 
ATOM      7  C   UNL     1       4.499   3.869  17.029  0.00  0.00    +0.000 A 
ATOM      8  N   UNL     1       4.181   3.109  18.119  0.00  0.00    +0.000 NA
ATOM      9  C   UNL     1       3.514   3.917  18.915  0.00  0.00    +0.000 A 
ATOM     10  N   UNL     1       2.173   6.056  20.229  0.00  0.00    +0.000 NA
ATOM     11  N   UNL     1       1.511   7.075  20.875  0.00  0.00    +0.000 NA
ENDROOT
BRANCH   1  15
ATOM     12  C   UNL     1      -0.729  11.308  22.548  0.00  0.00    +0.000 A 
ATOM     13  C   UNL     1      -0.054  11.640  21.376  0.00  0.00    +0.000 A 
ATOM     14  C   UNL     1       0.622  10.657  20.643  0.00  0.00    +0.000 A 
ATOM     15  C   UNL     1       0.662   9.320  21.075  0.00  0.00    +0.000 A 
ATOM     16  C   UNL     1      -0.017   9.012  22.269  0.00  0.00    +0.000 A 
ATOM     17  C   UNL     1      -0.699   9.993  23.000  0.00  0.00    +0.000 A 
BRANCH  12  19
ATOM     18  C   UNL     1      -2.764  12.225  23.313  0.00  0.00    +0.000 C 
ATOM     19  O   UNL     1      -1.351  12.346  23.184  0.00  0.00    +0.000 OA
ENDBRANCH  12  19
ENDBRANCH   1  15
TORSDOF 2
ENDMDL
MODEL 6
REMARK VINA RESULT:      -6.5      3.516      8.001
REMARK  Name = 
REMARK  3 active torsions:
REMARK  status: ('A' for Active; 'I' for Inactive)
REMARK    1  A    between atoms: C_1  and  O_2
REMARK    2  A    between atoms: O_2  and  C_3
REMARK    3  A    between atoms: C_6  and  C_7
REMARK                            x       y       z     vdW  Elec       q    Type
REMARK                         _______ _______ _______ _____ _____    ______ ____
ROOT
ATOM      1  C   UNL     1       1.451   8.168  20.282  0.00  0.00    +0.000 A 
ATOM      2  C   UNL     1       2.020   8.424  19.039  0.00  0.00    +0.000 A 
ATOM      3  C   UNL     1       2.688   7.407  18.359  0.00  0.00    +0.000 A 
ATOM      4  C   UNL     1       2.760   6.154  18.945  0.00  0.00    +0.000 A 
ATOM      5  N   UNL     1       3.419   5.080  18.300  0.00  0.00    +0.000 N 
ATOM      6  C   UNL     1       4.081   5.076  17.091  0.00  0.00    +0.000 A 
ATOM      7  C   UNL     1       4.539   3.791  16.921  0.00  0.00    +0.000 A 
ATOM      8  N   UNL     1       4.185   3.003  17.979  0.00  0.00    +0.000 NA
ATOM      9  C   UNL     1       3.520   3.798  18.789  0.00  0.00    +0.000 A 
ATOM     10  N   UNL     1       2.195   5.918  20.148  0.00  0.00    +0.000 NA
ATOM     11  N   UNL     1       1.540   6.928  20.816  0.00  0.00    +0.000 NA
ENDROOT
BRANCH   1  15
ATOM     12  C   UNL     1      -0.658  11.122  22.612  0.00  0.00    +0.000 A 
ATOM     13  C   UNL     1      -0.332   9.885  23.162  0.00  0.00    +0.000 A 
ATOM     14  C   UNL     1       0.364   8.933  22.408  0.00  0.00    +0.000 A 
ATOM     15  C   UNL     1       0.731   9.182  21.074  0.00  0.00    +0.000 A 
ATOM     16  C   UNL     1       0.379  10.434  20.536  0.00  0.00    +0.000 A 
ATOM     17  C   UNL     1      -0.311  11.390  21.291  0.00  0.00    +0.000 A 
BRANCH  12  19
ATOM     18  C   UNL     1      -2.687  12.238  23.062  0.00  0.00    +0.000 C 
ATOM     19  O   UNL     1      -1.340  11.974  23.436  0.00  0.00    +0.000 OA
ENDBRANCH  12  19
ENDBRANCH   1  15
TORSDOF 2
ENDMDL
MODEL 7
REMARK VINA RESULT:      -6.5      1.577      2.214
REMARK  Name = 
REMARK  3 active torsions:
REMARK  status: ('A' for Active; 'I' for Inactive)
REMARK    1  A    between atoms: C_1  and  O_2
REMARK    2  A    between atoms: O_2  and  C_3
REMARK    3  A    between atoms: C_6  and  C_7
REMARK                            x       y       z     vdW  Elec       q    Type
REMARK                         _______ _______ _______ _____ _____    ______ ____
ROOT
ATOM      1  C   UNL     1       2.386   7.800  18.455  0.00  0.00    +0.000 A 
ATOM      2  C   UNL     1       1.986   7.759  19.787  0.00  0.00    +0.000 A 
ATOM      3  C   UNL     1       1.200   8.786  20.308  0.00  0.00    +0.000 A 
ATOM      4  C   UNL     1       0.830   9.826  19.470  0.00  0.00    +0.000 A 
ATOM      5  N   UNL     1       0.029  10.894  19.939  0.00  0.00    +0.000 N 
ATOM      6  C   UNL     1      -0.472  11.105  21.205  0.00  0.00    +0.000 A 
ATOM      7  C   UNL     1      -1.185  12.278  21.135  0.00  0.00    +0.000 A 
ATOM      8  N   UNL     1      -1.143  12.799  19.872  0.00  0.00    +0.000 NA
ATOM      9  C   UNL     1      -0.411  11.954  19.179  0.00  0.00    +0.000 A 
ATOM     10  N   UNL     1       1.219   9.847  18.177  0.00  0.00    +0.000 NA
ATOM     11  N   UNL     1       1.998   8.831  17.672  0.00  0.00    +0.000 NA
ENDROOT
BRANCH   1  15
ATOM     12  C   UNL     1       4.814   4.748  16.613  0.00  0.00    +0.000 A 
ATOM     13  C   UNL     1       3.695   4.405  17.367  0.00  0.00    +0.000 A 
ATOM     14  C   UNL     1       2.902   5.398  17.954  0.00  0.00    +0.000 A 
ATOM     15  C   UNL     1       3.220   6.761  17.822  0.00  0.00    +0.000 A 
ATOM     16  C   UNL     1       4.363   7.082  17.067  0.00  0.00    +0.000 A 
ATOM     17  C   UNL     1       5.154   6.090  16.473  0.00  0.00    +0.000 A 
BRANCH  12  19
ATOM     18  C   UNL     1       6.608   4.054  15.246  0.00  0.00    +0.000 C 
ATOM     19  O   UNL     1       5.517   3.699  16.089  0.00  0.00    +0.000 OA
ENDBRANCH  12  19
ENDBRANCH   1  15
TORSDOF 2
ENDMDL
MODEL 8
REMARK VINA RESULT:      -6.5      3.528      8.003
REMARK  Name = 
REMARK  3 active torsions:
REMARK  status: ('A' for Active; 'I' for Inactive)
REMARK    1  A    between atoms: C_1  and  O_2
REMARK    2  A    between atoms: O_2  and  C_3
REMARK    3  A    between atoms: C_6  and  C_7
REMARK                            x       y       z     vdW  Elec       q    Type
REMARK                         _______ _______ _______ _____ _____    ______ ____
ROOT
ATOM      1  C   UNL     1       1.956   7.963  19.613  0.00  0.00    +0.000 A 
ATOM      2  C   UNL     1       2.295   6.638  19.866  0.00  0.00    +0.000 A 
ATOM      3  C   UNL     1       3.120   5.951  18.976  0.00  0.00    +0.000 A 
ATOM      4  C   UNL     1       3.590   6.620  17.858  0.00  0.00    +0.000 A 
ATOM      5  N   UNL     1       4.436   5.978  16.922  0.00  0.00    +0.000 N 
ATOM      6  C   UNL     1       4.893   4.678  16.923  0.00  0.00    +0.000 A 
ATOM      7  C   UNL     1       5.681   4.558  15.803  0.00  0.00    +0.000 A 
ATOM      8  N   UNL     1       5.727   5.735  15.111  0.00  0.00    +0.000 NA
ATOM      9  C   UNL     1       4.974   6.565  15.800  0.00  0.00    +0.000 A 
ATOM     10  N   UNL     1       3.261   7.910  17.632  0.00  0.00    +0.000 NA
ATOM     11  N   UNL     1       2.443   8.580  18.512  0.00  0.00    +0.000 NA
ENDROOT
BRANCH   1  15
ATOM     12  C   UNL     1      -0.579  10.296  22.208  0.00  0.00    +0.000 A 
ATOM     13  C   UNL     1       0.224   9.283  22.725  0.00  0.00    +0.000 A 
ATOM     14  C   UNL     1       1.055   8.536  21.882  0.00  0.00    +0.000 A 
ATOM     15  C   UNL     1       1.088   8.765  20.495  0.00  0.00    +0.000 A 
ATOM     16  C   UNL     1       0.257   9.785  19.995  0.00  0.00    +0.000 A 
ATOM     17  C   UNL     1      -0.570  10.539  20.837  0.00  0.00    +0.000 A 
BRANCH  12  19
ATOM     18  C   UNL     1      -2.070  12.079  22.613  0.00  0.00    +0.000 C 
ATOM     19  O   UNL     1      -1.352  10.960  23.120  0.00  0.00    +0.000 OA
ENDBRANCH  12  19
ENDBRANCH   1  15
TORSDOF 2
ENDMDL
MODEL 9
REMARK VINA RESULT:      -6.4      3.521      7.954
REMARK  Name = 
REMARK  3 active torsions:
REMARK  status: ('A' for Active; 'I' for Inactive)
REMARK    1  A    between atoms: C_1  and  O_2
REMARK    2  A    between atoms: O_2  and  C_3
REMARK    3  A    between atoms: C_6  and  C_7
REMARK                            x       y       z     vdW  Elec       q    Type
REMARK                         _______ _______ _______ _____ _____    ______ ____
ROOT
ATOM      1  C   UNL     1       2.327   7.608  19.007  0.00  0.00    +0.000 A 
ATOM      2  C   UNL     1       2.486   6.261  19.319  0.00  0.00    +0.000 A 
ATOM      3  C   UNL     1       3.310   5.459  18.531  0.00  0.00    +0.000 A 
ATOM      4  C   UNL     1       3.961   6.037  17.453  0.00  0.00    +0.000 A 
ATOM      5  N   UNL     1       4.815   5.275  16.620  0.00  0.00    +0.000 N 
ATOM      6  C   UNL     1       5.119   3.933  16.693  0.00  0.00    +0.000 A 
ATOM      7  C   UNL     1       5.994   3.691  15.661  0.00  0.00    +0.000 A 
ATOM      8  N   UNL     1       6.241   4.833  14.953  0.00  0.00    +0.000 NA
ATOM      9  C   UNL     1       5.524   5.763  15.546  0.00  0.00    +0.000 A 
ATOM     10  N   UNL     1       3.804   7.347  17.168  0.00  0.00    +0.000 NA
ATOM     11  N   UNL     1       2.985   8.131  17.948  0.00  0.00    +0.000 NA
ENDROOT
BRANCH   1  15
ATOM     12  C   UNL     1      -0.172  10.311  21.254  0.00  0.00    +0.000 A 
ATOM     13  C   UNL     1       0.075  10.532  19.902  0.00  0.00    +0.000 A 
ATOM     14  C   UNL     1       0.876   9.646  19.172  0.00  0.00    +0.000 A 
ATOM     15  C   UNL     1       1.473   8.528  19.781  0.00  0.00    +0.000 A 
ATOM     16  C   UNL     1       1.219   8.334  21.151  0.00  0.00    +0.000 A 
ATOM     17  C   UNL     1       0.413   9.215  21.881  0.00  0.00    +0.000 A 
BRANCH  12  19
ATOM     18  C   UNL     1      -1.338  10.935  23.208  0.00  0.00    +0.000 C 
ATOM     19  O   UNL     1      -0.964  11.241  21.869  0.00  0.00    +0.000 OA
ENDBRANCH  12  19
ENDBRANCH   1  15
TORSDOF 2
ENDMDL
