MODEL 1
REMARK VINA RESULT:      -5.6      0.000      0.000
REMARK  Name = 
REMARK  16 active torsions:
REMARK  status: ('A' for Active; 'I' for Inactive)
REMARK    1  A    between atoms: C_1  and  C_2
REMARK    2  A    between atoms: C_2  and  C_3
REMARK    3  A    between atoms: C_3  and  C_4
REMARK    4  A    between atoms: C_4  and  C_5
REMARK    5  A    between atoms: C_5  and  C_6
REMARK    6  A    between atoms: C_6  and  C_7
REMARK    7  A    between atoms: C_7  and  C_8
REMARK    8  A    between atoms: C_8  and  C_9
REMARK    9  A    between atoms: C_9  and  C_10
REMARK   10  A    between atoms: C_10  and  O_11
REMARK   11  A    between atoms: C_10  and  C_12
REMARK   12  A    between atoms: C_12  and  N_13
REMARK   13  A    between atoms: C_12  and  C_14
REMARK   14  A    between atoms: C_14  and  C_15
REMARK   15  A    between atoms: C_15  and  C_16
REMARK   16  A    between atoms: C_15  and  C_17
REMARK                            x       y       z     vdW  Elec       q    Type
REMARK                         _______ _______ _______ _____ _____    ______ ____
ROOT
ATOM      1  C   UNL     1       4.974   4.294  18.309  0.00  0.00    +0.000 C 
ENDROOT
BRANCH   1   2
ATOM      2  O   UNL     1       5.151   3.072  19.037  0.00  0.00    +0.000 OA
ATOM      3  H   UNL     1       5.716   3.269  19.803  0.00  0.00    +0.000 HD
ENDBRANCH   1   2
BRANCH   1   4
ATOM      4  C   UNL     1       3.646   4.245  17.543  0.00  0.00    +0.000 C 
BRANCH   4   5
ATOM      5  C   UNL     1       2.709   5.396  17.897  0.00  0.00    +0.000 C 
BRANCH   5   6
ATOM      6  C   UNL     1       3.318   6.212  19.036  0.00  0.00    +0.000 C 
BRANCH   6   7
ATOM      7  C   UNL     1       2.251   6.660  20.023  0.00  0.00    +0.000 C 
BRANCH   7   8
ATOM      8  C   UNL     1       1.441   5.464  20.514  0.00  0.00    +0.000 C 
BRANCH   8   9
ATOM      9  C   UNL     1       2.341   4.476  21.246  0.00  0.00    +0.000 C 
BRANCH   9  10
ATOM     10  C   UNL     1       1.912   3.037  20.978  0.00  0.00    +0.000 C 
BRANCH  10  12
ATOM     11  C   UNL     1       1.052   2.148  18.792  0.00  0.00    +0.000 C 
ATOM     12  C   UNL     1       0.734   2.994  20.012  0.00  0.00    +0.000 C 
ENDBRANCH  10  12
ENDBRANCH   9  10
ENDBRANCH   8   9
ENDBRANCH   7   8
ENDBRANCH   6   7
ENDBRANCH   5   6
ENDBRANCH   4   5
ENDBRANCH   1   4
BRANCH   1  13
ATOM     13  C   UNL     1       6.207   4.523  17.386  0.00  0.00    +0.000 C 
BRANCH  13  14
ATOM     14  N   UNL     1       6.125   3.740  16.137  0.00  0.00    +0.000 NA
ATOM     15  H   UNL     1       6.947   3.898  15.559  0.00  0.00    +0.000 HD
ATOM     16  H   UNL     1       5.311   4.039  15.604  0.00  0.00    +0.000 HD
ENDBRANCH  13  14
BRANCH  13  17
ATOM     17  C   UNL     1       6.435   6.002  17.011  0.00  0.00    +0.000 C 
BRANCH  17  18
ATOM     18  C   UNL     1       7.702   6.643  17.616  0.00  0.00    +0.000 C 
ATOM     19  C   UNL     1       7.627   8.171  17.601  0.00  0.00    +0.000 C 
ATOM     20  C   UNL     1       7.904   6.143  19.048  0.00  0.00    +0.000 C 
ENDBRANCH  17  18
ENDBRANCH  13  17
ENDBRANCH   1  13
TORSDOF 13
ENDMDL
MODEL 2
REMARK VINA RESULT:      -5.5      3.443      6.734
REMARK  Name = 
REMARK  16 active torsions:
REMARK  status: ('A' for Active; 'I' for Inactive)
REMARK    1  A    between atoms: C_1  and  C_2
REMARK    2  A    between atoms: C_2  and  C_3
REMARK    3  A    between atoms: C_3  and  C_4
REMARK    4  A    between atoms: C_4  and  C_5
REMARK    5  A    between atoms: C_5  and  C_6
REMARK    6  A    between atoms: C_6  and  C_7
REMARK    7  A    between atoms: C_7  and  C_8
REMARK    8  A    between atoms: C_8  and  C_9
REMARK    9  A    between atoms: C_9  and  C_10
REMARK   10  A    between atoms: C_10  and  O_11
REMARK   11  A    between atoms: C_10  and  C_12
REMARK   12  A    between atoms: C_12  and  N_13
REMARK   13  A    between atoms: C_12  and  C_14
REMARK   14  A    between atoms: C_14  and  C_15
REMARK   15  A    between atoms: C_15  and  C_16
REMARK   16  A    between atoms: C_15  and  C_17
REMARK                            x       y       z     vdW  Elec       q    Type
REMARK                         _______ _______ _______ _____ _____    ______ ____
ROOT
ATOM      1  C   UNL     1       2.678   2.376  17.706  0.00  0.00    +0.000 C 
ENDROOT
BRANCH   1   2
ATOM      2  O   UNL     1       2.629   1.248  18.590  0.00  0.00    +0.000 OA
ATOM      3  H   UNL     1       2.266   0.500  18.086  0.00  0.00    +0.000 HD
ENDBRANCH   1   2
BRANCH   1   4
ATOM      4  C   UNL     1       4.140   2.769  17.461  0.00  0.00    +0.000 C 
BRANCH   4   5
ATOM      5  C   UNL     1       4.468   4.181  17.938  0.00  0.00    +0.000 C 
BRANCH   5   6
ATOM      6  C   UNL     1       5.159   4.947  16.812  0.00  0.00    +0.000 C 
BRANCH   6   7
ATOM      7  C   UNL     1       5.804   3.995  15.815  0.00  0.00    +0.000 C 
BRANCH   7   8
ATOM      8  C   UNL     1       5.355   4.324  14.394  0.00  0.00    +0.000 C 
BRANCH   8   9
ATOM      9  C   UNL     1       6.432   3.932  13.390  0.00  0.00    +0.000 C 
BRANCH   9  10
ATOM     10  C   UNL     1       5.827   3.230  12.180  0.00  0.00    +0.000 C 
BRANCH  10  12
ATOM     11  C   UNL     1       6.324   1.032  11.069  0.00  0.00    +0.000 C 
ATOM     12  C   UNL     1       6.876   2.392  11.458  0.00  0.00    +0.000 C 
ENDBRANCH  10  12
ENDBRANCH   9  10
ENDBRANCH   8   9
ENDBRANCH   7   8
ENDBRANCH   6   7
ENDBRANCH   5   6
ENDBRANCH   4   5
ENDBRANCH   1   4
BRANCH   1  13
ATOM     13  C   UNL     1       1.823   3.532  18.302  0.00  0.00    +0.000 C 
BRANCH  13  14
ATOM     14  N   UNL     1       0.997   4.204  17.279  0.00  0.00    +0.000 NA
ATOM     15  H   UNL     1       0.168   4.616  17.700  0.00  0.00    +0.000 HD
ATOM     16  H   UNL     1       0.687   3.518  16.594  0.00  0.00    +0.000 HD
ENDBRANCH  13  14
BRANCH  13  17
ATOM     17  C   UNL     1       0.896   3.090  19.453  0.00  0.00    +0.000 C 
BRANCH  17  18
ATOM     18  C   UNL     1       1.236   3.688  20.835  0.00  0.00    +0.000 C 
ATOM     19  C   UNL     1       1.986   2.687  21.716  0.00  0.00    +0.000 C 
ATOM     20  C   UNL     1       2.070   4.959  20.660  0.00  0.00    +0.000 C 
ENDBRANCH  17  18
ENDBRANCH  13  17
ENDBRANCH   1  13
TORSDOF 13
ENDMDL
MODEL 3
REMARK VINA RESULT:      -5.5      2.148      3.235
REMARK  Name = 
REMARK  16 active torsions:
REMARK  status: ('A' for Active; 'I' for Inactive)
REMARK    1  A    between atoms: C_1  and  C_2
REMARK    2  A    between atoms: C_2  and  C_3
REMARK    3  A    between atoms: C_3  and  C_4
REMARK    4  A    between atoms: C_4  and  C_5
REMARK    5  A    between atoms: C_5  and  C_6
REMARK    6  A    between atoms: C_6  and  C_7
REMARK    7  A    between atoms: C_7  and  C_8
REMARK    8  A    between atoms: C_8  and  C_9
REMARK    9  A    between atoms: C_9  and  C_10
REMARK   10  A    between atoms: C_10  and  O_11
REMARK   11  A    between atoms: C_10  and  C_12
REMARK   12  A    between atoms: C_12  and  N_13
REMARK   13  A    between atoms: C_12  and  C_14
REMARK   14  A    between atoms: C_14  and  C_15
REMARK   15  A    between atoms: C_15  and  C_16
REMARK   16  A    between atoms: C_15  and  C_17
REMARK                            x       y       z     vdW  Elec       q    Type
REMARK                         _______ _______ _______ _____ _____    ______ ____
ROOT
ATOM      1  C   UNL     1       7.384   5.104  18.082  0.00  0.00    +0.000 C 
ENDROOT
BRANCH   1   2
ATOM      2  O   UNL     1       8.216   3.976  17.783  0.00  0.00    +0.000 OA
ATOM      3  H   UNL     1       8.498   4.061  16.856  0.00  0.00    +0.000 HD
ENDBRANCH   1   2
BRANCH   1   4
ATOM      4  C   UNL     1       6.150   4.636  18.862  0.00  0.00    +0.000 C 
BRANCH   4   5
ATOM      5  C   UNL     1       4.933   5.531  18.651  0.00  0.00    +0.000 C 
BRANCH   5   6
ATOM      6  C   UNL     1       3.932   5.299  19.782  0.00  0.00    +0.000 C 
BRANCH   6   7
ATOM      7  C   UNL     1       2.539   5.769  19.388  0.00  0.00    +0.000 C 
BRANCH   7   8
ATOM      8  C   UNL     1       2.257   5.437  17.926  0.00  0.00    +0.000 C 
BRANCH   8   9
ATOM      9  C   UNL     1       1.525   4.105  17.814  0.00  0.00    +0.000 C 
BRANCH   9  10
ATOM     10  C   UNL     1       2.455   3.007  17.308  0.00  0.00    +0.000 C 
BRANCH  10  12
ATOM     11  C   UNL     1       1.764   2.114  19.552  0.00  0.00    +0.000 C 
ATOM     12  C   UNL     1       2.765   2.007  18.416  0.00  0.00    +0.000 C 
ENDBRANCH  10  12
ENDBRANCH   9  10
ENDBRANCH   8   9
ENDBRANCH   7   8
ENDBRANCH   6   7
ENDBRANCH   5   6
ENDBRANCH   4   5
ENDBRANCH   1   4
BRANCH   1  13
ATOM     13  C   UNL     1       7.029   5.845  16.760  0.00  0.00    +0.000 C 
BRANCH  13  14
ATOM     14  N   UNL     1       7.669   7.174  16.673  0.00  0.00    +0.000 NA
ATOM     15  H   UNL     1       8.153   7.397  17.539  0.00  0.00    +0.000 HD
ATOM     16  H   UNL     1       6.954   7.883  16.526  0.00  0.00    +0.000 HD
ENDBRANCH  13  14
BRANCH  13  17
ATOM     17  C   UNL     1       7.394   5.053  15.487  0.00  0.00    +0.000 C 
BRANCH  17  18
ATOM     18  C   UNL     1       6.270   4.152  14.932  0.00  0.00    +0.000 C 
ATOM     19  C   UNL     1       4.885   4.736  15.213  0.00  0.00    +0.000 C 
ATOM     20  C   UNL     1       6.459   3.953  13.427  0.00  0.00    +0.000 C 
ENDBRANCH  17  18
ENDBRANCH  13  17
ENDBRANCH   1  13
TORSDOF 13
ENDMDL
MODEL 4
REMARK VINA RESULT:      -5.4      3.825      6.939
REMARK  Name = 
REMARK  16 active torsions:
REMARK  status: ('A' for Active; 'I' for Inactive)
REMARK    1  A    between atoms: C_1  and  C_2
REMARK    2  A    between atoms: C_2  and  C_3
REMARK    3  A    between atoms: C_3  and  C_4
REMARK    4  A    between atoms: C_4  and  C_5
REMARK    5  A    between atoms: C_5  and  C_6
REMARK    6  A    between atoms: C_6  and  C_7
REMARK    7  A    between atoms: C_7  and  C_8
REMARK    8  A    between atoms: C_8  and  C_9
REMARK    9  A    between atoms: C_9  and  C_10
REMARK   10  A    between atoms: C_10  and  O_11
REMARK   11  A    between atoms: C_10  and  C_12
REMARK   12  A    between atoms: C_12  and  N_13
REMARK   13  A    between atoms: C_12  and  C_14
REMARK   14  A    between atoms: C_14  and  C_15
REMARK   15  A    between atoms: C_15  and  C_16
REMARK   16  A    between atoms: C_15  and  C_17
REMARK                            x       y       z     vdW  Elec       q    Type
REMARK                         _______ _______ _______ _____ _____    ______ ____
ROOT
ATOM      1  C   UNL     1       4.781   3.282  17.797  0.00  0.00    +0.000 C 
ENDROOT
BRANCH   1   2
ATOM      2  O   UNL     1       5.576   3.736  18.899  0.00  0.00    +0.000 OA
ATOM      3  H   UNL     1       6.387   4.127  18.531  0.00  0.00    +0.000 HD
ENDBRANCH   1   2
BRANCH   1   4
ATOM      4  C   UNL     1       4.277   4.490  16.998  0.00  0.00    +0.000 C 
BRANCH   4   5
ATOM      5  C   UNL     1       5.356   5.124  16.126  0.00  0.00    +0.000 C 
BRANCH   5   6
ATOM      6  C   UNL     1       6.302   4.035  15.622  0.00  0.00    +0.000 C 
BRANCH   6   7
ATOM      7  C   UNL     1       6.555   4.176  14.128  0.00  0.00    +0.000 C 
BRANCH   7   8
ATOM      8  C   UNL     1       5.277   3.901  13.341  0.00  0.00    +0.000 C 
BRANCH   8   9
ATOM      9  C   UNL     1       5.595   3.151  12.054  0.00  0.00    +0.000 C 
BRANCH   9  10
ATOM     10  C   UNL     1       4.326   2.850  11.264  0.00  0.00    +0.000 C 
BRANCH  10  12
ATOM     11  C   UNL     1       2.753   3.822   9.564  0.00  0.00    +0.000 C 
ATOM     12  C   UNL     1       3.732   4.128  10.684  0.00  0.00    +0.000 C 
ENDBRANCH  10  12
ENDBRANCH   9  10
ENDBRANCH   8   9
ENDBRANCH   7   8
ENDBRANCH   6   7
ENDBRANCH   5   6
ENDBRANCH   4   5
ENDBRANCH   1   4
BRANCH   1  13
ATOM     13  C   UNL     1       3.632   2.377  18.332  0.00  0.00    +0.000 C 
BRANCH  13  14
ATOM     14  N   UNL     1       4.021   0.954  18.389  0.00  0.00    +0.000 NA
ATOM     15  H   UNL     1       4.309   0.697  19.330  0.00  0.00    +0.000 HD
ATOM     16  H   UNL     1       4.812   0.795  17.770  0.00  0.00    +0.000 HD
ENDBRANCH  13  14
BRANCH  13  17
ATOM     17  C   UNL     1       3.114   2.790  19.726  0.00  0.00    +0.000 C 
BRANCH  17  18
ATOM     18  C   UNL     1       1.692   2.299  20.067  0.00  0.00    +0.000 C 
ATOM     19  C   UNL     1       1.267   2.726  21.473  0.00  0.00    +0.000 C 
ATOM     20  C   UNL     1       0.696   2.833  19.035  0.00  0.00    +0.000 C 
ENDBRANCH  17  18
ENDBRANCH  13  17
ENDBRANCH   1  13
TORSDOF 13
ENDMDL
MODEL 5
REMARK VINA RESULT:      -5.4      3.149      6.302
REMARK  Name = 
REMARK  16 active torsions:
REMARK  status: ('A' for Active; 'I' for Inactive)
REMARK    1  A    between atoms: C_1  and  C_2
REMARK    2  A    between atoms: C_2  and  C_3
REMARK    3  A    between atoms: C_3  and  C_4
REMARK    4  A    between atoms: C_4  and  C_5
REMARK    5  A    between atoms: C_5  and  C_6
REMARK    6  A    between atoms: C_6  and  C_7
REMARK    7  A    between atoms: C_7  and  C_8
REMARK    8  A    between atoms: C_8  and  C_9
REMARK    9  A    between atoms: C_9  and  C_10
REMARK   10  A    between atoms: C_10  and  O_11
REMARK   11  A    between atoms: C_10  and  C_12
REMARK   12  A    between atoms: C_12  and  N_13
REMARK   13  A    between atoms: C_12  and  C_14
REMARK   14  A    between atoms: C_14  and  C_15
REMARK   15  A    between atoms: C_15  and  C_16
REMARK   16  A    between atoms: C_15  and  C_17
REMARK                            x       y       z     vdW  Elec       q    Type
REMARK                         _______ _______ _______ _____ _____    ______ ____
ROOT
ATOM      1  C   UNL     1       4.258   3.482  17.879  0.00  0.00    +0.000 C 
ENDROOT
BRANCH   1   2
ATOM      2  O   UNL     1       5.459   3.703  18.628  0.00  0.00    +0.000 OA
ATOM      3  H   UNL     1       5.197   3.951  19.532  0.00  0.00    +0.000 HD
ENDBRANCH   1   2
BRANCH   1   4
ATOM      4  C   UNL     1       3.700   4.828  17.400  0.00  0.00    +0.000 C 
BRANCH   4   5
ATOM      5  C   UNL     1       4.777   5.894  17.223  0.00  0.00    +0.000 C 
BRANCH   5   6
ATOM      6  C   UNL     1       5.197   5.949  15.755  0.00  0.00    +0.000 C 
BRANCH   6   7
ATOM      7  C   UNL     1       6.434   5.099  15.505  0.00  0.00    +0.000 C 
BRANCH   7   8
ATOM      8  C   UNL     1       6.124   3.985  14.510  0.00  0.00    +0.000 C 
BRANCH   8   9
ATOM      9  C   UNL     1       6.978   4.136  13.258  0.00  0.00    +0.000 C 
BRANCH   9  10
ATOM     10  C   UNL     1       6.277   3.545  12.039  0.00  0.00    +0.000 C 
BRANCH  10  12
ATOM     11  C   UNL     1       4.008   3.172  11.028  0.00  0.00    +0.000 C 
ATOM     12  C   UNL     1       4.794   3.330  12.318  0.00  0.00    +0.000 C 
ENDBRANCH  10  12
ENDBRANCH   9  10
ENDBRANCH   8   9
ENDBRANCH   7   8
ENDBRANCH   6   7
ENDBRANCH   5   6
ENDBRANCH   4   5
ENDBRANCH   1   4
BRANCH   1  13
ATOM     13  C   UNL     1       3.251   2.675  18.750  0.00  0.00    +0.000 C 
BRANCH  13  14
ATOM     14  N   UNL     1       3.191   1.251  18.364  0.00  0.00    +0.000 NA
ATOM     15  H   UNL     1       2.796   1.148  17.432  0.00  0.00    +0.000 HD
ATOM     16  H   UNL     1       2.588   0.751  19.013  0.00  0.00    +0.000 HD
ENDBRANCH  13  14
BRANCH  13  17
ATOM     17  C   UNL     1       3.540   2.750  20.264  0.00  0.00    +0.000 C 
BRANCH  17  18
ATOM     18  C   UNL     1       2.451   3.449  21.105  0.00  0.00    +0.000 C 
ATOM     19  C   UNL     1       2.374   4.946  20.801  0.00  0.00    +0.000 C 
ATOM     20  C   UNL     1       1.093   2.792  20.845  0.00  0.00    +0.000 C 
ENDBRANCH  17  18
ENDBRANCH  13  17
ENDBRANCH   1  13
TORSDOF 13
ENDMDL
MODEL 6
REMARK VINA RESULT:      -5.4      1.975      3.120
REMARK  Name = 
REMARK  16 active torsions:
REMARK  status: ('A' for Active; 'I' for Inactive)
REMARK    1  A    between atoms: C_1  and  C_2
REMARK    2  A    between atoms: C_2  and  C_3
REMARK    3  A    between atoms: C_3  and  C_4
REMARK    4  A    between atoms: C_4  and  C_5
REMARK    5  A    between atoms: C_5  and  C_6
REMARK    6  A    between atoms: C_6  and  C_7
REMARK    7  A    between atoms: C_7  and  C_8
REMARK    8  A    between atoms: C_8  and  C_9
REMARK    9  A    between atoms: C_9  and  C_10
REMARK   10  A    between atoms: C_10  and  O_11
REMARK   11  A    between atoms: C_10  and  C_12
REMARK   12  A    between atoms: C_12  and  N_13
REMARK   13  A    between atoms: C_12  and  C_14
REMARK   14  A    between atoms: C_14  and  C_15
REMARK   15  A    between atoms: C_15  and  C_16
REMARK   16  A    between atoms: C_15  and  C_17
REMARK                            x       y       z     vdW  Elec       q    Type
REMARK                         _______ _______ _______ _____ _____    ______ ____
ROOT
ATOM      1  C   UNL     1       6.569   5.907  18.030  0.00  0.00    +0.000 C 
ENDROOT
BRANCH   1   2
ATOM      2  O   UNL     1       7.561   6.904  18.305  0.00  0.00    +0.000 OA
ATOM      3  H   UNL     1       7.799   7.319  17.459  0.00  0.00    +0.000 HD
ENDBRANCH   1   2
BRANCH   1   4
ATOM      4  C   UNL     1       6.111   5.265  19.345  0.00  0.00    +0.000 C 
BRANCH   4   5
ATOM      5  C   UNL     1       4.597   5.094  19.432  0.00  0.00    +0.000 C 
BRANCH   5   6
ATOM      6  C   UNL     1       3.916   6.219  18.656  0.00  0.00    +0.000 C 
BRANCH   6   7
ATOM      7  C   UNL     1       2.794   5.682  17.779  0.00  0.00    +0.000 C 
BRANCH   7   8
ATOM      8  C   UNL     1       2.679   4.168  17.927  0.00  0.00    +0.000 C 
BRANCH   8   9
ATOM      9  C   UNL     1       1.218   3.755  18.052  0.00  0.00    +0.000 C 
BRANCH   9  10
ATOM     10  C   UNL     1       1.079   2.451  18.831  0.00  0.00    +0.000 C 
BRANCH  10  12
ATOM     11  C   UNL     1       1.383   2.965  21.270  0.00  0.00    +0.000 C 
ATOM     12  C   UNL     1       2.039   2.421  20.014  0.00  0.00    +0.000 C 
ENDBRANCH  10  12
ENDBRANCH   9  10
ENDBRANCH   8   9
ENDBRANCH   7   8
ENDBRANCH   6   7
ENDBRANCH   5   6
ENDBRANCH   4   5
ENDBRANCH   1   4
BRANCH   1  13
ATOM     13  C   UNL     1       7.144   4.878  17.012  0.00  0.00    +0.000 C 
BRANCH  13  14
ATOM     14  N   UNL     1       8.213   4.046  17.601  0.00  0.00    +0.000 NA
ATOM     15  H   UNL     1       9.012   4.618  17.861  0.00  0.00    +0.000 HD
ATOM     16  H   UNL     1       8.530   3.368  16.911  0.00  0.00    +0.000 HD
ENDBRANCH  13  14
BRANCH  13  17
ATOM     17  C   UNL     1       6.079   3.938  16.411  0.00  0.00    +0.000 C 
BRANCH  17  18
ATOM     18  C   UNL     1       5.398   4.457  15.127  0.00  0.00    +0.000 C 
ATOM     19  C   UNL     1       5.336   5.985  15.096  0.00  0.00    +0.000 C 
ATOM     20  C   UNL     1       6.146   3.938  13.896  0.00  0.00    +0.000 C 
ENDBRANCH  17  18
ENDBRANCH  13  17
ENDBRANCH   1  13
TORSDOF 13
ENDMDL
MODEL 7
REMARK VINA RESULT:      -5.4      1.869      3.091
REMARK  Name = 
REMARK  16 active torsions:
REMARK  status: ('A' for Active; 'I' for Inactive)
REMARK    1  A    between atoms: C_1  and  C_2
REMARK    2  A    between atoms: C_2  and  C_3
REMARK    3  A    between atoms: C_3  and  C_4
REMARK    4  A    between atoms: C_4  and  C_5
REMARK    5  A    between atoms: C_5  and  C_6
REMARK    6  A    between atoms: C_6  and  C_7
REMARK    7  A    between atoms: C_7  and  C_8
REMARK    8  A    between atoms: C_8  and  C_9
REMARK    9  A    between atoms: C_9  and  C_10
REMARK   10  A    between atoms: C_10  and  O_11
REMARK   11  A    between atoms: C_10  and  C_12
REMARK   12  A    between atoms: C_12  and  N_13
REMARK   13  A    between atoms: C_12  and  C_14
REMARK   14  A    between atoms: C_14  and  C_15
REMARK   15  A    between atoms: C_15  and  C_16
REMARK   16  A    between atoms: C_15  and  C_17
REMARK                            x       y       z     vdW  Elec       q    Type
REMARK                         _______ _______ _______ _____ _____    ______ ____
ROOT
ATOM      1  C   UNL     1       6.274   5.377  19.077  0.00  0.00    +0.000 C 
ENDROOT
BRANCH   1   2
ATOM      2  O   UNL     1       7.298   5.370  20.080  0.00  0.00    +0.000 OA
ATOM      3  H   UNL     1       7.927   6.079  19.859  0.00  0.00    +0.000 HD
ENDBRANCH   1   2
BRANCH   1   4
ATOM      4  C   UNL     1       5.945   3.934  18.674  0.00  0.00    +0.000 C 
BRANCH   4   5
ATOM      5  C   UNL     1       4.644   3.424  19.287  0.00  0.00    +0.000 C 
BRANCH   5   6
ATOM      6  C   UNL     1       3.756   2.853  18.183  0.00  0.00    +0.000 C 
BRANCH   6   7
ATOM      7  C   UNL     1       3.055   3.963  17.412  0.00  0.00    +0.000 C 
BRANCH   7   8
ATOM      8  C   UNL     1       1.757   4.359  18.108  0.00  0.00    +0.000 C 
BRANCH   8   9
ATOM      9  C   UNL     1       1.994   5.532  19.051  0.00  0.00    +0.000 C 
BRANCH   9  10
ATOM     10  C   UNL     1       1.664   5.154  20.492  0.00  0.00    +0.000 C 
BRANCH  10  12
ATOM     11  C   UNL     1       1.716   2.900  21.598  0.00  0.00    +0.000 C 
ATOM     12  C   UNL     1       1.031   3.769  20.558  0.00  0.00    +0.000 C 
ENDBRANCH  10  12
ENDBRANCH   9  10
ENDBRANCH   8   9
ENDBRANCH   7   8
ENDBRANCH   6   7
ENDBRANCH   5   6
ENDBRANCH   4   5
ENDBRANCH   1   4
BRANCH   1  13
ATOM     13  C   UNL     1       6.735   6.259  17.880  0.00  0.00    +0.000 C 
BRANCH  13  14
ATOM     14  N   UNL     1       7.873   7.132  18.232  0.00  0.00    +0.000 NA
ATOM     15  H   UNL     1       7.721   7.574  19.135  0.00  0.00    +0.000 HD
ATOM     16  H   UNL     1       7.959   7.870  17.537  0.00  0.00    +0.000 HD
ENDBRANCH  13  14
BRANCH  13  17
ATOM     17  C   UNL     1       7.121   5.449  16.625  0.00  0.00    +0.000 C 
BRANCH  17  18
ATOM     18  C   UNL     1       6.179   5.627  15.415  0.00  0.00    +0.000 C 
ATOM     19  C   UNL     1       5.652   4.284  14.905  0.00  0.00    +0.000 C 
ATOM     20  C   UNL     1       5.009   6.537  15.797  0.00  0.00    +0.000 C 
ENDBRANCH  17  18
ENDBRANCH  13  17
ENDBRANCH   1  13
TORSDOF 13
ENDMDL
MODEL 8
REMARK VINA RESULT:      -5.4      2.663      6.122
REMARK  Name = 
REMARK  16 active torsions:
REMARK  status: ('A' for Active; 'I' for Inactive)
REMARK    1  A    between atoms: C_1  and  C_2
REMARK    2  A    between atoms: C_2  and  C_3
REMARK    3  A    between atoms: C_3  and  C_4
REMARK    4  A    between atoms: C_4  and  C_5
REMARK    5  A    between atoms: C_5  and  C_6
REMARK    6  A    between atoms: C_6  and  C_7
REMARK    7  A    between atoms: C_7  and  C_8
REMARK    8  A    between atoms: C_8  and  C_9
REMARK    9  A    between atoms: C_9  and  C_10
REMARK   10  A    between atoms: C_10  and  O_11
REMARK   11  A    between atoms: C_10  and  C_12
REMARK   12  A    between atoms: C_12  and  N_13
REMARK   13  A    between atoms: C_12  and  C_14
REMARK   14  A    between atoms: C_14  and  C_15
REMARK   15  A    between atoms: C_15  and  C_16
REMARK   16  A    between atoms: C_15  and  C_17
REMARK                            x       y       z     vdW  Elec       q    Type
REMARK                         _______ _______ _______ _____ _____    ______ ____
ROOT
ATOM      1  C   UNL     1       3.145   2.827  17.798  0.00  0.00    +0.000 C 
ENDROOT
BRANCH   1   2
ATOM      2  O   UNL     1       3.093   1.524  18.391  0.00  0.00    +0.000 OA
ATOM      3  H   UNL     1       2.837   1.637  19.322  0.00  0.00    +0.000 HD
ENDBRANCH   1   2
BRANCH   1   4
ATOM      4  C   UNL     1       4.509   3.467  18.089  0.00  0.00    +0.000 C 
BRANCH   4   5
ATOM      5  C   UNL     1       4.426   4.974  18.315  0.00  0.00    +0.000 C 
BRANCH   5   6
ATOM      6  C   UNL     1       4.590   5.695  16.979  0.00  0.00    +0.000 C 
BRANCH   6   7
ATOM      7  C   UNL     1       5.991   6.269  16.831  0.00  0.00    +0.000 C 
BRANCH   7   8
ATOM      8  C   UNL     1       6.694   5.659  15.623  0.00  0.00    +0.000 C 
BRANCH   8   9
ATOM      9  C   UNL     1       5.690   4.948  14.725  0.00  0.00    +0.000 C 
BRANCH   9  10
ATOM     10  C   UNL     1       6.253   3.628  14.206  0.00  0.00    +0.000 C 
BRANCH  10  12
ATOM     11  C   UNL     1       4.853   3.615  12.121  0.00  0.00    +0.000 C 
ATOM     12  C   UNL     1       6.264   3.605  12.682  0.00  0.00    +0.000 C 
ENDBRANCH  10  12
ENDBRANCH   9  10
ENDBRANCH   8   9
ENDBRANCH   7   8
ENDBRANCH   6   7
ENDBRANCH   5   6
ENDBRANCH   4   5
ENDBRANCH   1   4
BRANCH   1  13
ATOM     13  C   UNL     1       1.947   3.674  18.317  0.00  0.00    +0.000 C 
BRANCH  13  14
ATOM     14  N   UNL     1       1.055   4.112  17.223  0.00  0.00    +0.000 NA
ATOM     15  H   UNL     1       0.594   3.313  16.794  0.00  0.00    +0.000 HD
ATOM     16  H   UNL     1       1.606   4.575  16.504  0.00  0.00    +0.000 HD
ENDBRANCH  13  14
BRANCH  13  17
ATOM     17  C   UNL     1       1.088   2.953  19.376  0.00  0.00    +0.000 C 
BRANCH  17  18
ATOM     18  C   UNL     1       1.166   3.548  20.798  0.00  0.00    +0.000 C 
ATOM     19  C   UNL     1       2.161   2.789  21.677  0.00  0.00    +0.000 C 
ATOM     20  C   UNL     1       1.557   5.026  20.721  0.00  0.00    +0.000 C 
ENDBRANCH  17  18
ENDBRANCH  13  17
ENDBRANCH   1  13
TORSDOF 13
ENDMDL
MODEL 9
REMARK VINA RESULT:      -5.4      1.713      3.136
REMARK  Name = 
REMARK  16 active torsions:
REMARK  status: ('A' for Active; 'I' for Inactive)
REMARK    1  A    between atoms: C_1  and  C_2
REMARK    2  A    between atoms: C_2  and  C_3
REMARK    3  A    between atoms: C_3  and  C_4
REMARK    4  A    between atoms: C_4  and  C_5
REMARK    5  A    between atoms: C_5  and  C_6
REMARK    6  A    between atoms: C_6  and  C_7
REMARK    7  A    between atoms: C_7  and  C_8
REMARK    8  A    between atoms: C_8  and  C_9
REMARK    9  A    between atoms: C_9  and  C_10
REMARK   10  A    between atoms: C_10  and  O_11
REMARK   11  A    between atoms: C_10  and  C_12
REMARK   12  A    between atoms: C_12  and  N_13
REMARK   13  A    between atoms: C_12  and  C_14
REMARK   14  A    between atoms: C_14  and  C_15
REMARK   15  A    between atoms: C_15  and  C_16
REMARK   16  A    between atoms: C_15  and  C_17
REMARK                            x       y       z     vdW  Elec       q    Type
REMARK                         _______ _______ _______ _____ _____    ______ ____
ROOT
ATOM      1  C   UNL     1       4.875   3.830  18.239  0.00  0.00    +0.000 C 
ENDROOT
BRANCH   1   2
ATOM      2  O   UNL     1       5.440   3.209  19.400  0.00  0.00    +0.000 OA
ATOM      3  H   UNL     1       4.877   2.450  19.628  0.00  0.00    +0.000 HD
ENDBRANCH   1   2
BRANCH   1   4
ATOM      4  C   UNL     1       4.039   2.802  17.466  0.00  0.00    +0.000 C 
BRANCH   4   5
ATOM      5  C   UNL     1       2.556   3.155  17.413  0.00  0.00    +0.000 C 
BRANCH   5   6
ATOM      6  C   UNL     1       1.789   2.260  18.384  0.00  0.00    +0.000 C 
BRANCH   6   7
ATOM      7  C   UNL     1       2.074   2.644  19.828  0.00  0.00    +0.000 C 
BRANCH   7   8
ATOM      8  C   UNL     1       0.832   3.245  20.477  0.00  0.00    +0.000 C 
BRANCH   8   9
ATOM      9  C   UNL     1       0.893   4.767  20.436  0.00  0.00    +0.000 C 
BRANCH   9  10
ATOM     10  C   UNL     1       2.335   5.259  20.386  0.00  0.00    +0.000 C 
BRANCH  10  12
ATOM     11  C   UNL     1       2.599   6.673  18.327  0.00  0.00    +0.000 C 
ATOM     12  C   UNL     1       2.405   6.677  19.833  0.00  0.00    +0.000 C 
ENDBRANCH  10  12
ENDBRANCH   9  10
ENDBRANCH   8   9
ENDBRANCH   7   8
ENDBRANCH   6   7
ENDBRANCH   5   6
ENDBRANCH   4   5
ENDBRANCH   1   4
BRANCH   1  13
ATOM     13  C   UNL     1       6.015   4.460  17.387  0.00  0.00    +0.000 C 
BRANCH  13  14
ATOM     14  N   UNL     1       7.329   4.370  18.056  0.00  0.00    +0.000 NA
ATOM     15  H   UNL     1       7.295   3.710  18.829  0.00  0.00    +0.000 HD
ATOM     16  H   UNL     1       7.575   5.281  18.439  0.00  0.00    +0.000 HD
ENDBRANCH  13  14
BRANCH  13  17
ATOM     17  C   UNL     1       6.151   3.845  15.979  0.00  0.00    +0.000 C 
BRANCH  17  18
ATOM     18  C   UNL     1       5.723   4.768  14.818  0.00  0.00    +0.000 C 
ATOM     19  C   UNL     1       5.347   6.165  15.314  0.00  0.00    +0.000 C 
ATOM     20  C   UNL     1       6.851   4.864  13.788  0.00  0.00    +0.000 C 
ENDBRANCH  17  18
ENDBRANCH  13  17
ENDBRANCH   1  13
TORSDOF 13
ENDMDL
