MODEL 1
REMARK VINA RESULT:      -9.0      0.000      0.000
REMARK  Name = 
REMARK  4 active torsions:
REMARK  status: ('A' for Active; 'I' for Inactive)
REMARK    1  A    between atoms: C_1  and  O_2
REMARK    2  A    between atoms: O_2  and  C_3
REMARK    3  A    between atoms: C_9  and  C_11
REMARK    4  A    between atoms: C_11  and  C_12
REMARK                            x       y       z     vdW  Elec       q    Type
REMARK                         _______ _______ _______ _____ _____    ______ ____
ROOT
ATOM      1  C   UNL     1       6.377   3.553  12.460  0.00  0.00    +0.000 A 
ATOM      2  C   UNL     1       7.350   4.359  11.883  0.00  0.00    +0.000 A 
ATOM      3  C   UNL     1       7.944   5.315  12.677  0.00  0.00    +0.000 A 
ATOM      4  N   UNL     1       7.637   5.506  13.973  0.00  0.00    +0.000 NA
ATOM      5  C   UNL     1       6.697   4.729  14.531  0.00  0.00    +0.000 A 
ATOM      6  N   UNL     1       6.370   4.895  15.887  0.00  0.00    +0.000 N 
ATOM      7  C   UNL     1       6.961   5.828  16.723  0.00  0.00    +0.000 C 
ATOM      8  O   UNL     1       7.833   6.642  16.428  0.00  0.00    +0.000 OA
ATOM      9  C   UNL     1       6.032   3.750  13.801  0.00  0.00    +0.000 A 
ATOM     10  H   UNL     1       5.681   4.267  16.274  0.00  0.00    +0.000 HD
ENDROOT
BRANCH   1  12
ATOM     11  C   UNL     1       4.349   2.896  11.427  0.00  0.00    +0.000 C 
ATOM     12  O   UNL     1       5.685   2.568  11.807  0.00  0.00    +0.000 OA
ENDBRANCH   1  12
BRANCH   7  13
ATOM     13  C   UNL     1       6.426   5.797  18.144  0.00  0.00    +0.000 C 
BRANCH  13  14
ATOM     14  C   UNL     1       5.004   5.299  18.245  0.00  0.00    +0.000 A 
ATOM     15  C   UNL     1       3.930   6.171  18.039  0.00  0.00    +0.000 A 
ATOM     16  C   UNL     1       2.617   5.725  18.204  0.00  0.00    +0.000 A 
ATOM     17  C   UNL     1       2.346   4.402  18.587  0.00  0.00    +0.000 A 
ATOM     18  C   UNL     1       1.029   3.953  18.788  0.00  0.00    +0.000 A 
ATOM     19  C   UNL     1       0.776   2.640  19.185  0.00  0.00    +0.000 A 
ATOM     20  C   UNL     1       1.834   1.757  19.379  0.00  0.00    +0.000 A 
ATOM     21  C   UNL     1       3.148   2.186  19.177  0.00  0.00    +0.000 A 
ATOM     22  C   UNL     1       3.420   3.508  18.786  0.00  0.00    +0.000 A 
ATOM     23  C   UNL     1       4.736   3.968  18.606  0.00  0.00    +0.000 A 
ENDBRANCH  13  14
ENDBRANCH   7  13
TORSDOF 3
ENDMDL
MODEL 2
REMARK VINA RESULT:      -8.4      0.592      1.519
REMARK  Name = 
REMARK  4 active torsions:
REMARK  status: ('A' for Active; 'I' for Inactive)
REMARK    1  A    between atoms: C_1  and  O_2
REMARK    2  A    between atoms: O_2  and  C_3
REMARK    3  A    between atoms: C_9  and  C_11
REMARK    4  A    between atoms: C_11  and  C_12
REMARK                            x       y       z     vdW  Elec       q    Type
REMARK                         _______ _______ _______ _____ _____    ______ ____
ROOT
ATOM      1  C   UNL     1       6.181   3.559  12.608  0.00  0.00    +0.000 A 
ATOM      2  C   UNL     1       7.224   4.234  11.988  0.00  0.00    +0.000 A 
ATOM      3  C   UNL     1       7.891   5.192  12.718  0.00  0.00    +0.000 A 
ATOM      4  N   UNL     1       7.591   5.506  13.992  0.00  0.00    +0.000 NA
ATOM      5  C   UNL     1       6.583   4.856  14.591  0.00  0.00    +0.000 A 
ATOM      6  N   UNL     1       6.260   5.151  15.926  0.00  0.00    +0.000 N 
ATOM      7  C   UNL     1       6.922   6.090  16.699  0.00  0.00    +0.000 C 
ATOM      8  O   UNL     1       7.864   6.803  16.358  0.00  0.00    +0.000 OA
ATOM      9  C   UNL     1       5.842   3.884  13.926  0.00  0.00    +0.000 A 
ATOM     10  H   UNL     1       5.516   4.615  16.348  0.00  0.00    +0.000 HD
ENDROOT
BRANCH   1  12
ATOM     11  C   UNL     1       4.345   3.059  11.198  0.00  0.00    +0.000 C 
ATOM     12  O   UNL     1       5.412   2.589  12.020  0.00  0.00    +0.000 OA
ENDBRANCH   1  12
BRANCH   7  13
ATOM     13  C   UNL     1       6.374   6.211  18.110  0.00  0.00    +0.000 C 
BRANCH  13  14
ATOM     14  C   UNL     1       5.321   5.182  18.441  0.00  0.00    +0.000 A 
ATOM     15  C   UNL     1       5.667   4.000  19.105  0.00  0.00    +0.000 A 
ATOM     16  C   UNL     1       4.704   3.017  19.346  0.00  0.00    +0.000 A 
ATOM     17  C   UNL     1       3.377   3.186  18.922  0.00  0.00    +0.000 A 
ATOM     18  C   UNL     1       2.409   2.190  19.130  0.00  0.00    +0.000 A 
ATOM     19  C   UNL     1       1.097   2.365  18.686  0.00  0.00    +0.000 A 
ATOM     20  C   UNL     1       0.735   3.542  18.039  0.00  0.00    +0.000 A 
ATOM     21  C   UNL     1       1.684   4.545  17.830  0.00  0.00    +0.000 A 
ATOM     22  C   UNL     1       3.012   4.379  18.261  0.00  0.00    +0.000 A 
ATOM     23  C   UNL     1       3.988   5.365  18.035  0.00  0.00    +0.000 A 
ENDBRANCH  13  14
ENDBRANCH   7  13
TORSDOF 3
ENDMDL
MODEL 3
REMARK VINA RESULT:      -8.3      0.790      1.397
REMARK  Name = 
REMARK  4 active torsions:
REMARK  status: ('A' for Active; 'I' for Inactive)
REMARK    1  A    between atoms: C_1  and  O_2
REMARK    2  A    between atoms: O_2  and  C_3
REMARK    3  A    between atoms: C_9  and  C_11
REMARK    4  A    between atoms: C_11  and  C_12
REMARK                            x       y       z     vdW  Elec       q    Type
REMARK                         _______ _______ _______ _____ _____    ______ ____
ROOT
ATOM      1  C   UNL     1       6.169   3.619  12.474  0.00  0.00    +0.000 A 
ATOM      2  C   UNL     1       7.238   4.292  11.899  0.00  0.00    +0.000 A 
ATOM      3  C   UNL     1       7.907   5.213  12.675  0.00  0.00    +0.000 A 
ATOM      4  N   UNL     1       7.584   5.491  13.952  0.00  0.00    +0.000 NA
ATOM      5  C   UNL     1       6.551   4.842  14.508  0.00  0.00    +0.000 A 
ATOM      6  N   UNL     1       6.204   5.099  15.844  0.00  0.00    +0.000 N 
ATOM      7  C   UNL     1       6.865   5.999  16.662  0.00  0.00    +0.000 C 
ATOM      8  O   UNL     1       7.828   6.704  16.365  0.00  0.00    +0.000 OA
ATOM      9  C   UNL     1       5.807   3.907  13.794  0.00  0.00    +0.000 A 
ATOM     10  H   UNL     1       5.440   4.564  16.232  0.00  0.00    +0.000 HD
ENDROOT
BRANCH   1  12
ATOM     11  C   UNL     1       4.161   3.161  11.303  0.00  0.00    +0.000 C 
ATOM     12  O   UNL     1       5.395   2.684  11.837  0.00  0.00    +0.000 OA
ENDBRANCH   1  12
BRANCH   7  13
ATOM     13  C   UNL     1       6.289   6.085  18.064  0.00  0.00    +0.000 C 
BRANCH  13  14
ATOM     14  C   UNL     1       5.151   5.124  18.310  0.00  0.00    +0.000 A 
ATOM     15  C   UNL     1       5.070   3.922  17.601  0.00  0.00    +0.000 A 
ATOM     16  C   UNL     1       3.979   3.068  17.778  0.00  0.00    +0.000 A 
ATOM     17  C   UNL     1       2.938   3.399  18.660  0.00  0.00    +0.000 A 
ATOM     18  C   UNL     1       1.820   2.564  18.821  0.00  0.00    +0.000 A 
ATOM     19  C   UNL     1       0.785   2.915  19.688  0.00  0.00    +0.000 A 
ATOM     20  C   UNL     1       0.859   4.101  20.413  0.00  0.00    +0.000 A 
ATOM     21  C   UNL     1       1.967   4.939  20.269  0.00  0.00    +0.000 A 
ATOM     22  C   UNL     1       3.013   4.604  19.392  0.00  0.00    +0.000 A 
ATOM     23  C   UNL     1       4.122   5.448  19.212  0.00  0.00    +0.000 A 
ENDBRANCH  13  14
ENDBRANCH   7  13
TORSDOF 3
ENDMDL
MODEL 4
REMARK VINA RESULT:      -8.3      1.022      1.067
REMARK  Name = 
REMARK  4 active torsions:
REMARK  status: ('A' for Active; 'I' for Inactive)
REMARK    1  A    between atoms: C_1  and  O_2
REMARK    2  A    between atoms: O_2  and  C_3
REMARK    3  A    between atoms: C_9  and  C_11
REMARK    4  A    between atoms: C_11  and  C_12
REMARK                            x       y       z     vdW  Elec       q    Type
REMARK                         _______ _______ _______ _____ _____    ______ ____
ROOT
ATOM      1  C   UNL     1       6.392   3.298  12.282  0.00  0.00    +0.000 A 
ATOM      2  C   UNL     1       7.200   4.293  11.748  0.00  0.00    +0.000 A 
ATOM      3  C   UNL     1       7.719   5.230  12.613  0.00  0.00    +0.000 A 
ATOM      4  N   UNL     1       7.489   5.232  13.939  0.00  0.00    +0.000 NA
ATOM      5  C   UNL     1       6.707   4.273  14.456  0.00  0.00    +0.000 A 
ATOM      6  N   UNL     1       6.466   4.240  15.839  0.00  0.00    +0.000 N 
ATOM      7  C   UNL     1       6.988   5.150  16.744  0.00  0.00    +0.000 C 
ATOM      8  O   UNL     1       7.718   6.107  16.496  0.00  0.00    +0.000 OA
ATOM      9  C   UNL     1       6.127   3.295  13.655  0.00  0.00    +0.000 A 
ATOM     10  H   UNL     1       5.899   3.481  16.189  0.00  0.00    +0.000 HD
ENDROOT
BRANCH   1  12
ATOM     11  C   UNL     1       6.629   1.205  11.199  0.00  0.00    +0.000 C 
ATOM     12  O   UNL     1       5.791   2.302  11.558  0.00  0.00    +0.000 OA
ENDBRANCH   1  12
BRANCH   7  13
ATOM     13  C   UNL     1       6.572   4.886  18.180  0.00  0.00    +0.000 C 
BRANCH  13  14
ATOM     14  C   UNL     1       5.121   4.498  18.328  0.00  0.00    +0.000 A 
ATOM     15  C   UNL     1       4.181   4.880  17.366  0.00  0.00    +0.000 A 
ATOM     16  C   UNL     1       2.827   4.582  17.542  0.00  0.00    +0.000 A 
ATOM     17  C   UNL     1       2.380   3.905  18.687  0.00  0.00    +0.000 A 
ATOM     18  C   UNL     1       1.017   3.630  18.889  0.00  0.00    +0.000 A 
ATOM     19  C   UNL     1       0.585   2.971  20.042  0.00  0.00    +0.000 A 
ATOM     20  C   UNL     1       1.511   2.571  21.001  0.00  0.00    +0.000 A 
ATOM     21  C   UNL     1       2.870   2.831  20.811  0.00  0.00    +0.000 A 
ATOM     22  C   UNL     1       3.319   3.503  19.661  0.00  0.00    +0.000 A 
ATOM     23  C   UNL     1       4.680   3.800  19.465  0.00  0.00    +0.000 A 
ENDBRANCH  13  14
ENDBRANCH   7  13
TORSDOF 3
ENDMDL
MODEL 5
REMARK VINA RESULT:      -8.0      4.301      6.665
REMARK  Name = 
REMARK  4 active torsions:
REMARK  status: ('A' for Active; 'I' for Inactive)
REMARK    1  A    between atoms: C_1  and  O_2
REMARK    2  A    between atoms: O_2  and  C_3
REMARK    3  A    between atoms: C_9  and  C_11
REMARK    4  A    between atoms: C_11  and  C_12
REMARK                            x       y       z     vdW  Elec       q    Type
REMARK                         _______ _______ _______ _____ _____    ______ ____
ROOT
ATOM      1  C   UNL     1       9.813  11.589  19.522  0.00  0.00    +0.000 A 
ATOM      2  C   UNL     1       9.195  12.273  18.483  0.00  0.00    +0.000 A 
ATOM      3  C   UNL     1       8.413  11.546  17.614  0.00  0.00    +0.000 A 
ATOM      4  N   UNL     1       8.214  10.219  17.717  0.00  0.00    +0.000 NA
ATOM      5  C   UNL     1       8.812   9.557  18.719  0.00  0.00    +0.000 A 
ATOM      6  N   UNL     1       8.608   8.175  18.861  0.00  0.00    +0.000 N 
ATOM      7  C   UNL     1       7.811   7.414  18.022  0.00  0.00    +0.000 C 
ATOM      8  O   UNL     1       7.178   7.805  17.043  0.00  0.00    +0.000 OA
ATOM      9  C   UNL     1       9.634  10.207  19.635  0.00  0.00    +0.000 A 
ATOM     10  H   UNL     1       9.050   7.723  19.648  0.00  0.00    +0.000 HD
ENDROOT
BRANCH   1  12
ATOM     11  C   UNL     1      11.489  13.197  19.990  0.00  0.00    +0.000 C 
ATOM     12  O   UNL     1      10.630  12.160  20.462  0.00  0.00    +0.000 OA
ENDBRANCH   1  12
BRANCH   7  13
ATOM     13  C   UNL     1       7.759   5.944  18.399  0.00  0.00    +0.000 C 
BRANCH  13  14
ATOM     14  C   UNL     1       6.407   5.310  18.180  0.00  0.00    +0.000 A 
ATOM     15  C   UNL     1       6.126   4.630  16.992  0.00  0.00    +0.000 A 
ATOM     16  C   UNL     1       4.851   4.107  16.761  0.00  0.00    +0.000 A 
ATOM     17  C   UNL     1       3.826   4.259  17.708  0.00  0.00    +0.000 A 
ATOM     18  C   UNL     1       2.532   3.765  17.472  0.00  0.00    +0.000 A 
ATOM     19  C   UNL     1       1.518   3.940  18.415  0.00  0.00    +0.000 A 
ATOM     20  C   UNL     1       1.788   4.601  19.610  0.00  0.00    +0.000 A 
ATOM     21  C   UNL     1       3.071   5.091  19.862  0.00  0.00    +0.000 A 
ATOM     22  C   UNL     1       4.100   4.933  18.918  0.00  0.00    +0.000 A 
ATOM     23  C   UNL     1       5.390   5.445  19.141  0.00  0.00    +0.000 A 
ENDBRANCH  13  14
ENDBRANCH   7  13
TORSDOF 3
ENDMDL
MODEL 6
REMARK VINA RESULT:      -7.9      4.038      6.189
REMARK  Name = 
REMARK  4 active torsions:
REMARK  status: ('A' for Active; 'I' for Inactive)
REMARK    1  A    between atoms: C_1  and  O_2
REMARK    2  A    between atoms: O_2  and  C_3
REMARK    3  A    between atoms: C_9  and  C_11
REMARK    4  A    between atoms: C_11  and  C_12
REMARK                            x       y       z     vdW  Elec       q    Type
REMARK                         _______ _______ _______ _____ _____    ______ ____
ROOT
ATOM      1  C   UNL     1       8.963  11.922  18.269  0.00  0.00    +0.000 A 
ATOM      2  C   UNL     1       9.493  11.660  19.526  0.00  0.00    +0.000 A 
ATOM      3  C   UNL     1       9.435  10.365  19.988  0.00  0.00    +0.000 A 
ATOM      4  N   UNL     1       8.898   9.345  19.292  0.00  0.00    +0.000 NA
ATOM      5  C   UNL     1       8.385   9.597  18.079  0.00  0.00    +0.000 A 
ATOM      6  N   UNL     1       7.836   8.548  17.324  0.00  0.00    +0.000 N 
ATOM      7  C   UNL     1       7.779   7.230  17.745  0.00  0.00    +0.000 C 
ATOM      8  O   UNL     1       8.180   6.774  18.814  0.00  0.00    +0.000 OA
ATOM      9  C   UNL     1       8.385  10.879  17.539  0.00  0.00    +0.000 A 
ATOM     10  H   UNL     1       7.490   8.777  16.403  0.00  0.00    +0.000 HD
ENDROOT
BRANCH   1  12
ATOM     11  C   UNL     1       7.690  13.852  17.753  0.00  0.00    +0.000 C 
ATOM     12  O   UNL     1       8.932  13.154  17.671  0.00  0.00    +0.000 OA
ENDBRANCH   1  12
BRANCH   7  13
ATOM     13  C   UNL     1       7.137   6.296  16.735  0.00  0.00    +0.000 C 
BRANCH  13  14
ATOM     14  C   UNL     1       5.715   5.922  17.075  0.00  0.00    +0.000 A 
ATOM     15  C   UNL     1       4.791   6.905  17.444  0.00  0.00    +0.000 A 
ATOM     16  C   UNL     1       3.495   6.549  17.828  0.00  0.00    +0.000 A 
ATOM     17  C   UNL     1       3.096   5.204  17.862  0.00  0.00    +0.000 A 
ATOM     18  C   UNL     1       1.807   4.834  18.279  0.00  0.00    +0.000 A 
ATOM     19  C   UNL     1       1.430   3.491  18.325  0.00  0.00    +0.000 A 
ATOM     20  C   UNL     1       2.333   2.503  17.946  0.00  0.00    +0.000 A 
ATOM     21  C   UNL     1       3.617   2.855  17.523  0.00  0.00    +0.000 A 
ATOM     22  C   UNL     1       4.015   4.203  17.482  0.00  0.00    +0.000 A 
ATOM     23  C   UNL     1       5.311   4.576  17.086  0.00  0.00    +0.000 A 
ENDBRANCH  13  14
ENDBRANCH   7  13
TORSDOF 3
ENDMDL
MODEL 7
REMARK VINA RESULT:      -7.5      6.271      8.695
REMARK  Name = 
REMARK  4 active torsions:
REMARK  status: ('A' for Active; 'I' for Inactive)
REMARK    1  A    between atoms: C_1  and  O_2
REMARK    2  A    between atoms: O_2  and  C_3
REMARK    3  A    between atoms: C_9  and  C_11
REMARK    4  A    between atoms: C_11  and  C_12
REMARK                            x       y       z     vdW  Elec       q    Type
REMARK                         _______ _______ _______ _____ _____    ______ ____
ROOT
ATOM      1  C   UNL     1      -3.398  11.191  17.833  0.00  0.00    +0.000 A 
ATOM      2  C   UNL     1      -3.314  12.086  18.891  0.00  0.00    +0.000 A 
ATOM      3  C   UNL     1      -2.130  12.139  19.593  0.00  0.00    +0.000 A 
ATOM      4  N   UNL     1      -1.057  11.378  19.308  0.00  0.00    +0.000 NA
ATOM      5  C   UNL     1      -1.138  10.512  18.287  0.00  0.00    +0.000 A 
ATOM      6  N   UNL     1      -0.027   9.720  17.958  0.00  0.00    +0.000 N 
ATOM      7  C   UNL     1       1.187   9.760  18.623  0.00  0.00    +0.000 C 
ATOM      8  O   UNL     1       1.482  10.468  19.585  0.00  0.00    +0.000 OA
ATOM      9  C   UNL     1      -2.300  10.378  17.534  0.00  0.00    +0.000 A 
ATOM     10  H   UNL     1      -0.121   9.105  17.161  0.00  0.00    +0.000 HD
ENDROOT
BRANCH   1  12
ATOM     11  C   UNL     1      -5.471  12.056  17.080  0.00  0.00    +0.000 C 
ATOM     12  O   UNL     1      -4.504  11.007  17.045  0.00  0.00    +0.000 OA
ENDBRANCH   1  12
BRANCH   7  13
ATOM     13  C   UNL     1       2.221   8.801  18.063  0.00  0.00    +0.000 C 
BRANCH  13  14
ATOM     14  C   UNL     1       2.117   7.404  18.623  0.00  0.00    +0.000 A 
ATOM     15  C   UNL     1       1.974   7.198  19.999  0.00  0.00    +0.000 A 
ATOM     16  C   UNL     1       1.951   5.903  20.521  0.00  0.00    +0.000 A 
ATOM     17  C   UNL     1       2.079   4.784  19.684  0.00  0.00    +0.000 A 
ATOM     18  C   UNL     1       2.091   3.478  20.203  0.00  0.00    +0.000 A 
ATOM     19  C   UNL     1       2.237   2.376  19.360  0.00  0.00    +0.000 A 
ATOM     20  C   UNL     1       2.364   2.564  17.987  0.00  0.00    +0.000 A 
ATOM     21  C   UNL     1       2.348   3.855  17.455  0.00  0.00    +0.000 A 
ATOM     22  C   UNL     1       2.213   4.976  18.292  0.00  0.00    +0.000 A 
ATOM     23  C   UNL     1       2.223   6.285  17.779  0.00  0.00    +0.000 A 
ENDBRANCH  13  14
ENDBRANCH   7  13
TORSDOF 3
ENDMDL
MODEL 8
REMARK VINA RESULT:      -7.5      2.241      3.309
REMARK  Name = 
REMARK  4 active torsions:
REMARK  status: ('A' for Active; 'I' for Inactive)
REMARK    1  A    between atoms: C_1  and  O_2
REMARK    2  A    between atoms: O_2  and  C_3
REMARK    3  A    between atoms: C_9  and  C_11
REMARK    4  A    between atoms: C_11  and  C_12
REMARK                            x       y       z     vdW  Elec       q    Type
REMARK                         _______ _______ _______ _____ _____    ______ ____
ROOT
ATOM      1  C   UNL     1       6.353   3.653  12.566  0.00  0.00    +0.000 A 
ATOM      2  C   UNL     1       7.467   4.469  12.423  0.00  0.00    +0.000 A 
ATOM      3  C   UNL     1       7.806   5.281  13.482  0.00  0.00    +0.000 A 
ATOM      4  N   UNL     1       7.122   5.325  14.641  0.00  0.00    +0.000 NA
ATOM      5  C   UNL     1       6.045   4.538  14.779  0.00  0.00    +0.000 A 
ATOM      6  N   UNL     1       5.324   4.550  15.984  0.00  0.00    +0.000 N 
ATOM      7  C   UNL     1       5.647   5.335  17.079  0.00  0.00    +0.000 C 
ATOM      8  O   UNL     1       6.580   6.129  17.173  0.00  0.00    +0.000 OA
ATOM      9  C   UNL     1       5.619   3.698  13.755  0.00  0.00    +0.000 A 
ATOM     10  H   UNL     1       4.539   3.918  16.057  0.00  0.00    +0.000 HD
ENDROOT
BRANCH   1  12
ATOM     11  C   UNL     1       4.498   2.949  11.272  0.00  0.00    +0.000 C 
ATOM     12  O   UNL     1       5.876   2.799  11.606  0.00  0.00    +0.000 OA
ENDBRANCH   1  12
BRANCH   7  13
ATOM     13  C   UNL     1       4.704   5.155  18.255  0.00  0.00    +0.000 C 
BRANCH  13  14
ATOM     14  C   UNL     1       3.715   6.283  18.417  0.00  0.00    +0.000 A 
ATOM     15  C   UNL     1       3.598   7.272  17.435  0.00  0.00    +0.000 A 
ATOM     16  C   UNL     1       2.734   8.353  17.620  0.00  0.00    +0.000 A 
ATOM     17  C   UNL     1       1.973   8.478  18.793  0.00  0.00    +0.000 A 
ATOM     18  C   UNL     1       1.126   9.579  19.003  0.00  0.00    +0.000 A 
ATOM     19  C   UNL     1       0.389   9.697  20.182  0.00  0.00    +0.000 A 
ATOM     20  C   UNL     1       0.483   8.713  21.162  0.00  0.00    +0.000 A 
ATOM     21  C   UNL     1       1.316   7.610  20.965  0.00  0.00    +0.000 A 
ATOM     22  C   UNL     1       2.072   7.481  19.787  0.00  0.00    +0.000 A 
ATOM     23  C   UNL     1       2.938   6.392  19.583  0.00  0.00    +0.000 A 
ENDBRANCH  13  14
ENDBRANCH   7  13
TORSDOF 3
ENDMDL
MODEL 9
REMARK VINA RESULT:      -7.4      5.945      8.413
REMARK  Name = 
REMARK  4 active torsions:
REMARK  status: ('A' for Active; 'I' for Inactive)
REMARK    1  A    between atoms: C_1  and  O_2
REMARK    2  A    between atoms: O_2  and  C_3
REMARK    3  A    between atoms: C_9  and  C_11
REMARK    4  A    between atoms: C_11  and  C_12
REMARK                            x       y       z     vdW  Elec       q    Type
REMARK                         _______ _______ _______ _____ _____    ______ ____
ROOT
ATOM      1  C   UNL     1      -2.634  11.422  18.444  0.00  0.00    +0.000 A 
ATOM      2  C   UNL     1      -2.125  12.651  18.842  0.00  0.00    +0.000 A 
ATOM      3  C   UNL     1      -0.756  12.782  18.922  0.00  0.00    +0.000 A 
ATOM      4  N   UNL     1       0.108  11.792  18.633  0.00  0.00    +0.000 NA
ATOM      5  C   UNL     1      -0.382  10.604  18.250  0.00  0.00    +0.000 A 
ATOM      6  N   UNL     1       0.497   9.559  17.925  0.00  0.00    +0.000 N 
ATOM      7  C   UNL     1       1.878   9.658  17.970  0.00  0.00    +0.000 C 
ATOM      8  O   UNL     1       2.541  10.641  18.296  0.00  0.00    +0.000 OA
ATOM      9  C   UNL     1      -1.752  10.375  18.158  0.00  0.00    +0.000 A 
ATOM     10  H   UNL     1       0.085   8.692  17.609  0.00  0.00    +0.000 HD
ENDROOT
BRANCH   1  12
ATOM     11  C   UNL     1      -4.868  12.103  18.841  0.00  0.00    +0.000 C 
ATOM     12  O   UNL     1      -3.966  11.125  18.326  0.00  0.00    +0.000 OA
ENDBRANCH   1  12
BRANCH   7  13
ATOM     13  C   UNL     1       2.594   8.382  17.567  0.00  0.00    +0.000 C 
BRANCH  13  14
ATOM     14  C   UNL     1       2.248   7.195  18.434  0.00  0.00    +0.000 A 
ATOM     15  C   UNL     1       2.129   7.338  19.819  0.00  0.00    +0.000 A 
ATOM     16  C   UNL     1       1.881   6.225  20.626  0.00  0.00    +0.000 A 
ATOM     17  C   UNL     1       1.756   4.942  20.069  0.00  0.00    +0.000 A 
ATOM     18  C   UNL     1       1.539   3.812  20.875  0.00  0.00    +0.000 A 
ATOM     19  C   UNL     1       1.435   2.541  20.308  0.00  0.00    +0.000 A 
ATOM     20  C   UNL     1       1.535   2.385  18.929  0.00  0.00    +0.000 A 
ATOM     21  C   UNL     1       1.744   3.500  18.114  0.00  0.00    +0.000 A 
ATOM     22  C   UNL     1       1.862   4.785  18.670  0.00  0.00    +0.000 A 
ATOM     23  C   UNL     1       2.101   5.916  17.870  0.00  0.00    +0.000 A 
ENDBRANCH  13  14
ENDBRANCH   7  13
TORSDOF 3
ENDMDL
