MODEL 1
REMARK VINA RESULT:      -8.5      0.000      0.000
REMARK  Name = 
REMARK  4 active torsions:
REMARK  status: ('A' for Active; 'I' for Inactive)
REMARK    1  A    between atoms: C_1  and  C_2
REMARK    2  A    between atoms: C_8  and  S_9
REMARK    3  A    between atoms: S_9  and  N_12
REMARK    4  A    between atoms: N_12  and  C_13
REMARK                            x       y       z     vdW  Elec       q    Type
REMARK                         _______ _______ _______ _____ _____    ______ ____
ROOT
ATOM      1  S   UNL     1       5.780   4.797  19.267  0.00  0.00    +0.000 S 
ATOM      2  O   UNL     1       5.543   3.372  19.366  0.00  0.00    +0.000 OA
ATOM      3  O   UNL     1       6.783   5.445  20.084  0.00  0.00    +0.000 OA
ENDROOT
BRANCH   1  11
ATOM      4  C   UNL     1       7.360   4.301  11.680  0.00  0.00    +0.000 C 
ATOM      5  C   UNL     1       7.550   4.939  13.033  0.00  0.00    +0.000 C 
ATOM      6  O   UNL     1       8.460   5.739  13.213  0.00  0.00    +0.000 OA
ATOM      7  N   UNL     1       6.616   4.515  13.957  0.00  0.00    +0.000 N 
ATOM      8  C   UNL     1       6.631   4.991  15.240  0.00  0.00    +0.000 A 
ATOM      9  N   UNL     1       7.326   5.984  15.728  0.00  0.00    +0.000 NA
ATOM     10  C   UNL     1       7.133   6.051  17.089  0.00  0.00    +0.000 A 
ATOM     11  C   UNL     1       6.265   5.120  17.612  0.00  0.00    +0.000 A 
ATOM     12  S   UNL     1       5.611   4.172  16.340  0.00  0.00    +0.000 S 
ATOM     13  H   UNL     1       5.980   3.759  13.746  0.00  0.00    +0.000 HD
ENDBRANCH   1  11
BRANCH   1  14
ATOM     14  N   UNL     1       4.287   5.558  19.576  0.00  0.00    +0.000 N 
ATOM     15  H   UNL     1       4.258   6.373  18.952  0.00  0.00    +0.000 HD
BRANCH  14  16
ATOM     16  C   UNL     1       3.113   4.747  19.410  0.00  0.00    +0.000 A 
ATOM     17  C   UNL     1       2.654   4.452  18.126  0.00  0.00    +0.000 A 
ATOM     18  C   UNL     1       1.529   3.640  17.964  0.00  0.00    +0.000 A 
ATOM     19  C   UNL     1       0.865   3.144  19.084  0.00  0.00    +0.000 A 
ATOM     20  F   UNL     1      -0.192   2.340  18.915  0.00  0.00    +0.000 F 
ATOM     21  C   UNL     1       1.288   3.456  20.367  0.00  0.00    +0.000 A 
ATOM     22  C   UNL     1       2.410   4.263  20.523  0.00  0.00    +0.000 A 
ATOM     23  F   UNL     1       2.847   4.549  21.759  0.00  0.00    +0.000 F 
ENDBRANCH  14  16
ENDBRANCH   1  14
TORSDOF 3
ENDMDL
MODEL 2
REMARK VINA RESULT:      -8.4      1.030      1.465
REMARK  Name = 
REMARK  4 active torsions:
REMARK  status: ('A' for Active; 'I' for Inactive)
REMARK    1  A    between atoms: C_1  and  C_2
REMARK    2  A    between atoms: C_8  and  S_9
REMARK    3  A    between atoms: S_9  and  N_12
REMARK    4  A    between atoms: N_12  and  C_13
REMARK                            x       y       z     vdW  Elec       q    Type
REMARK                         _______ _______ _______ _____ _____    ______ ____
ROOT
ATOM      1  S   UNL     1       5.855   4.819  19.288  0.00  0.00    +0.000 S 
ATOM      2  O   UNL     1       5.573   3.402  19.387  0.00  0.00    +0.000 OA
ATOM      3  O   UNL     1       6.895   5.431  20.087  0.00  0.00    +0.000 OA
ENDROOT
BRANCH   1  11
ATOM      4  C   UNL     1       7.352   4.274  11.688  0.00  0.00    +0.000 C 
ATOM      5  C   UNL     1       7.551   4.925  13.033  0.00  0.00    +0.000 C 
ATOM      6  O   UNL     1       8.456   5.736  13.196  0.00  0.00    +0.000 OA
ATOM      7  N   UNL     1       6.632   4.501  13.971  0.00  0.00    +0.000 N 
ATOM      8  C   UNL     1       6.657   4.987  15.250  0.00  0.00    +0.000 A 
ATOM      9  N   UNL     1       7.349   5.990  15.721  0.00  0.00    +0.000 NA
ATOM     10  C   UNL     1       7.171   6.068  17.084  0.00  0.00    +0.000 A 
ATOM     11  C   UNL     1       6.318   5.133  17.625  0.00  0.00    +0.000 A 
ATOM     12  S   UNL     1       5.658   4.168  16.368  0.00  0.00    +0.000 S 
ATOM     13  H   UNL     1       6.001   3.738  13.774  0.00  0.00    +0.000 HD
ENDBRANCH   1  11
BRANCH   1  14
ATOM     14  N   UNL     1       4.394   5.627  19.629  0.00  0.00    +0.000 N 
ATOM     15  H   UNL     1       4.329   6.384  18.938  0.00  0.00    +0.000 HD
BRANCH  14  16
ATOM     16  C   UNL     1       3.204   4.822  19.617  0.00  0.00    +0.000 A 
ATOM     17  C   UNL     1       2.768   4.219  20.797  0.00  0.00    +0.000 A 
ATOM     18  C   UNL     1       1.597   3.458  20.792  0.00  0.00    +0.000 A 
ATOM     19  C   UNL     1       0.881   3.295  19.608  0.00  0.00    +0.000 A 
ATOM     20  F   UNL     1      -0.258   2.592  19.623  0.00  0.00    +0.000 F 
ATOM     21  C   UNL     1       1.320   3.860  18.420  0.00  0.00    +0.000 A 
ATOM     22  C   UNL     1       2.486   4.617  18.430  0.00  0.00    +0.000 A 
ATOM     23  F   UNL     1       2.905   5.193  17.293  0.00  0.00    +0.000 F 
ENDBRANCH  14  16
ENDBRANCH   1  14
TORSDOF 3
ENDMDL
MODEL 3
REMARK VINA RESULT:      -8.2      1.450      1.899
REMARK  Name = 
REMARK  4 active torsions:
REMARK  status: ('A' for Active; 'I' for Inactive)
REMARK    1  A    between atoms: C_1  and  C_2
REMARK    2  A    between atoms: C_8  and  S_9
REMARK    3  A    between atoms: S_9  and  N_12
REMARK    4  A    between atoms: N_12  and  C_13
REMARK                            x       y       z     vdW  Elec       q    Type
REMARK                         _______ _______ _______ _____ _____    ______ ____
ROOT
ATOM      1  S   UNL     1       5.763   4.939  19.255  0.00  0.00    +0.000 S 
ATOM      2  O   UNL     1       6.931   5.103  20.096  0.00  0.00    +0.000 OA
ATOM      3  O   UNL     1       4.594   5.774  19.431  0.00  0.00    +0.000 OA
ENDROOT
BRANCH   1  11
ATOM      4  C   UNL     1       7.347   4.323  11.678  0.00  0.00    +0.000 C 
ATOM      5  C   UNL     1       7.576   4.945  13.032  0.00  0.00    +0.000 C 
ATOM      6  O   UNL     1       8.542   5.677  13.217  0.00  0.00    +0.000 OA
ATOM      7  N   UNL     1       6.607   4.593  13.950  0.00  0.00    +0.000 N 
ATOM      8  C   UNL     1       6.650   5.067  15.233  0.00  0.00    +0.000 A 
ATOM      9  N   UNL     1       7.414   6.005  15.725  0.00  0.00    +0.000 NA
ATOM     10  C   UNL     1       7.219   6.088  17.085  0.00  0.00    +0.000 A 
ATOM     11  C   UNL     1       6.280   5.224  17.603  0.00  0.00    +0.000 A 
ATOM     12  S   UNL     1       5.566   4.326  16.327  0.00  0.00    +0.000 S 
ATOM     13  H   UNL     1       5.919   3.886  13.736  0.00  0.00    +0.000 HD
ENDBRANCH   1  11
BRANCH   1  14
ATOM     14  N   UNL     1       5.272   3.316  19.420  0.00  0.00    +0.000 N 
ATOM     15  H   UNL     1       5.711   2.981  20.285  0.00  0.00    +0.000 HD
BRANCH  14  16
ATOM     16  C   UNL     1       3.855   3.080  19.444  0.00  0.00    +0.000 A 
ATOM     17  C   UNL     1       3.079   3.641  20.459  0.00  0.00    +0.000 A 
ATOM     18  C   UNL     1       1.697   3.433  20.467  0.00  0.00    +0.000 A 
ATOM     19  C   UNL     1       1.107   2.658  19.471  0.00  0.00    +0.000 A 
ATOM     20  F   UNL     1      -0.222   2.494  19.471  0.00  0.00    +0.000 F 
ATOM     21  C   UNL     1       1.869   2.065  18.476  0.00  0.00    +0.000 A 
ATOM     22  C   UNL     1       3.243   2.275  18.471  0.00  0.00    +0.000 A 
ATOM     23  F   UNL     1       3.988   1.731  17.497  0.00  0.00    +0.000 F 
ENDBRANCH  14  16
ENDBRANCH   1  14
TORSDOF 3
ENDMDL
MODEL 4
REMARK VINA RESULT:      -8.0      3.682      7.075
REMARK  Name = 
REMARK  4 active torsions:
REMARK  status: ('A' for Active; 'I' for Inactive)
REMARK    1  A    between atoms: C_1  and  C_2
REMARK    2  A    between atoms: C_8  and  S_9
REMARK    3  A    between atoms: S_9  and  N_12
REMARK    4  A    between atoms: N_12  and  C_13
REMARK                            x       y       z     vdW  Elec       q    Type
REMARK                         _______ _______ _______ _____ _____    ______ ____
ROOT
ATOM      1  S   UNL     1       6.232   6.465  16.465  0.00  0.00    +0.000 S 
ATOM      2  O   UNL     1       5.219   6.895  15.524  0.00  0.00    +0.000 OA
ATOM      3  O   UNL     1       6.897   7.414  17.331  0.00  0.00    +0.000 OA
ENDROOT
BRANCH   1  11
ATOM      4  C   UNL     1       1.347   2.774  21.243  0.00  0.00    +0.000 C 
ATOM      5  C   UNL     1       2.732   3.032  20.706  0.00  0.00    +0.000 C 
ATOM      6  O   UNL     1       3.710   2.573  21.284  0.00  0.00    +0.000 OA
ATOM      7  N   UNL     1       2.724   3.799  19.559  0.00  0.00    +0.000 N 
ATOM      8  C   UNL     1       3.892   4.132  18.928  0.00  0.00    +0.000 A 
ATOM      9  N   UNL     1       5.093   3.666  19.148  0.00  0.00    +0.000 NA
ATOM     10  C   UNL     1       5.999   4.355  18.375  0.00  0.00    +0.000 A 
ATOM     11  C   UNL     1       5.464   5.321  17.553  0.00  0.00    +0.000 A 
ATOM     12  S   UNL     1       3.755   5.314  17.702  0.00  0.00    +0.000 S 
ATOM     13  H   UNL     1       1.874   4.233  19.228  0.00  0.00    +0.000 HD
ENDBRANCH   1  11
BRANCH   1  14
ATOM     14  N   UNL     1       7.428   5.662  15.556  0.00  0.00    +0.000 N 
ATOM     15  H   UNL     1       7.937   5.073  16.226  0.00  0.00    +0.000 HD
BRANCH  14  16
ATOM     16  C   UNL     1       6.964   4.882  14.443  0.00  0.00    +0.000 A 
ATOM     17  C   UNL     1       5.876   4.023  14.608  0.00  0.00    +0.000 A 
ATOM     18  C   UNL     1       5.407   3.285  13.519  0.00  0.00    +0.000 A 
ATOM     19  C   UNL     1       6.036   3.399  12.281  0.00  0.00    +0.000 A 
ATOM     20  F   UNL     1       5.557   2.712  11.237  0.00  0.00    +0.000 F 
ATOM     21  C   UNL     1       7.140   4.222  12.109  0.00  0.00    +0.000 A 
ATOM     22  C   UNL     1       7.602   4.956  13.196  0.00  0.00    +0.000 A 
ATOM     23  F   UNL     1       8.650   5.777  13.035  0.00  0.00    +0.000 F 
ENDBRANCH  14  16
ENDBRANCH   1  14
TORSDOF 3
ENDMDL
MODEL 5
REMARK VINA RESULT:      -8.0      3.836      7.052
REMARK  Name = 
REMARK  4 active torsions:
REMARK  status: ('A' for Active; 'I' for Inactive)
REMARK    1  A    between atoms: C_1  and  C_2
REMARK    2  A    between atoms: C_8  and  S_9
REMARK    3  A    between atoms: S_9  and  N_12
REMARK    4  A    between atoms: N_12  and  C_13
REMARK                            x       y       z     vdW  Elec       q    Type
REMARK                         _______ _______ _______ _____ _____    ______ ____
ROOT
ATOM      1  S   UNL     1       3.514   3.457  17.835  0.00  0.00    +0.000 S 
ATOM      2  O   UNL     1       3.802   2.587  18.956  0.00  0.00    +0.000 OA
ATOM      3  O   UNL     1       2.472   3.131  16.885  0.00  0.00    +0.000 OA
ENDROOT
BRANCH   1  11
ATOM      4  C   UNL     1       0.721   9.182  22.277  0.00  0.00    +0.000 C 
ATOM      5  C   UNL     1       1.172   8.640  20.944  0.00  0.00    +0.000 C 
ATOM      6  O   UNL     1       0.959   9.276  19.918  0.00  0.00    +0.000 OA
ATOM      7  N   UNL     1       1.811   7.421  21.054  0.00  0.00    +0.000 N 
ATOM      8  C   UNL     1       2.293   6.779  19.946  0.00  0.00    +0.000 A 
ATOM      9  N   UNL     1       2.413   7.240  18.729  0.00  0.00    +0.000 NA
ATOM     10  C   UNL     1       2.829   6.228  17.895  0.00  0.00    +0.000 A 
ATOM     11  C   UNL     1       3.049   5.012  18.503  0.00  0.00    +0.000 A 
ATOM     12  S   UNL     1       2.793   5.164  20.192  0.00  0.00    +0.000 S 
ATOM     13  H   UNL     1       1.830   6.920  21.930  0.00  0.00    +0.000 HD
ENDBRANCH   1  11
BRANCH   1  14
ATOM     14  N   UNL     1       4.972   3.628  16.969  0.00  0.00    +0.000 N 
ATOM     15  H   UNL     1       4.697   3.771  15.991  0.00  0.00    +0.000 HD
BRANCH  14  16
ATOM     16  C   UNL     1       5.853   4.674  17.410  0.00  0.00    +0.000 A 
ATOM     17  C   UNL     1       6.489   4.564  18.647  0.00  0.00    +0.000 A 
ATOM     18  C   UNL     1       7.368   5.568  19.063  0.00  0.00    +0.000 A 
ATOM     19  C   UNL     1       7.591   6.675  18.248  0.00  0.00    +0.000 A 
ATOM     20  F   UNL     1       8.460   7.614  18.643  0.00  0.00    +0.000 F 
ATOM     21  C   UNL     1       6.940   6.816  17.032  0.00  0.00    +0.000 A 
ATOM     22  C   UNL     1       6.068   5.814  16.621  0.00  0.00    +0.000 A 
ATOM     23  F   UNL     1       5.455   5.923  15.433  0.00  0.00    +0.000 F 
ENDBRANCH  14  16
ENDBRANCH   1  14
TORSDOF 3
ENDMDL
MODEL 6
REMARK VINA RESULT:      -7.9      1.915      2.302
REMARK  Name = 
REMARK  4 active torsions:
REMARK  status: ('A' for Active; 'I' for Inactive)
REMARK    1  A    between atoms: C_1  and  C_2
REMARK    2  A    between atoms: C_8  and  S_9
REMARK    3  A    between atoms: S_9  and  N_12
REMARK    4  A    between atoms: N_12  and  C_13
REMARK                            x       y       z     vdW  Elec       q    Type
REMARK                         _______ _______ _______ _____ _____    ______ ____
ROOT
ATOM      1  S   UNL     1       5.896   4.740  18.861  0.00  0.00    +0.000 S 
ATOM      2  O   UNL     1       7.233   4.943  19.380  0.00  0.00    +0.000 OA
ATOM      3  O   UNL     1       4.859   5.728  19.066  0.00  0.00    +0.000 OA
ENDROOT
BRANCH   1  11
ATOM      4  C   UNL     1       4.698   3.268  11.331  0.00  0.00    +0.000 C 
ATOM      5  C   UNL     1       5.615   3.525  12.500  0.00  0.00    +0.000 C 
ATOM      6  O   UNL     1       6.822   3.345  12.386  0.00  0.00    +0.000 OA
ATOM      7  N   UNL     1       4.937   3.958  13.622  0.00  0.00    +0.000 N 
ATOM      8  C   UNL     1       5.607   4.245  14.780  0.00  0.00    +0.000 A 
ATOM      9  N   UNL     1       6.896   4.350  14.966  0.00  0.00    +0.000 NA
ATOM     10  C   UNL     1       7.152   4.531  16.306  0.00  0.00    +0.000 A 
ATOM     11  C   UNL     1       6.043   4.590  17.119  0.00  0.00    +0.000 A 
ATOM     12  S   UNL     1       4.625   4.487  16.158  0.00  0.00    +0.000 S 
ATOM     13  H   UNL     1       3.928   3.958  13.654  0.00  0.00    +0.000 HD
ENDBRANCH   1  11
BRANCH   1  14
ATOM     14  N   UNL     1       5.345   3.265  19.510  0.00  0.00    +0.000 N 
ATOM     15  H   UNL     1       5.735   3.216  20.458  0.00  0.00    +0.000 HD
BRANCH  14  16
ATOM     16  C   UNL     1       3.921   3.073  19.534  0.00  0.00    +0.000 A 
ATOM     17  C   UNL     1       3.153   3.732  20.494  0.00  0.00    +0.000 A 
ATOM     18  C   UNL     1       1.765   3.567  20.500  0.00  0.00    +0.000 A 
ATOM     19  C   UNL     1       1.162   2.736  19.559  0.00  0.00    +0.000 A 
ATOM     20  F   UNL     1      -0.171   2.612  19.555  0.00  0.00    +0.000 F 
ATOM     21  C   UNL     1       1.915   2.047  18.621  0.00  0.00    +0.000 A 
ATOM     22  C   UNL     1       3.295   2.215  18.617  0.00  0.00    +0.000 A 
ATOM     23  F   UNL     1       4.032   1.577  17.696  0.00  0.00    +0.000 F 
ENDBRANCH  14  16
ENDBRANCH   1  14
TORSDOF 3
ENDMDL
MODEL 7
REMARK VINA RESULT:      -7.9      2.681      3.982
REMARK  Name = 
REMARK  4 active torsions:
REMARK  status: ('A' for Active; 'I' for Inactive)
REMARK    1  A    between atoms: C_1  and  C_2
REMARK    2  A    between atoms: C_8  and  S_9
REMARK    3  A    between atoms: S_9  and  N_12
REMARK    4  A    between atoms: N_12  and  C_13
REMARK                            x       y       z     vdW  Elec       q    Type
REMARK                         _______ _______ _______ _____ _____    ______ ____
ROOT
ATOM      1  S   UNL     1       5.371   4.337  17.570  0.00  0.00    +0.000 S 
ATOM      2  O   UNL     1       5.646   3.647  16.327  0.00  0.00    +0.000 OA
ATOM      3  O   UNL     1       5.681   3.729  18.846  0.00  0.00    +0.000 OA
ENDROOT
BRANCH   1  11
ATOM      4  C   UNL     1       9.806  10.451  19.375  0.00  0.00    +0.000 C 
ATOM      5  C   UNL     1       8.765   9.778  18.517  0.00  0.00    +0.000 C 
ATOM      6  O   UNL     1       8.120  10.432  17.706  0.00  0.00    +0.000 OA
ATOM      7  N   UNL     1       8.664   8.424  18.766  0.00  0.00    +0.000 N 
ATOM      8  C   UNL     1       7.772   7.648  18.078  0.00  0.00    +0.000 A 
ATOM      9  N   UNL     1       7.069   7.963  17.023  0.00  0.00    +0.000 NA
ATOM     10  C   UNL     1       6.209   6.931  16.721  0.00  0.00    +0.000 A 
ATOM     11  C   UNL     1       6.297   5.828  17.541  0.00  0.00    +0.000 A 
ATOM     12  S   UNL     1       7.551   6.066  18.686  0.00  0.00    +0.000 S 
ATOM     13  H   UNL     1       9.153   7.999  19.541  0.00  0.00    +0.000 HD
ENDBRANCH   1  11
BRANCH   1  14
ATOM     14  N   UNL     1       3.708   4.706  17.560  0.00  0.00    +0.000 N 
ATOM     15  H   UNL     1       3.351   4.350  16.666  0.00  0.00    +0.000 HD
BRANCH  14  16
ATOM     16  C   UNL     1       2.936   4.193  18.658  0.00  0.00    +0.000 A 
ATOM     17  C   UNL     1       2.314   2.950  18.542  0.00  0.00    +0.000 A 
ATOM     18  C   UNL     1       1.586   2.438  19.619  0.00  0.00    +0.000 A 
ATOM     19  C   UNL     1       1.474   3.179  20.794  0.00  0.00    +0.000 A 
ATOM     20  F   UNL     1       0.802   2.663  21.830  0.00  0.00    +0.000 F 
ATOM     21  C   UNL     1       2.057   4.432  20.912  0.00  0.00    +0.000 A 
ATOM     22  C   UNL     1       2.782   4.935  19.838  0.00  0.00    +0.000 A 
ATOM     23  F   UNL     1       3.375   6.133  19.950  0.00  0.00    +0.000 F 
ENDBRANCH  14  16
ENDBRANCH   1  14
TORSDOF 3
ENDMDL
MODEL 8
REMARK VINA RESULT:      -7.6      3.665      6.815
REMARK  Name = 
REMARK  4 active torsions:
REMARK  status: ('A' for Active; 'I' for Inactive)
REMARK    1  A    between atoms: C_1  and  C_2
REMARK    2  A    between atoms: C_8  and  S_9
REMARK    3  A    between atoms: S_9  and  N_12
REMARK    4  A    between atoms: N_12  and  C_13
REMARK                            x       y       z     vdW  Elec       q    Type
REMARK                         _______ _______ _______ _____ _____    ______ ____
ROOT
ATOM      1  S   UNL     1       2.800   3.201  17.953  0.00  0.00    +0.000 S 
ATOM      2  O   UNL     1       2.308   2.260  18.937  0.00  0.00    +0.000 OA
ATOM      3  O   UNL     1       2.222   3.267  16.628  0.00  0.00    +0.000 OA
ENDROOT
BRANCH   1  11
ATOM      4  C   UNL     1       0.885   9.268  22.407  0.00  0.00    +0.000 C 
ATOM      5  C   UNL     1       1.260   8.669  21.074  0.00  0.00    +0.000 C 
ATOM      6  O   UNL     1       1.157   9.335  20.051  0.00  0.00    +0.000 OA
ATOM      7  N   UNL     1       1.701   7.366  21.182  0.00  0.00    +0.000 N 
ATOM      8  C   UNL     1       2.088   6.662  20.074  0.00  0.00    +0.000 A 
ATOM      9  N   UNL     1       2.289   7.105  18.862  0.00  0.00    +0.000 NA
ATOM     10  C   UNL     1       2.552   6.044  18.025  0.00  0.00    +0.000 A 
ATOM     11  C   UNL     1       2.575   4.806  18.626  0.00  0.00    +0.000 A 
ATOM     12  S   UNL     1       2.330   4.987  20.315  0.00  0.00    +0.000 S 
ATOM     13  H   UNL     1       1.634   6.863  22.055  0.00  0.00    +0.000 HD
ENDBRANCH   1  11
BRANCH   1  14
ATOM     14  N   UNL     1       4.466   2.891  17.779  0.00  0.00    +0.000 N 
ATOM     15  H   UNL     1       4.544   2.229  16.998  0.00  0.00    +0.000 HD
BRANCH  14  16
ATOM     16  C   UNL     1       5.307   4.036  17.562  0.00  0.00    +0.000 A 
ATOM     17  C   UNL     1       5.546   4.479  16.260  0.00  0.00    +0.000 A 
ATOM     18  C   UNL     1       6.341   5.608  16.050  0.00  0.00    +0.000 A 
ATOM     19  C   UNL     1       6.900   6.275  17.138  0.00  0.00    +0.000 A 
ATOM     20  F   UNL     1       7.632   7.375  16.926  0.00  0.00    +0.000 F 
ATOM     21  C   UNL     1       6.700   5.826  18.435  0.00  0.00    +0.000 A 
ATOM     22  C   UNL     1       5.907   4.703  18.640  0.00  0.00    +0.000 A 
ATOM     23  F   UNL     1       5.682   4.276  19.891  0.00  0.00    +0.000 F 
ENDBRANCH  14  16
ENDBRANCH   1  14
TORSDOF 3
ENDMDL
MODEL 9
REMARK VINA RESULT:      -7.6      1.187      1.291
REMARK  Name = 
REMARK  4 active torsions:
REMARK  status: ('A' for Active; 'I' for Inactive)
REMARK    1  A    between atoms: C_1  and  C_2
REMARK    2  A    between atoms: C_8  and  S_9
REMARK    3  A    between atoms: S_9  and  N_12
REMARK    4  A    between atoms: N_12  and  C_13
REMARK                            x       y       z     vdW  Elec       q    Type
REMARK                         _______ _______ _______ _____ _____    ______ ____
ROOT
ATOM      1  S   UNL     1       5.661   4.992  19.100  0.00  0.00    +0.000 S 
ATOM      2  O   UNL     1       6.904   5.248  19.797  0.00  0.00    +0.000 OA
ATOM      3  O   UNL     1       4.506   5.841  19.297  0.00  0.00    +0.000 OA
ENDROOT
BRANCH   1  11
ATOM      4  C   UNL     1       7.144   3.425  11.639  0.00  0.00    +0.000 C 
ATOM      5  C   UNL     1       7.195   4.343  12.835  0.00  0.00    +0.000 C 
ATOM      6  O   UNL     1       7.874   5.362  12.799  0.00  0.00    +0.000 OA
ATOM      7  N   UNL     1       6.421   3.891  13.885  0.00  0.00    +0.000 N 
ATOM      8  C   UNL     1       6.343   4.597  15.054  0.00  0.00    +0.000 A 
ATOM      9  N   UNL     1       6.773   5.807  15.301  0.00  0.00    +0.000 NA
ATOM     10  C   UNL     1       6.600   6.090  16.637  0.00  0.00    +0.000 A 
ATOM     11  C   UNL     1       6.010   5.094  17.383  0.00  0.00    +0.000 A 
ATOM     12  S   UNL     1       5.592   3.784  16.356  0.00  0.00    +0.000 S 
ATOM     13  H   UNL     1       5.995   2.976  13.863  0.00  0.00    +0.000 HD
ENDBRANCH   1  11
BRANCH   1  14
ATOM     14  N   UNL     1       5.208   3.397  19.489  0.00  0.00    +0.000 N 
ATOM     15  H   UNL     1       5.462   3.270  20.475  0.00  0.00    +0.000 HD
BRANCH  14  16
ATOM     16  C   UNL     1       3.829   3.056  19.270  0.00  0.00    +0.000 A 
ATOM     17  C   UNL     1       3.451   2.445  18.074  0.00  0.00    +0.000 A 
ATOM     18  C   UNL     1       2.116   2.089  17.872  0.00  0.00    +0.000 A 
ATOM     19  C   UNL     1       1.169   2.360  18.858  0.00  0.00    +0.000 A 
ATOM     20  F   UNL     1      -0.101   1.984  18.666  0.00  0.00    +0.000 F 
ATOM     21  C   UNL     1       1.523   2.998  20.037  0.00  0.00    +0.000 A 
ATOM     22  C   UNL     1       2.854   3.349  20.234  0.00  0.00    +0.000 A 
ATOM     23  F   UNL     1       3.213   3.941  21.383  0.00  0.00    +0.000 F 
ENDBRANCH  14  16
ENDBRANCH   1  14
TORSDOF 3
ENDMDL
