MODEL 1
REMARK VINA RESULT:      -6.6      0.000      0.000
REMARK  Name = 
REMARK  11 active torsions:
REMARK  status: ('A' for Active; 'I' for Inactive)
REMARK    1  A    between atoms: C_1  and  C_2
REMARK    2  A    between atoms: C_2  and  C_3
REMARK    3  A    between atoms: C_3  and  O_4
REMARK    4  A    between atoms: O_4  and  C_5
REMARK    5  A    between atoms: C_8  and  O_9
REMARK    6  A    between atoms: O_9  and  C_10
REMARK    7  A    between atoms: C_12  and  C_13
REMARK    8  A    between atoms: C_13  and  C_14
REMARK    9  A    between atoms: C_14  and  N_15
REMARK   10  A    between atoms: N_15  and  C_16
REMARK   11  A    between atoms: C_16  and  N_18
REMARK                            x       y       z     vdW  Elec       q    Type
REMARK                         _______ _______ _______ _____ _____    ______ ____
ROOT
ATOM      1  C   UNL     1       6.645   5.255  19.257  0.00  0.00    +0.000 C 
ENDROOT
BRANCH   1   2
ATOM      2  N   UNL     1       7.439   5.312  18.035  0.00  0.00    +0.000 N 
ATOM      3  H   UNL     1       7.510   4.431  17.536  0.00  0.00    +0.000 HD
BRANCH   2   4
ATOM      4  C   UNL     1       7.513   6.398  17.208  0.00  0.00    +0.000 C 
ATOM      5  S   UNL     1       7.468   7.993  17.723  0.00  0.00    +0.000 S 
BRANCH   4   6
ATOM      6  N   UNL     1       7.656   6.186  15.873  0.00  0.00    +0.000 N 
ATOM      7  C   UNL     1       7.048   5.318  14.961  0.00  0.00    +0.000 A 
ATOM      8  C   UNL     1       5.964   4.497  15.244  0.00  0.00    +0.000 A 
ATOM      9  C   UNL     1       5.452   3.677  14.239  0.00  0.00    +0.000 A 
ATOM     10  C   UNL     1       6.059   3.665  12.995  0.00  0.00    +0.000 A 
ATOM     11 BR   UNL     1       5.402   2.564  11.617  0.00  0.00    +0.000 Br
ATOM     12  C   UNL     1       7.151   4.487  12.797  0.00  0.00    +0.000 A 
ATOM     13  N   UNL     1       7.648   5.313  13.753  0.00  0.00    +0.000 NA
ATOM     14  H   UNL     1       8.462   6.643  15.459  0.00  0.00    +0.000 HD
ENDBRANCH   4   6
ENDBRANCH   2   4
ENDBRANCH   1   2
BRANCH   1  15
ATOM     15  C   UNL     1       5.391   4.370  19.179  0.00  0.00    +0.000 C 
BRANCH  15  21
ATOM     16  C   UNL     1       2.976   4.269  18.286  0.00  0.00    +0.000 A 
ATOM     17  C   UNL     1       1.853   4.951  17.794  0.00  0.00    +0.000 A 
ATOM     18  C   UNL     1       1.835   6.337  17.702  0.00  0.00    +0.000 A 
ATOM     19  C   UNL     1       2.927   7.085  18.114  0.00  0.00    +0.000 A 
ATOM     20  C   UNL     1       4.040   6.428  18.644  0.00  0.00    +0.000 A 
ATOM     21  C   UNL     1       4.089   5.013  18.729  0.00  0.00    +0.000 A 
BRANCH  19  22
ATOM     22  O   UNL     1       2.772   8.428  17.920  0.00  0.00    +0.000 OA
ATOM     23  C   UNL     1       1.468   8.961  18.077  0.00  0.00    +0.000 C 
ENDBRANCH  19  22
BRANCH  16  24
ATOM     24  O   UNL     1       3.044   2.890  18.330  0.00  0.00    +0.000 OA
BRANCH  24  25
ATOM     25  C   UNL     1       2.066   2.268  19.181  0.00  0.00    +0.000 C 
BRANCH  25  27
ATOM     26  C   UNL     1       1.368   3.383  21.338  0.00  0.00    +0.000 C 
ATOM     27  C   UNL     1       2.375   2.469  20.661  0.00  0.00    +0.000 C 
ENDBRANCH  25  27
ENDBRANCH  24  25
ENDBRANCH  16  24
ENDBRANCH  15  21
ENDBRANCH   1  15
TORSDOF 9
ENDMDL
MODEL 2
REMARK VINA RESULT:      -6.5      1.975      3.712
REMARK  Name = 
REMARK  11 active torsions:
REMARK  status: ('A' for Active; 'I' for Inactive)
REMARK    1  A    between atoms: C_1  and  C_2
REMARK    2  A    between atoms: C_2  and  C_3
REMARK    3  A    between atoms: C_3  and  O_4
REMARK    4  A    between atoms: O_4  and  C_5
REMARK    5  A    between atoms: C_8  and  O_9
REMARK    6  A    between atoms: O_9  and  C_10
REMARK    7  A    between atoms: C_12  and  C_13
REMARK    8  A    between atoms: C_13  and  C_14
REMARK    9  A    between atoms: C_14  and  N_15
REMARK   10  A    between atoms: N_15  and  C_16
REMARK   11  A    between atoms: C_16  and  N_18
REMARK                            x       y       z     vdW  Elec       q    Type
REMARK                         _______ _______ _______ _____ _____    ______ ____
ROOT
ATOM      1  C   UNL     1       4.508   7.265  17.045  0.00  0.00    +0.000 C 
ENDROOT
BRANCH   1   2
ATOM      2  N   UNL     1       5.673   7.197  17.921  0.00  0.00    +0.000 N 
ATOM      3  H   UNL     1       5.463   7.283  18.910  0.00  0.00    +0.000 HD
BRANCH   2   4
ATOM      4  C   UNL     1       6.783   6.438  17.677  0.00  0.00    +0.000 C 
ATOM      5  S   UNL     1       7.687   5.665  18.859  0.00  0.00    +0.000 S 
BRANCH   4   6
ATOM      6  N   UNL     1       7.183   6.271  16.390  0.00  0.00    +0.000 N 
ATOM      7  C   UNL     1       6.801   5.400  15.364  0.00  0.00    +0.000 A 
ATOM      8  C   UNL     1       5.727   4.521  15.424  0.00  0.00    +0.000 A 
ATOM      9  C   UNL     1       5.454   3.706  14.326  0.00  0.00    +0.000 A 
ATOM     10  C   UNL     1       6.281   3.757  13.217  0.00  0.00    +0.000 A 
ATOM     11 BR   UNL     1       5.950   2.665  11.721  0.00  0.00    +0.000 Br
ATOM     12  C   UNL     1       7.347   4.635  13.243  0.00  0.00    +0.000 A 
ATOM     13  N   UNL     1       7.615   5.457  14.290  0.00  0.00    +0.000 NA
ATOM     14  H   UNL     1       8.028   6.777  16.142  0.00  0.00    +0.000 HD
ENDBRANCH   4   6
ENDBRANCH   2   4
ENDBRANCH   1   2
BRANCH   1  15
ATOM     15  C   UNL     1       3.167   7.492  17.761  0.00  0.00    +0.000 C 
BRANCH  15  21
ATOM     16  C   UNL     1       2.141   6.664  19.975  0.00  0.00    +0.000 A 
ATOM     17  C   UNL     1       1.790   5.586  20.802  0.00  0.00    +0.000 A 
ATOM     18  C   UNL     1       1.980   4.272  20.391  0.00  0.00    +0.000 A 
ATOM     19  C   UNL     1       2.507   3.994  19.139  0.00  0.00    +0.000 A 
ATOM     20  C   UNL     1       2.825   5.052  18.285  0.00  0.00    +0.000 A 
ATOM     21  C   UNL     1       2.659   6.401  18.690  0.00  0.00    +0.000 A 
BRANCH  19  22
ATOM     22  O   UNL     1       2.670   2.658  18.902  0.00  0.00    +0.000 OA
ATOM     23  C   UNL     1       2.603   2.224  17.555  0.00  0.00    +0.000 C 
ENDBRANCH  19  22
BRANCH  16  24
ATOM     24  O   UNL     1       2.022   7.979  20.382  0.00  0.00    +0.000 OA
BRANCH  24  25
ATOM     25  C   UNL     1       0.791   8.288  21.057  0.00  0.00    +0.000 C 
BRANCH  25  27
ATOM     26  C   UNL     1       0.127   9.457  23.196  0.00  0.00    +0.000 C 
ATOM     27  C   UNL     1       0.890   9.563  21.888  0.00  0.00    +0.000 C 
ENDBRANCH  25  27
ENDBRANCH  24  25
ENDBRANCH  16  24
ENDBRANCH  15  21
ENDBRANCH   1  15
TORSDOF 9
ENDMDL
MODEL 3
REMARK VINA RESULT:      -6.4      1.318      1.628
REMARK  Name = 
REMARK  11 active torsions:
REMARK  status: ('A' for Active; 'I' for Inactive)
REMARK    1  A    between atoms: C_1  and  C_2
REMARK    2  A    between atoms: C_2  and  C_3
REMARK    3  A    between atoms: C_3  and  O_4
REMARK    4  A    between atoms: O_4  and  C_5
REMARK    5  A    between atoms: C_8  and  O_9
REMARK    6  A    between atoms: O_9  and  C_10
REMARK    7  A    between atoms: C_12  and  C_13
REMARK    8  A    between atoms: C_13  and  C_14
REMARK    9  A    between atoms: C_14  and  N_15
REMARK   10  A    between atoms: N_15  and  C_16
REMARK   11  A    between atoms: C_16  and  N_18
REMARK                            x       y       z     vdW  Elec       q    Type
REMARK                         _______ _______ _______ _____ _____    ______ ____
ROOT
ATOM      1  C   UNL     1       6.119   5.304  19.058  0.00  0.00    +0.000 C 
ENDROOT
BRANCH   1   2
ATOM      2  N   UNL     1       7.161   5.308  18.037  0.00  0.00    +0.000 N 
ATOM      3  H   UNL     1       7.311   4.414  17.582  0.00  0.00    +0.000 HD
BRANCH   2   4
ATOM      4  C   UNL     1       7.447   6.371  17.225  0.00  0.00    +0.000 C 
ATOM      5  S   UNL     1       7.608   7.955  17.752  0.00  0.00    +0.000 S 
BRANCH   4   6
ATOM      6  N   UNL     1       7.639   6.141  15.901  0.00  0.00    +0.000 N 
ATOM      7  C   UNL     1       7.034   5.291  14.969  0.00  0.00    +0.000 A 
ATOM      8  C   UNL     1       5.903   4.521  15.210  0.00  0.00    +0.000 A 
ATOM      9  C   UNL     1       5.400   3.715  14.189  0.00  0.00    +0.000 A 
ATOM     10  C   UNL     1       6.059   3.664  12.973  0.00  0.00    +0.000 A 
ATOM     11 BR   UNL     1       5.415   2.580  11.577  0.00  0.00    +0.000 Br
ATOM     12  C   UNL     1       7.194   4.435  12.818  0.00  0.00    +0.000 A 
ATOM     13  N   UNL     1       7.685   5.248  13.789  0.00  0.00    +0.000 NA
ATOM     14  H   UNL     1       8.482   6.558  15.518  0.00  0.00    +0.000 HD
ENDBRANCH   4   6
ENDBRANCH   2   4
ENDBRANCH   1   2
BRANCH   1  15
ATOM     15  C   UNL     1       4.689   5.110  18.529  0.00  0.00    +0.000 C 
BRANCH  15  21
ATOM     16  C   UNL     1       2.758   4.896  20.221  0.00  0.00    +0.000 A 
ATOM     17  C   UNL     1       1.655   5.484  20.859  0.00  0.00    +0.000 A 
ATOM     18  C   UNL     1       1.303   6.807  20.615  0.00  0.00    +0.000 A 
ATOM     19  C   UNL     1       2.050   7.586  19.745  0.00  0.00    +0.000 A 
ATOM     20  C   UNL     1       3.175   7.031  19.130  0.00  0.00    +0.000 A 
ATOM     21  C   UNL     1       3.542   5.678  19.348  0.00  0.00    +0.000 A 
BRANCH  19  22
ATOM     22  O   UNL     1       1.552   8.847  19.580  0.00  0.00    +0.000 OA
ATOM     23  C   UNL     1       0.491   9.244  20.432  0.00  0.00    +0.000 C 
ENDBRANCH  19  22
BRANCH  16  24
ATOM     24  O   UNL     1       3.092   3.567  20.397  0.00  0.00    +0.000 OA
BRANCH  24  25
ATOM     25  C   UNL     1       2.016   2.642  20.168  0.00  0.00    +0.000 C 
BRANCH  25  27
ATOM     26  C   UNL     1       2.257   2.621  17.653  0.00  0.00    +0.000 C 
ATOM     27  C   UNL     1       2.240   1.790  18.924  0.00  0.00    +0.000 C 
ENDBRANCH  25  27
ENDBRANCH  24  25
ENDBRANCH  16  24
ENDBRANCH  15  21
ENDBRANCH   1  15
TORSDOF 9
ENDMDL
MODEL 4
REMARK VINA RESULT:      -6.4      5.264      7.766
REMARK  Name = 
REMARK  11 active torsions:
REMARK  status: ('A' for Active; 'I' for Inactive)
REMARK    1  A    between atoms: C_1  and  C_2
REMARK    2  A    between atoms: C_2  and  C_3
REMARK    3  A    between atoms: C_3  and  O_4
REMARK    4  A    between atoms: O_4  and  C_5
REMARK    5  A    between atoms: C_8  and  O_9
REMARK    6  A    between atoms: O_9  and  C_10
REMARK    7  A    between atoms: C_12  and  C_13
REMARK    8  A    between atoms: C_13  and  C_14
REMARK    9  A    between atoms: C_14  and  N_15
REMARK   10  A    between atoms: N_15  and  C_16
REMARK   11  A    between atoms: C_16  and  N_18
REMARK                            x       y       z     vdW  Elec       q    Type
REMARK                         _______ _______ _______ _____ _____    ______ ____
ROOT
ATOM      1  C   UNL     1       2.721   8.322  18.105  0.00  0.00    +0.000 C 
ENDROOT
BRANCH   1   2
ATOM      2  N   UNL     1       1.478   9.043  18.356  0.00  0.00    +0.000 N 
ATOM      3  H   UNL     1       0.783   8.955  17.622  0.00  0.00    +0.000 HD
BRANCH   2   4
ATOM      4  C   UNL     1       0.925   9.229  19.592  0.00  0.00    +0.000 C 
ATOM      5  S   UNL     1       1.349   8.365  20.965  0.00  0.00    +0.000 S 
BRANCH   4   6
ATOM      6  N   UNL     1      -0.020  10.193  19.740  0.00  0.00    +0.000 N 
ATOM      7  C   UNL     1      -1.217  10.484  19.077  0.00  0.00    +0.000 A 
ATOM      8  C   UNL     1      -1.810   9.678  18.114  0.00  0.00    +0.000 A 
ATOM      9  C   UNL     1      -3.010  10.086  17.531  0.00  0.00    +0.000 A 
ATOM     10  C   UNL     1      -3.563  11.303  17.892  0.00  0.00    +0.000 A 
ATOM     11 BR   UNL     1      -5.175  11.891  17.120  0.00  0.00    +0.000 Br
ATOM     12  C   UNL     1      -2.900  12.063  18.836  0.00  0.00    +0.000 A 
ATOM     13  N   UNL     1      -1.746  11.671  19.435  0.00  0.00    +0.000 NA
ATOM     14  H   UNL     1       0.245  10.952  20.360  0.00  0.00    +0.000 HD
ENDBRANCH   4   6
ENDBRANCH   2   4
ENDBRANCH   1   2
BRANCH   1  15
ATOM     15  C   UNL     1       2.579   6.795  18.002  0.00  0.00    +0.000 C 
BRANCH  15  21
ATOM     16  C   UNL     1       3.703   4.613  17.219  0.00  0.00    +0.000 A 
ATOM     17  C   UNL     1       4.867   3.949  16.804  0.00  0.00    +0.000 A 
ATOM     18  C   UNL     1       6.070   4.629  16.654  0.00  0.00    +0.000 A 
ATOM     19  C   UNL     1       6.143   5.993  16.896  0.00  0.00    +0.000 A 
ATOM     20  C   UNL     1       4.987   6.680  17.271  0.00  0.00    +0.000 A 
ATOM     21  C   UNL     1       3.753   6.003  17.450  0.00  0.00    +0.000 A 
BRANCH  19  22
ATOM     22  O   UNL     1       7.400   6.505  16.746  0.00  0.00    +0.000 OA
ATOM     23  C   UNL     1       7.743   7.630  17.538  0.00  0.00    +0.000 C 
ENDBRANCH  19  22
BRANCH  16  24
ATOM     24  O   UNL     1       2.510   3.950  17.436  0.00  0.00    +0.000 OA
BRANCH  24  25
ATOM     25  C   UNL     1       2.620   2.769  18.247  0.00  0.00    +0.000 C 
BRANCH  25  27
ATOM     26  C   UNL     1       0.945   3.580  19.956  0.00  0.00    +0.000 C 
ATOM     27  C   UNL     1       1.330   2.463  19.002  0.00  0.00    +0.000 C 
ENDBRANCH  25  27
ENDBRANCH  24  25
ENDBRANCH  16  24
ENDBRANCH  15  21
ENDBRANCH   1  15
TORSDOF 9
ENDMDL
MODEL 5
REMARK VINA RESULT:      -6.4      5.350      7.878
REMARK  Name = 
REMARK  11 active torsions:
REMARK  status: ('A' for Active; 'I' for Inactive)
REMARK    1  A    between atoms: C_1  and  C_2
REMARK    2  A    between atoms: C_2  and  C_3
REMARK    3  A    between atoms: C_3  and  O_4
REMARK    4  A    between atoms: O_4  and  C_5
REMARK    5  A    between atoms: C_8  and  O_9
REMARK    6  A    between atoms: O_9  and  C_10
REMARK    7  A    between atoms: C_12  and  C_13
REMARK    8  A    between atoms: C_13  and  C_14
REMARK    9  A    between atoms: C_14  and  N_15
REMARK   10  A    between atoms: N_15  and  C_16
REMARK   11  A    between atoms: C_16  and  N_18
REMARK                            x       y       z     vdW  Elec       q    Type
REMARK                         _______ _______ _______ _____ _____    ______ ____
ROOT
ATOM      1  C   UNL     1       2.056   8.089  18.369  0.00  0.00    +0.000 C 
ENDROOT
BRANCH   1   2
ATOM      2  N   UNL     1       1.400   9.061  19.236  0.00  0.00    +0.000 N 
ATOM      3  H   UNL     1       1.555   8.915  20.228  0.00  0.00    +0.000 HD
BRANCH   2   4
ATOM      4  C   UNL     1       1.202  10.375  18.917  0.00  0.00    +0.000 C 
ATOM      5  S   UNL     1       2.257  11.303  18.002  0.00  0.00    +0.000 S 
BRANCH   4   6
ATOM      6  N   UNL     1       0.064  10.981  19.345  0.00  0.00    +0.000 N 
ATOM      7  C   UNL     1      -1.256  10.996  18.884  0.00  0.00    +0.000 A 
ATOM      8  C   UNL     1      -1.750  10.202  17.857  0.00  0.00    +0.000 A 
ATOM      9  C   UNL     1      -3.092  10.315  17.495  0.00  0.00    +0.000 A 
ATOM     10  C   UNL     1      -3.894  11.245  18.136  0.00  0.00    +0.000 A 
ATOM     11 BR   UNL     1      -5.707  11.433  17.668  0.00  0.00    +0.000 Br
ATOM     12  C   UNL     1      -3.324  12.019  19.127  0.00  0.00    +0.000 A 
ATOM     13  N   UNL     1      -2.028  11.906  19.513  0.00  0.00    +0.000 NA
ATOM     14  H   UNL     1       0.206  11.684  20.064  0.00  0.00    +0.000 HD
ENDBRANCH   4   6
ENDBRANCH   2   4
ENDBRANCH   1   2
BRANCH   1  15
ATOM     15  C   UNL     1       2.571   6.826  19.079  0.00  0.00    +0.000 C 
BRANCH  15  21
ATOM     16  C   UNL     1       2.652   4.578  17.822  0.00  0.00    +0.000 A 
ATOM     17  C   UNL     1       3.412   3.617  17.138  0.00  0.00    +0.000 A 
ATOM     18  C   UNL     1       4.768   3.806  16.901  0.00  0.00    +0.000 A 
ATOM     19  C   UNL     1       5.403   4.964  17.322  0.00  0.00    +0.000 A 
ATOM     20  C   UNL     1       4.657   5.952  17.970  0.00  0.00    +0.000 A 
ATOM     21  C   UNL     1       3.276   5.772  18.241  0.00  0.00    +0.000 A 
BRANCH  19  22
ATOM     22  O   UNL     1       6.742   4.980  17.052  0.00  0.00    +0.000 OA
ATOM     23  C   UNL     1       7.609   5.407  18.089  0.00  0.00    +0.000 C 
ENDBRANCH  19  22
BRANCH  16  24
ATOM     24  O   UNL     1       1.318   4.389  18.126  0.00  0.00    +0.000 OA
BRANCH  24  25
ATOM     25  C   UNL     1       1.053   3.277  18.996  0.00  0.00    +0.000 C 
BRANCH  25  27
ATOM     26  C   UNL     1       2.274   3.244  21.209  0.00  0.00    +0.000 C 
ATOM     27  C   UNL     1       1.025   3.685  20.465  0.00  0.00    +0.000 C 
ENDBRANCH  25  27
ENDBRANCH  24  25
ENDBRANCH  16  24
ENDBRANCH  15  21
ENDBRANCH   1  15
TORSDOF 9
ENDMDL
MODEL 6
REMARK VINA RESULT:      -6.3      5.318      7.871
REMARK  Name = 
REMARK  11 active torsions:
REMARK  status: ('A' for Active; 'I' for Inactive)
REMARK    1  A    between atoms: C_1  and  C_2
REMARK    2  A    between atoms: C_2  and  C_3
REMARK    3  A    between atoms: C_3  and  O_4
REMARK    4  A    between atoms: O_4  and  C_5
REMARK    5  A    between atoms: C_8  and  O_9
REMARK    6  A    between atoms: O_9  and  C_10
REMARK    7  A    between atoms: C_12  and  C_13
REMARK    8  A    between atoms: C_13  and  C_14
REMARK    9  A    between atoms: C_14  and  N_15
REMARK   10  A    between atoms: N_15  and  C_16
REMARK   11  A    between atoms: C_16  and  N_18
REMARK                            x       y       z     vdW  Elec       q    Type
REMARK                         _______ _______ _______ _____ _____    ______ ____
ROOT
ATOM      1  C   UNL     1       2.159   8.143  18.145  0.00  0.00    +0.000 C 
ENDROOT
BRANCH   1   2
ATOM      2  N   UNL     1       1.507   9.043  19.091  0.00  0.00    +0.000 N 
ATOM      3  H   UNL     1       1.686   8.831  20.067  0.00  0.00    +0.000 HD
BRANCH   2   4
ATOM      4  C   UNL     1       1.284  10.373  18.869  0.00  0.00    +0.000 C 
ATOM      5  S   UNL     1       2.327  11.387  18.035  0.00  0.00    +0.000 S 
BRANCH   4   6
ATOM      6  N   UNL     1       0.131  10.922  19.331  0.00  0.00    +0.000 N 
ATOM      7  C   UNL     1      -1.173  10.994  18.832  0.00  0.00    +0.000 A 
ATOM      8  C   UNL     1      -1.631  10.333  17.699  0.00  0.00    +0.000 A 
ATOM      9  C   UNL     1      -2.961  10.491  17.310  0.00  0.00    +0.000 A 
ATOM     10  C   UNL     1      -3.786  11.335  18.033  0.00  0.00    +0.000 A 
ATOM     11 BR   UNL     1      -5.583  11.580  17.533  0.00  0.00    +0.000 Br
ATOM     12  C   UNL     1      -3.252  11.981  19.131  0.00  0.00    +0.000 A 
ATOM     13  N   UNL     1      -1.968  11.820  19.542  0.00  0.00    +0.000 NA
ATOM     14  H   UNL     1       0.247  11.531  20.136  0.00  0.00    +0.000 HD
ENDBRANCH   4   6
ENDBRANCH   2   4
ENDBRANCH   1   2
BRANCH   1  15
ATOM     15  C   UNL     1       3.156   7.154  18.768  0.00  0.00    +0.000 C 
BRANCH  15  21
ATOM     16  C   UNL     1       3.634   4.699  18.148  0.00  0.00    +0.000 A 
ATOM     17  C   UNL     1       4.300   3.782  17.320  0.00  0.00    +0.000 A 
ATOM     18  C   UNL     1       5.095   4.210  16.264  0.00  0.00    +0.000 A 
ATOM     19  C   UNL     1       5.236   5.562  15.990  0.00  0.00    +0.000 A 
ATOM     20  C   UNL     1       4.550   6.491  16.777  0.00  0.00    +0.000 A 
ATOM     21  C   UNL     1       3.749   6.078  17.873  0.00  0.00    +0.000 A 
BRANCH  19  22
ATOM     22  O   UNL     1       6.082   5.822  14.950  0.00  0.00    +0.000 OA
ATOM     23  C   UNL     1       7.108   4.878  14.695  0.00  0.00    +0.000 C 
ENDBRANCH  19  22
BRANCH  16  24
ATOM     24  O   UNL     1       2.888   4.304  19.241  0.00  0.00    +0.000 OA
BRANCH  24  25
ATOM     25  C   UNL     1       1.561   3.851  18.929  0.00  0.00    +0.000 C 
BRANCH  25  27
ATOM     26  C   UNL     1       1.667   3.240  21.379  0.00  0.00    +0.000 C 
ATOM     27  C   UNL     1       0.769   3.477  20.178  0.00  0.00    +0.000 C 
ENDBRANCH  25  27
ENDBRANCH  24  25
ENDBRANCH  16  24
ENDBRANCH  15  21
ENDBRANCH   1  15
TORSDOF 9
ENDMDL
MODEL 7
REMARK VINA RESULT:      -6.3      5.520      8.046
REMARK  Name = 
REMARK  11 active torsions:
REMARK  status: ('A' for Active; 'I' for Inactive)
REMARK    1  A    between atoms: C_1  and  C_2
REMARK    2  A    between atoms: C_2  and  C_3
REMARK    3  A    between atoms: C_3  and  O_4
REMARK    4  A    between atoms: O_4  and  C_5
REMARK    5  A    between atoms: C_8  and  O_9
REMARK    6  A    between atoms: O_9  and  C_10
REMARK    7  A    between atoms: C_12  and  C_13
REMARK    8  A    between atoms: C_13  and  C_14
REMARK    9  A    between atoms: C_14  and  N_15
REMARK   10  A    between atoms: N_15  and  C_16
REMARK   11  A    between atoms: C_16  and  N_18
REMARK                            x       y       z     vdW  Elec       q    Type
REMARK                         _______ _______ _______ _____ _____    ______ ____
ROOT
ATOM      1  C   UNL     1       1.952   8.284  17.817  0.00  0.00    +0.000 C 
ENDROOT
BRANCH   1   2
ATOM      2  N   UNL     1       1.390   9.191  18.813  0.00  0.00    +0.000 N 
ATOM      3  H   UNL     1       1.864   9.179  19.710  0.00  0.00    +0.000 HD
BRANCH   2   4
ATOM      4  C   UNL     1       0.824  10.401  18.527  0.00  0.00    +0.000 C 
ATOM      5  S   UNL     1       1.348  11.869  19.146  0.00  0.00    +0.000 S 
BRANCH   4   6
ATOM      6  N   UNL     1      -0.225  10.438  17.664  0.00  0.00    +0.000 N 
ATOM      7  C   UNL     1      -1.560  10.837  17.781  0.00  0.00    +0.000 A 
ATOM      8  C   UNL     1      -2.109  11.468  18.890  0.00  0.00    +0.000 A 
ATOM      9  C   UNL     1      -3.459  11.816  18.876  0.00  0.00    +0.000 A 
ATOM     10  C   UNL     1      -4.235  11.488  17.778  0.00  0.00    +0.000 A 
ATOM     11 BR   UNL     1      -6.063  11.932  17.727  0.00  0.00    +0.000 Br
ATOM     12  C   UNL     1      -3.626  10.834  16.725  0.00  0.00    +0.000 A 
ATOM     13  N   UNL     1      -2.307  10.512  16.707  0.00  0.00    +0.000 NA
ATOM     14  H   UNL     1      -0.067   9.950  16.788  0.00  0.00    +0.000 HD
ENDBRANCH   4   6
ENDBRANCH   2   4
ENDBRANCH   1   2
BRANCH   1  15
ATOM     15  C   UNL     1       3.357   7.752  18.141  0.00  0.00    +0.000 C 
BRANCH  15  21
ATOM     16  C   UNL     1       3.433   5.202  17.776  0.00  0.00    +0.000 A 
ATOM     17  C   UNL     1       4.003   4.105  17.113  0.00  0.00    +0.000 A 
ATOM     18  C   UNL     1       4.977   4.280  16.137  0.00  0.00    +0.000 A 
ATOM     19  C   UNL     1       5.398   5.552  15.781  0.00  0.00    +0.000 A 
ATOM     20  C   UNL     1       4.815   6.660  16.401  0.00  0.00    +0.000 A 
ATOM     21  C   UNL     1       3.834   6.505  17.414  0.00  0.00    +0.000 A 
BRANCH  19  22
ATOM     22  O   UNL     1       6.389   5.554  14.841  0.00  0.00    +0.000 OA
ATOM     23  C   UNL     1       6.616   4.347  14.133  0.00  0.00    +0.000 C 
ENDBRANCH  19  22
BRANCH  16  24
ATOM     24  O   UNL     1       2.509   5.054  18.793  0.00  0.00    +0.000 OA
BRANCH  24  25
ATOM     25  C   UNL     1       3.069   4.683  20.063  0.00  0.00    +0.000 C 
BRANCH  25  27
ATOM     26  C   UNL     1       1.046   3.211  20.419  0.00  0.00    +0.000 C 
ATOM     27  C   UNL     1       2.555   3.332  20.549  0.00  0.00    +0.000 C 
ENDBRANCH  25  27
ENDBRANCH  24  25
ENDBRANCH  16  24
ENDBRANCH  15  21
ENDBRANCH   1  15
TORSDOF 9
ENDMDL
MODEL 8
REMARK VINA RESULT:      -6.2      6.023      8.726
REMARK  Name = 
REMARK  11 active torsions:
REMARK  status: ('A' for Active; 'I' for Inactive)
REMARK    1  A    between atoms: C_1  and  C_2
REMARK    2  A    between atoms: C_2  and  C_3
REMARK    3  A    between atoms: C_3  and  O_4
REMARK    4  A    between atoms: O_4  and  C_5
REMARK    5  A    between atoms: C_8  and  O_9
REMARK    6  A    between atoms: O_9  and  C_10
REMARK    7  A    between atoms: C_12  and  C_13
REMARK    8  A    between atoms: C_13  and  C_14
REMARK    9  A    between atoms: C_14  and  N_15
REMARK   10  A    between atoms: N_15  and  C_16
REMARK   11  A    between atoms: C_16  and  N_18
REMARK                            x       y       z     vdW  Elec       q    Type
REMARK                         _______ _______ _______ _____ _____    ______ ____
ROOT
ATOM      1  C   UNL     1       1.806   8.807  17.879  0.00  0.00    +0.000 C 
ENDROOT
BRANCH   1   2
ATOM      2  N   UNL     1       0.893   9.610  18.686  0.00  0.00    +0.000 N 
ATOM      3  H   UNL     1       0.647   9.199  19.580  0.00  0.00    +0.000 HD
BRANCH   2   4
ATOM      4  C   UNL     1       0.873  10.976  18.705  0.00  0.00    +0.000 C 
ATOM      5  S   UNL     1       2.182  11.954  18.327  0.00  0.00    +0.000 S 
BRANCH   4   6
ATOM      6  N   UNL     1      -0.288  11.602  19.030  0.00  0.00    +0.000 N 
ATOM      7  C   UNL     1      -0.970  11.809  20.234  0.00  0.00    +0.000 A 
ATOM      8  C   UNL     1      -0.478  11.495  21.493  0.00  0.00    +0.000 A 
ATOM      9  C   UNL     1      -1.263  11.757  22.616  0.00  0.00    +0.000 A 
ATOM     10  C   UNL     1      -2.533  12.282  22.450  0.00  0.00    +0.000 A 
ATOM     11 BR   UNL     1      -3.626  12.639  23.940  0.00  0.00    +0.000 Br
ATOM     12  C   UNL     1      -2.966  12.542  21.164  0.00  0.00    +0.000 A 
ATOM     13  N   UNL     1      -2.206  12.320  20.061  0.00  0.00    +0.000 NA
ATOM     14  H   UNL     1      -0.866  11.857  18.236  0.00  0.00    +0.000 HD
ENDBRANCH   4   6
ENDBRANCH   2   4
ENDBRANCH   1   2
BRANCH   1  15
ATOM     15  C   UNL     1       2.652   7.794  18.667  0.00  0.00    +0.000 C 
BRANCH  15  21
ATOM     16  C   UNL     1       2.880   5.316  17.998  0.00  0.00    +0.000 A 
ATOM     17  C   UNL     1       3.607   4.319  17.330  0.00  0.00    +0.000 A 
ATOM     18  C   UNL     1       4.753   4.626  16.607  0.00  0.00    +0.000 A 
ATOM     19  C   UNL     1       5.198   5.936  16.513  0.00  0.00    +0.000 A 
ATOM     20  C   UNL     1       4.467   6.949  17.137  0.00  0.00    +0.000 A 
ATOM     21  C   UNL     1       3.305   6.657  17.898  0.00  0.00    +0.000 A 
BRANCH  19  22
ATOM     22  O   UNL     1       6.359   6.067  15.804  0.00  0.00    +0.000 OA
ATOM     23  C   UNL     1       6.870   4.905  15.173  0.00  0.00    +0.000 C 
ENDBRANCH  19  22
BRANCH  16  24
ATOM     24  O   UNL     1       1.774   5.031  18.775  0.00  0.00    +0.000 OA
BRANCH  24  25
ATOM     25  C   UNL     1       2.062   4.323  19.992  0.00  0.00    +0.000 C 
BRANCH  25  27
ATOM     26  C   UNL     1       0.680   2.517  18.890  0.00  0.00    +0.000 C 
ATOM     27  C   UNL     1       1.132   3.132  20.202  0.00  0.00    +0.000 C 
ENDBRANCH  25  27
ENDBRANCH  24  25
ENDBRANCH  16  24
ENDBRANCH  15  21
ENDBRANCH   1  15
TORSDOF 9
ENDMDL
MODEL 9
REMARK VINA RESULT:      -6.2      6.087      8.866
REMARK  Name = 
REMARK  11 active torsions:
REMARK  status: ('A' for Active; 'I' for Inactive)
REMARK    1  A    between atoms: C_1  and  C_2
REMARK    2  A    between atoms: C_2  and  C_3
REMARK    3  A    between atoms: C_3  and  O_4
REMARK    4  A    between atoms: O_4  and  C_5
REMARK    5  A    between atoms: C_8  and  O_9
REMARK    6  A    between atoms: O_9  and  C_10
REMARK    7  A    between atoms: C_12  and  C_13
REMARK    8  A    between atoms: C_13  and  C_14
REMARK    9  A    between atoms: C_14  and  N_15
REMARK   10  A    between atoms: N_15  and  C_16
REMARK   11  A    between atoms: C_16  and  N_18
REMARK                            x       y       z     vdW  Elec       q    Type
REMARK                         _______ _______ _______ _____ _____    ______ ____
ROOT
ATOM      1  C   UNL     1       1.640   8.909  17.576  0.00  0.00    +0.000 C 
ENDROOT
BRANCH   1   2
ATOM      2  N   UNL     1       1.008  10.089  18.156  0.00  0.00    +0.000 N 
ATOM      3  H   UNL     1       1.369  10.973  17.812  0.00  0.00    +0.000 HD
BRANCH   2   4
ATOM      4  C   UNL     1      -0.304  10.160  18.531  0.00  0.00    +0.000 C 
ATOM      5  S   UNL     1      -1.602  10.110  17.471  0.00  0.00    +0.000 S 
BRANCH   4   6
ATOM      6  N   UNL     1      -0.595  10.257  19.855  0.00  0.00    +0.000 N 
ATOM      7  C   UNL     1      -0.821  11.333  20.719  0.00  0.00    +0.000 A 
ATOM      8  C   UNL     1      -0.936  12.660  20.326  0.00  0.00    +0.000 A 
ATOM      9  C   UNL     1      -1.164  13.639  21.293  0.00  0.00    +0.000 A 
ATOM     10  C   UNL     1      -1.229  13.275  22.627  0.00  0.00    +0.000 A 
ATOM     11 BR   UNL     1      -1.525  14.568  23.961  0.00  0.00    +0.000 Br
ATOM     12  C   UNL     1      -1.077  11.939  22.944  0.00  0.00    +0.000 A 
ATOM     13  N   UNL     1      -0.881  10.968  22.016  0.00  0.00    +0.000 NA
ATOM     14  H   UNL     1      -0.493   9.389  20.373  0.00  0.00    +0.000 HD
ENDBRANCH   4   6
ENDBRANCH   2   4
ENDBRANCH   1   2
BRANCH   1  15
ATOM     15  C   UNL     1       2.373   8.003  18.579  0.00  0.00    +0.000 C 
BRANCH  15  21
ATOM     16  C   UNL     1       2.958   5.496  18.472  0.00  0.00    +0.000 A 
ATOM     17  C   UNL     1       3.798   4.483  17.986  0.00  0.00    +0.000 A 
ATOM     18  C   UNL     1       4.842   4.770  17.114  0.00  0.00    +0.000 A 
ATOM     19  C   UNL     1       5.067   6.070  16.687  0.00  0.00    +0.000 A 
ATOM     20  C   UNL     1       4.217   7.087  17.128  0.00  0.00    +0.000 A 
ATOM     21  C   UNL     1       3.158   6.822  18.033  0.00  0.00    +0.000 A 
BRANCH  19  22
ATOM     22  O   UNL     1       6.154   6.193  15.869  0.00  0.00    +0.000 OA
ATOM     23  C   UNL     1       6.860   5.008  15.542  0.00  0.00    +0.000 C 
ENDBRANCH  19  22
BRANCH  16  24
ATOM     24  O   UNL     1       1.953   5.248  19.387  0.00  0.00    +0.000 OA
BRANCH  24  25
ATOM     25  C   UNL     1       2.152   4.076  20.194  0.00  0.00    +0.000 C 
BRANCH  25  27
ATOM     26  C   UNL     1       0.854   2.392  18.830  0.00  0.00    +0.000 C 
ATOM     27  C   UNL     1       0.954   3.134  20.152  0.00  0.00    +0.000 C 
ENDBRANCH  25  27
ENDBRANCH  24  25
ENDBRANCH  16  24
ENDBRANCH  15  21
ENDBRANCH   1  15
TORSDOF 9
ENDMDL
