MODEL 1
REMARK VINA RESULT:      -8.5      0.000      0.000
REMARK  Name = 
REMARK  7 active torsions:
REMARK  status: ('A' for Active; 'I' for Inactive)
REMARK    1  A    between atoms: C_1  and  C_2
REMARK    2  A    between atoms: N_6  and  C_7
REMARK    3  A    between atoms: C_13  and  C_14
REMARK    4  A    between atoms: C_16  and  C_17
REMARK    5  A    between atoms: C_22  and  C_23
REMARK    6  A    between atoms: C_26  and  O_27
REMARK    7  A    between atoms: O_27  and  C_28
REMARK                            x       y       z     vdW  Elec       q    Type
REMARK                         _______ _______ _______ _____ _____    ______ ____
ROOT
ATOM      1  C   UNL     1       1.272   4.439  17.475  0.00  0.00    +0.000 C 
ATOM      2  C   UNL     1       2.726   4.724  17.665  0.00  0.00    +0.000 A 
ATOM      3  C   UNL     1       3.659   3.878  17.088  0.00  0.00    +0.000 A 
ATOM      4  N   UNL     1       4.992   4.040  17.160  0.00  0.00    +0.000 NA
ATOM      5  C   UNL     1       5.415   5.118  17.818  0.00  0.00    +0.000 A 
ATOM      6  N   UNL     1       6.789   5.333  17.865  0.00  0.00    +0.000 N 
ATOM      7  N   UNL     1       4.591   5.982  18.435  0.00  0.00    +0.000 NA
ATOM      8  C   UNL     1       3.256   5.784  18.389  0.00  0.00    +0.000 A 
ATOM      9  H   UNL     1       7.301   4.584  17.426  0.00  0.00    +0.000 HD
ENDROOT
BRANCH   6  10
ATOM     10  C   UNL     1       7.435   6.562  18.003  0.00  0.00    +0.000 A 
ATOM     11  C   UNL     1       8.374   6.768  19.003  0.00  0.00    +0.000 A 
ATOM     12  C   UNL     1       8.903   8.042  19.216  0.00  0.00    +0.000 A 
ATOM     13  C   UNL     1       8.487   9.111  18.419  0.00  0.00    +0.000 A 
ATOM     14  N   UNL     1       8.994  10.397  18.623  0.00  0.00    +0.000 N 
ATOM     15  C   UNL     1       8.535  11.366  17.608  0.00  0.00    +0.000 C 
ATOM     16  C   UNL     1       9.379  12.643  17.717  0.00  0.00    +0.000 C 
ATOM     17  C   UNL     1      10.781  12.431  17.154  0.00  0.00    +0.000 C 
ATOM     18  O   UNL     1       9.386  13.199  19.044  0.00  0.00    +0.000 OA
ATOM     19  C   UNL     1       9.564  12.271  20.130  0.00  0.00    +0.000 C 
ATOM     20  C   UNL     1      11.040  12.046  20.442  0.00  0.00    +0.000 C 
ATOM     21  C   UNL     1       8.789  10.941  19.975  0.00  0.00    +0.000 C 
ATOM     22  N   UNL     1       7.629   8.911  17.403  0.00  0.00    +0.000 NA
ATOM     23  C   UNL     1       7.126   7.671  17.226  0.00  0.00    +0.000 A 
ENDBRANCH   6  10
BRANCH   8  24
ATOM     24  C   UNL     1       2.478   6.798  19.152  0.00  0.00    +0.000 A 
ATOM     25  C   UNL     1       2.199   8.067  18.602  0.00  0.00    +0.000 A 
ATOM     26  C   UNL     1       1.430   9.014  19.296  0.00  0.00    +0.000 A 
ATOM     27  C   UNL     1       0.899   8.721  20.549  0.00  0.00    +0.000 A 
ATOM     28  C   UNL     1       1.245   7.518  21.154  0.00  0.00    +0.000 A 
ATOM     29  C   UNL     1       2.026   6.579  20.464  0.00  0.00    +0.000 A 
BRANCH  27  30
ATOM     30  O   UNL     1       0.123   9.691  21.099  0.00  0.00    +0.000 OA
BRANCH  30  31
ATOM     31  C   UNL     1      -0.154   9.633  22.495  0.00  0.00    +0.000 C 
ATOM     32  F   UNL     1       0.935   9.456  23.271  0.00  0.00    +0.000 F 
ATOM     33  F   UNL     1      -0.780  10.764  22.877  0.00  0.00    +0.000 F 
ATOM     34  F   UNL     1      -0.991   8.592  22.722  0.00  0.00    +0.000 F 
ENDBRANCH  30  31
ENDBRANCH  27  30
ENDBRANCH   8  24
TORSDOF 4
ENDMDL
MODEL 2
REMARK VINA RESULT:      -8.3      5.266      8.860
REMARK  Name = 
REMARK  7 active torsions:
REMARK  status: ('A' for Active; 'I' for Inactive)
REMARK    1  A    between atoms: C_1  and  C_2
REMARK    2  A    between atoms: N_6  and  C_7
REMARK    3  A    between atoms: C_13  and  C_14
REMARK    4  A    between atoms: C_16  and  C_17
REMARK    5  A    between atoms: C_22  and  C_23
REMARK    6  A    between atoms: C_26  and  O_27
REMARK    7  A    between atoms: O_27  and  C_28
REMARK                            x       y       z     vdW  Elec       q    Type
REMARK                         _______ _______ _______ _____ _____    ______ ____
ROOT
ATOM      1  C   UNL     1       0.163  15.844  18.588  0.00  0.00    +0.000 C 
ATOM      2  C   UNL     1       0.200  14.397  18.957  0.00  0.00    +0.000 A 
ATOM      3  C   UNL     1      -0.993  13.707  19.097  0.00  0.00    +0.000 A 
ATOM      4  N   UNL     1      -1.095  12.400  19.397  0.00  0.00    +0.000 NA
ATOM      5  C   UNL     1       0.054  11.740  19.535  0.00  0.00    +0.000 A 
ATOM      6  N   UNL     1      -0.026  10.376  19.798  0.00  0.00    +0.000 N 
ATOM      7  N   UNL     1       1.261  12.325  19.446  0.00  0.00    +0.000 NA
ATOM      8  C   UNL     1       1.347  13.647  19.185  0.00  0.00    +0.000 A 
ATOM      9  H   UNL     1      -0.980  10.071  19.908  0.00  0.00    +0.000 HD
ENDROOT
BRANCH   6  10
ATOM     10  C   UNL     1       0.928   9.410  19.478  0.00  0.00    +0.000 A 
ATOM     11  C   UNL     1       1.376   9.251  18.175  0.00  0.00    +0.000 A 
ATOM     12  C   UNL     1       2.221   8.188  17.849  0.00  0.00    +0.000 A 
ATOM     13  C   UNL     1       2.616   7.284  18.837  0.00  0.00    +0.000 A 
ATOM     14  N   UNL     1       3.451   6.206  18.530  0.00  0.00    +0.000 N 
ATOM     15  C   UNL     1       3.860   5.437  19.722  0.00  0.00    +0.000 C 
ATOM     16  C   UNL     1       5.008   4.493  19.338  0.00  0.00    +0.000 C 
ATOM     17  C   UNL     1       6.315   5.258  19.151  0.00  0.00    +0.000 C 
ATOM     18  O   UNL     1       4.690   3.647  18.220  0.00  0.00    +0.000 OA
ATOM     19  C   UNL     1       4.034   4.276  17.104  0.00  0.00    +0.000 C 
ATOM     20  C   UNL     1       5.040   4.852  16.112  0.00  0.00    +0.000 C 
ATOM     21  C   UNL     1       2.941   5.300  17.489  0.00  0.00    +0.000 C 
ATOM     22  N   UNL     1       2.244   7.466  20.117  0.00  0.00    +0.000 NA
ATOM     23  C   UNL     1       1.419   8.496  20.402  0.00  0.00    +0.000 A 
ENDBRANCH   6  10
BRANCH   8  24
ATOM     24  C   UNL     1       2.745  14.158  19.158  0.00  0.00    +0.000 A 
ATOM     25  C   UNL     1       3.450  14.415  20.352  0.00  0.00    +0.000 A 
ATOM     26  C   UNL     1       4.783  14.856  20.337  0.00  0.00    +0.000 A 
ATOM     27  C   UNL     1       5.460  15.037  19.133  0.00  0.00    +0.000 A 
ATOM     28  C   UNL     1       4.755  14.887  17.944  0.00  0.00    +0.000 A 
ATOM     29  C   UNL     1       3.419  14.461  17.963  0.00  0.00    +0.000 A 
BRANCH  27  30
ATOM     30  O   UNL     1       6.762  15.408  19.243  0.00  0.00    +0.000 OA
BRANCH  30  31
ATOM     31  C   UNL     1       7.715  14.820  18.361  0.00  0.00    +0.000 C 
ATOM     32  F   UNL     1       7.353  13.615  17.875  0.00  0.00    +0.000 F 
ATOM     33  F   UNL     1       7.946  15.654  17.328  0.00  0.00    +0.000 F 
ATOM     34  F   UNL     1       8.877  14.655  19.037  0.00  0.00    +0.000 F 
ENDBRANCH  30  31
ENDBRANCH  27  30
ENDBRANCH   8  24
TORSDOF 4
ENDMDL
MODEL 3
REMARK VINA RESULT:      -8.3      5.234      8.784
REMARK  Name = 
REMARK  7 active torsions:
REMARK  status: ('A' for Active; 'I' for Inactive)
REMARK    1  A    between atoms: C_1  and  C_2
REMARK    2  A    between atoms: N_6  and  C_7
REMARK    3  A    between atoms: C_13  and  C_14
REMARK    4  A    between atoms: C_16  and  C_17
REMARK    5  A    between atoms: C_22  and  C_23
REMARK    6  A    between atoms: C_26  and  O_27
REMARK    7  A    between atoms: O_27  and  C_28
REMARK                            x       y       z     vdW  Elec       q    Type
REMARK                         _______ _______ _______ _____ _____    ______ ____
ROOT
ATOM      1  C   UNL     1      -0.042  15.729  18.627  0.00  0.00    +0.000 C 
ATOM      2  C   UNL     1       0.042  14.288  19.012  0.00  0.00    +0.000 A 
ATOM      3  C   UNL     1      -1.128  13.573  19.205  0.00  0.00    +0.000 A 
ATOM      4  N   UNL     1      -1.188  12.268  19.524  0.00  0.00    +0.000 NA
ATOM      5  C   UNL     1      -0.020  11.636  19.627  0.00  0.00    +0.000 A 
ATOM      6  N   UNL     1      -0.058  10.274  19.908  0.00  0.00    +0.000 N 
ATOM      7  N   UNL     1       1.169  12.248  19.485  0.00  0.00    +0.000 NA
ATOM      8  C   UNL     1       1.214  13.568  19.206  0.00  0.00    +0.000 A 
ATOM      9  H   UNL     1      -0.999   9.949  20.058  0.00  0.00    +0.000 HD
ENDROOT
BRANCH   6  10
ATOM     10  C   UNL     1       0.906   9.326  19.564  0.00  0.00    +0.000 A 
ATOM     11  C   UNL     1       1.333   9.184  18.252  0.00  0.00    +0.000 A 
ATOM     12  C   UNL     1       2.190   8.137  17.904  0.00  0.00    +0.000 A 
ATOM     13  C   UNL     1       2.617   7.234  18.879  0.00  0.00    +0.000 A 
ATOM     14  N   UNL     1       3.465   6.172  18.549  0.00  0.00    +0.000 N 
ATOM     15  C   UNL     1       3.908   5.402  19.728  0.00  0.00    +0.000 C 
ATOM     16  C   UNL     1       5.065   4.480  19.317  0.00  0.00    +0.000 C 
ATOM     17  C   UNL     1       6.355   5.268  19.111  0.00  0.00    +0.000 C 
ATOM     18  O   UNL     1       4.740   3.636  18.199  0.00  0.00    +0.000 OA
ATOM     19  C   UNL     1       4.053   4.261  17.099  0.00  0.00    +0.000 C 
ATOM     20  C   UNL     1       5.031   4.859  16.093  0.00  0.00    +0.000 C 
ATOM     21  C   UNL     1       2.951   5.263  17.512  0.00  0.00    +0.000 C 
ATOM     22  N   UNL     1       2.266   7.401  20.166  0.00  0.00    +0.000 NA
ATOM     23  C   UNL     1       1.429   8.415  20.473  0.00  0.00    +0.000 A 
ENDBRANCH   6  10
BRANCH   8  24
ATOM     24  C   UNL     1       2.598  14.110  19.121  0.00  0.00    +0.000 A 
ATOM     25  C   UNL     1       3.204  14.367  17.873  0.00  0.00    +0.000 A 
ATOM     26  C   UNL     1       4.492  14.918  17.782  0.00  0.00    +0.000 A 
ATOM     27  C   UNL     1       5.208  15.248  18.930  0.00  0.00    +0.000 A 
ATOM     28  C   UNL     1       4.674  14.911  20.167  0.00  0.00    +0.000 A 
ATOM     29  C   UNL     1       3.393  14.347  20.254  0.00  0.00    +0.000 A 
BRANCH  27  30
ATOM     30  O   UNL     1       6.418  15.829  18.718  0.00  0.00    +0.000 OA
BRANCH  30  31
ATOM     31  C   UNL     1       7.548  14.990  18.497  0.00  0.00    +0.000 C 
ATOM     32  F   UNL     1       8.703  15.656  18.293  0.00  0.00    +0.000 F 
ATOM     33  F   UNL     1       7.705  14.160  19.548  0.00  0.00    +0.000 F 
ATOM     34  F   UNL     1       7.312  14.237  17.397  0.00  0.00    +0.000 F 
ENDBRANCH  30  31
ENDBRANCH  27  30
ENDBRANCH   8  24
TORSDOF 4
ENDMDL
MODEL 4
REMARK VINA RESULT:      -8.3      5.421      8.967
REMARK  Name = 
REMARK  7 active torsions:
REMARK  status: ('A' for Active; 'I' for Inactive)
REMARK    1  A    between atoms: C_1  and  C_2
REMARK    2  A    between atoms: N_6  and  C_7
REMARK    3  A    between atoms: C_13  and  C_14
REMARK    4  A    between atoms: C_16  and  C_17
REMARK    5  A    between atoms: C_22  and  C_23
REMARK    6  A    between atoms: C_26  and  O_27
REMARK    7  A    between atoms: O_27  and  C_28
REMARK                            x       y       z     vdW  Elec       q    Type
REMARK                         _______ _______ _______ _____ _____    ______ ____
ROOT
ATOM      1  C   UNL     1       0.372  15.910  18.593  0.00  0.00    +0.000 C 
ATOM      2  C   UNL     1       0.369  14.460  18.949  0.00  0.00    +0.000 A 
ATOM      3  C   UNL     1      -0.842  13.796  19.060  0.00  0.00    +0.000 A 
ATOM      4  N   UNL     1      -0.980  12.489  19.346  0.00  0.00    +0.000 NA
ATOM      5  C   UNL     1       0.151  11.802  19.500  0.00  0.00    +0.000 A 
ATOM      6  N   UNL     1       0.035  10.438  19.748  0.00  0.00    +0.000 N 
ATOM      7  N   UNL     1       1.372  12.360  19.439  0.00  0.00    +0.000 NA
ATOM      8  C   UNL     1       1.493  13.682  19.193  0.00  0.00    +0.000 A 
ATOM      9  H   UNL     1      -0.927  10.154  19.838  0.00  0.00    +0.000 HD
ENDROOT
BRANCH   6  10
ATOM     10  C   UNL     1       0.973   9.453  19.438  0.00  0.00    +0.000 A 
ATOM     11  C   UNL     1       1.425   9.280  18.138  0.00  0.00    +0.000 A 
ATOM     12  C   UNL     1       2.252   8.200  17.822  0.00  0.00    +0.000 A 
ATOM     13  C   UNL     1       2.625   7.294  18.817  0.00  0.00    +0.000 A 
ATOM     14  N   UNL     1       3.442   6.199  18.519  0.00  0.00    +0.000 N 
ATOM     15  C   UNL     1       3.831   5.429  19.717  0.00  0.00    +0.000 C 
ATOM     16  C   UNL     1       4.964   4.463  19.343  0.00  0.00    +0.000 C 
ATOM     17  C   UNL     1       6.285   5.203  19.159  0.00  0.00    +0.000 C 
ATOM     18  O   UNL     1       4.636   3.617  18.228  0.00  0.00    +0.000 OA
ATOM     19  C   UNL     1       3.997   4.252  17.105  0.00  0.00    +0.000 C 
ATOM     20  C   UNL     1       5.018   4.804  16.115  0.00  0.00    +0.000 C 
ATOM     21  C   UNL     1       2.921   5.297  17.480  0.00  0.00    +0.000 C 
ATOM     22  N   UNL     1       2.250   7.489  20.094  0.00  0.00    +0.000 NA
ATOM     23  C   UNL     1       1.443   8.535  20.369  0.00  0.00    +0.000 A 
ENDBRANCH   6  10
BRANCH   8  24
ATOM     24  C   UNL     1       2.903  14.161  19.197  0.00  0.00    +0.000 A 
ATOM     25  C   UNL     1       3.534  14.559  20.394  0.00  0.00    +0.000 A 
ATOM     26  C   UNL     1       4.876  14.972  20.415  0.00  0.00    +0.000 A 
ATOM     27  C   UNL     1       5.635  14.982  19.247  0.00  0.00    +0.000 A 
ATOM     28  C   UNL     1       5.008  14.692  18.042  0.00  0.00    +0.000 A 
ATOM     29  C   UNL     1       3.663  14.294  18.023  0.00  0.00    +0.000 A 
BRANCH  27  30
ATOM     30  O   UNL     1       6.937  15.342  19.399  0.00  0.00    +0.000 OA
BRANCH  30  31
ATOM     31  C   UNL     1       7.326  16.663  19.030  0.00  0.00    +0.000 C 
ATOM     32  F   UNL     1       6.295  17.499  18.791  0.00  0.00    +0.000 F 
ATOM     33  F   UNL     1       8.098  17.192  20.000  0.00  0.00    +0.000 F 
ATOM     34  F   UNL     1       8.064  16.590  17.897  0.00  0.00    +0.000 F 
ENDBRANCH  30  31
ENDBRANCH  27  30
ENDBRANCH   8  24
TORSDOF 4
ENDMDL
MODEL 5
REMARK VINA RESULT:      -8.2      5.736      7.820
REMARK  Name = 
REMARK  7 active torsions:
REMARK  status: ('A' for Active; 'I' for Inactive)
REMARK    1  A    between atoms: C_1  and  C_2
REMARK    2  A    between atoms: N_6  and  C_7
REMARK    3  A    between atoms: C_13  and  C_14
REMARK    4  A    between atoms: C_16  and  C_17
REMARK    5  A    between atoms: C_22  and  C_23
REMARK    6  A    between atoms: C_26  and  O_27
REMARK    7  A    between atoms: O_27  and  C_28
REMARK                            x       y       z     vdW  Elec       q    Type
REMARK                         _______ _______ _______ _____ _____    ______ ____
ROOT
ATOM      1  C   UNL     1       4.460   2.319  19.689  0.00  0.00    +0.000 C 
ATOM      2  C   UNL     1       3.522   3.450  19.959  0.00  0.00    +0.000 A 
ATOM      3  C   UNL     1       2.663   3.368  21.042  0.00  0.00    +0.000 A 
ATOM      4  N   UNL     1       1.794   4.327  21.408  0.00  0.00    +0.000 NA
ATOM      5  C   UNL     1       1.803   5.437  20.672  0.00  0.00    +0.000 A 
ATOM      6  N   UNL     1       0.947   6.463  21.060  0.00  0.00    +0.000 N 
ATOM      7  N   UNL     1       2.579   5.601  19.586  0.00  0.00    +0.000 NA
ATOM      8  C   UNL     1       3.417   4.612  19.207  0.00  0.00    +0.000 A 
ATOM      9  H   UNL     1       0.372   6.195  21.843  0.00  0.00    +0.000 HD
ENDROOT
BRANCH   6  10
ATOM     10  C   UNL     1       1.121   7.827  20.824  0.00  0.00    +0.000 A 
ATOM     11  C   UNL     1       0.913   8.759  21.830  0.00  0.00    +0.000 A 
ATOM     12  C   UNL     1       0.953  10.124  21.539  0.00  0.00    +0.000 A 
ATOM     13  C   UNL     1       1.203  10.551  20.234  0.00  0.00    +0.000 A 
ATOM     14  N   UNL     1       1.235  11.913  19.918  0.00  0.00    +0.000 N 
ATOM     15  C   UNL     1       1.638  12.171  18.522  0.00  0.00    +0.000 C 
ATOM     16  C   UNL     1       1.953  13.665  18.361  0.00  0.00    +0.000 C 
ATOM     17  C   UNL     1       3.287  14.022  19.010  0.00  0.00    +0.000 C 
ATOM     18  O   UNL     1       0.876  14.516  18.789  0.00  0.00    +0.000 OA
ATOM     19  C   UNL     1       0.238  14.170  20.032  0.00  0.00    +0.000 C 
ATOM     20  C   UNL     1       0.940  14.815  21.223  0.00  0.00    +0.000 C 
ATOM     21  C   UNL     1       0.006  12.655  20.239  0.00  0.00    +0.000 C 
ATOM     22  N   UNL     1       1.475   9.660  19.264  0.00  0.00    +0.000 NA
ATOM     23  C   UNL     1       1.420   8.346  19.571  0.00  0.00    +0.000 A 
ENDBRANCH   6  10
BRANCH   8  24
ATOM     24  C   UNL     1       4.179   4.923  17.966  0.00  0.00    +0.000 A 
ATOM     25  C   UNL     1       4.146   4.056  16.854  0.00  0.00    +0.000 A 
ATOM     26  C   UNL     1       4.826   4.360  15.665  0.00  0.00    +0.000 A 
ATOM     27  C   UNL     1       5.545   5.547  15.540  0.00  0.00    +0.000 A 
ATOM     28  C   UNL     1       5.676   6.367  16.654  0.00  0.00    +0.000 A 
ATOM     29  C   UNL     1       5.007   6.052  17.846  0.00  0.00    +0.000 A 
BRANCH  27  30
ATOM     30  O   UNL     1       6.112   5.762  14.324  0.00  0.00    +0.000 OA
BRANCH  30  31
ATOM     31  C   UNL     1       7.180   4.914  13.910  0.00  0.00    +0.000 C 
ATOM     32  F   UNL     1       8.090   5.514  13.115  0.00  0.00    +0.000 F 
ATOM     33  F   UNL     1       7.810   4.421  14.995  0.00  0.00    +0.000 F 
ATOM     34  F   UNL     1       6.656   3.875  13.218  0.00  0.00    +0.000 F 
ENDBRANCH  30  31
ENDBRANCH  27  30
ENDBRANCH   8  24
TORSDOF 4
ENDMDL
MODEL 6
REMARK VINA RESULT:      -8.1      1.120      2.033
REMARK  Name = 
REMARK  7 active torsions:
REMARK  status: ('A' for Active; 'I' for Inactive)
REMARK    1  A    between atoms: C_1  and  C_2
REMARK    2  A    between atoms: N_6  and  C_7
REMARK    3  A    between atoms: C_13  and  C_14
REMARK    4  A    between atoms: C_16  and  C_17
REMARK    5  A    between atoms: C_22  and  C_23
REMARK    6  A    between atoms: C_26  and  O_27
REMARK    7  A    between atoms: O_27  and  C_28
REMARK                            x       y       z     vdW  Elec       q    Type
REMARK                         _______ _______ _______ _____ _____    ______ ____
ROOT
ATOM      1  C   UNL     1       2.289   3.800  17.075  0.00  0.00    +0.000 C 
ATOM      2  C   UNL     1       3.643   4.366  17.353  0.00  0.00    +0.000 A 
ATOM      3  C   UNL     1       4.746   3.814  16.723  0.00  0.00    +0.000 A 
ATOM      4  N   UNL     1       6.011   4.248  16.866  0.00  0.00    +0.000 NA
ATOM      5  C   UNL     1       6.180   5.308  17.655  0.00  0.00    +0.000 A 
ATOM      6  N   UNL     1       7.473   5.806  17.780  0.00  0.00    +0.000 N 
ATOM      7  N   UNL     1       5.178   5.896  18.332  0.00  0.00    +0.000 NA
ATOM      8  C   UNL     1       3.919   5.422  18.211  0.00  0.00    +0.000 A 
ATOM      9  H   UNL     1       8.142   5.241  17.282  0.00  0.00    +0.000 HD
ENDROOT
BRANCH   6  10
ATOM     10  C   UNL     1       7.833   7.120  18.080  0.00  0.00    +0.000 A 
ATOM     11  C   UNL     1       7.559   8.156  17.200  0.00  0.00    +0.000 A 
ATOM     12  C   UNL     1       8.052   9.438  17.450  0.00  0.00    +0.000 A 
ATOM     13  C   UNL     1       8.823   9.677  18.589  0.00  0.00    +0.000 A 
ATOM     14  N   UNL     1       9.338  10.950  18.852  0.00  0.00    +0.000 N 
ATOM     15  C   UNL     1      10.016  11.038  20.160  0.00  0.00    +0.000 C 
ATOM     16  C   UNL     1      10.258  12.515  20.500  0.00  0.00    +0.000 C 
ATOM     17  C   UNL     1       8.963  13.208  20.913  0.00  0.00    +0.000 C 
ATOM     18  O   UNL     1      10.965  13.221  19.465  0.00  0.00    +0.000 OA
ATOM     19  C   UNL     1      10.533  12.981  18.113  0.00  0.00    +0.000 C 
ATOM     20  C   UNL     1       9.412  13.931  17.703  0.00  0.00    +0.000 C 
ATOM     21  C   UNL     1      10.196  11.506  17.794  0.00  0.00    +0.000 C 
ATOM     22  N   UNL     1       9.039   8.698  19.486  0.00  0.00    +0.000 NA
ATOM     23  C   UNL     1       8.558   7.466  19.214  0.00  0.00    +0.000 A 
ENDBRANCH   6  10
BRANCH   8  24
ATOM     24  C   UNL     1       2.928   6.149  19.051  0.00  0.00    +0.000 A 
ATOM     25  C   UNL     1       2.304   5.522  20.150  0.00  0.00    +0.000 A 
ATOM     26  C   UNL     1       1.400   6.211  20.973  0.00  0.00    +0.000 A 
ATOM     27  C   UNL     1       1.103   7.552  20.738  0.00  0.00    +0.000 A 
ATOM     28  C   UNL     1       1.626   8.161  19.604  0.00  0.00    +0.000 A 
ATOM     29  C   UNL     1       2.518   7.464  18.775  0.00  0.00    +0.000 A 
BRANCH  27  30
ATOM     30  O   UNL     1       0.262   8.131  21.634  0.00  0.00    +0.000 OA
BRANCH  30  31
ATOM     31  C   UNL     1       0.726   9.256  22.376  0.00  0.00    +0.000 C 
ATOM     32  F   UNL     1       2.043   9.227  22.664  0.00  0.00    +0.000 F 
ATOM     33  F   UNL     1       0.455  10.387  21.694  0.00  0.00    +0.000 F 
ATOM     34  F   UNL     1       0.052   9.300  23.550  0.00  0.00    +0.000 F 
ENDBRANCH  30  31
ENDBRANCH  27  30
ENDBRANCH   8  24
TORSDOF 4
ENDMDL
MODEL 7
REMARK VINA RESULT:      -8.1      5.010      6.877
REMARK  Name = 
REMARK  7 active torsions:
REMARK  status: ('A' for Active; 'I' for Inactive)
REMARK    1  A    between atoms: C_1  and  C_2
REMARK    2  A    between atoms: N_6  and  C_7
REMARK    3  A    between atoms: C_13  and  C_14
REMARK    4  A    between atoms: C_16  and  C_17
REMARK    5  A    between atoms: C_22  and  C_23
REMARK    6  A    between atoms: C_26  and  O_27
REMARK    7  A    between atoms: O_27  and  C_28
REMARK                            x       y       z     vdW  Elec       q    Type
REMARK                         _______ _______ _______ _____ _____    ______ ____
ROOT
ATOM      1  C   UNL     1      -1.900  10.104  18.172  0.00  0.00    +0.000 C 
ATOM      2  C   UNL     1      -0.888  11.188  18.348  0.00  0.00    +0.000 A 
ATOM      3  C   UNL     1      -1.256  12.499  18.098  0.00  0.00    +0.000 A 
ATOM      4  N   UNL     1      -0.450  13.566  18.245  0.00  0.00    +0.000 NA
ATOM      5  C   UNL     1       0.778  13.313  18.694  0.00  0.00    +0.000 A 
ATOM      6  N   UNL     1       1.615  14.406  18.901  0.00  0.00    +0.000 N 
ATOM      7  N   UNL     1       1.238  12.074  18.938  0.00  0.00    +0.000 NA
ATOM      8  C   UNL     1       0.431  11.010  18.746  0.00  0.00    +0.000 A 
ATOM      9  H   UNL     1       1.180  15.270  18.619  0.00  0.00    +0.000 HD
ENDROOT
BRANCH   6  10
ATOM     10  C   UNL     1       2.677  14.482  19.803  0.00  0.00    +0.000 A 
ATOM     11  C   UNL     1       3.913  14.975  19.412  0.00  0.00    +0.000 A 
ATOM     12  C   UNL     1       5.000  14.911  20.286  0.00  0.00    +0.000 A 
ATOM     13  C   UNL     1       4.843  14.350  21.554  0.00  0.00    +0.000 A 
ATOM     14  N   UNL     1       5.921  14.264  22.439  0.00  0.00    +0.000 N 
ATOM     15  C   UNL     1       5.534  13.760  23.772  0.00  0.00    +0.000 C 
ATOM     16  C   UNL     1       6.690  14.001  24.753  0.00  0.00    +0.000 C 
ATOM     17  C   UNL     1       6.796  15.475  25.133  0.00  0.00    +0.000 C 
ATOM     18  O   UNL     1       7.937  13.449  24.297  0.00  0.00    +0.000 OA
ATOM     19  C   UNL     1       8.271  13.669  22.914  0.00  0.00    +0.000 C 
ATOM     20  C   UNL     1       9.022  14.983  22.719  0.00  0.00    +0.000 C 
ATOM     21  C   UNL     1       7.086  13.521  21.933  0.00  0.00    +0.000 C 
ATOM     22  N   UNL     1       3.634  13.930  21.970  0.00  0.00    +0.000 NA
ATOM     23  C   UNL     1       2.602  13.996  21.102  0.00  0.00    +0.000 A 
ENDBRANCH   6  10
BRANCH   8  24
ATOM     24  C   UNL     1       1.093   9.704  19.018  0.00  0.00    +0.000 A 
ATOM     25  C   UNL     1       1.770   9.004  17.998  0.00  0.00    +0.000 A 
ATOM     26  C   UNL     1       2.434   7.794  18.254  0.00  0.00    +0.000 A 
ATOM     27  C   UNL     1       2.459   7.253  19.538  0.00  0.00    +0.000 A 
ATOM     28  C   UNL     1       1.714   7.871  20.535  0.00  0.00    +0.000 A 
ATOM     29  C   UNL     1       1.040   9.073  20.272  0.00  0.00    +0.000 A 
BRANCH  27  30
ATOM     30  O   UNL     1       3.181   6.111  19.679  0.00  0.00    +0.000 OA
BRANCH  30  31
ATOM     31  C   UNL     1       2.494   4.907  20.012  0.00  0.00    +0.000 C 
ATOM     32  F   UNL     1       2.117   4.823  21.304  0.00  0.00    +0.000 F 
ATOM     33  F   UNL     1       1.402   4.782  19.231  0.00  0.00    +0.000 F 
ATOM     34  F   UNL     1       3.317   3.862  19.757  0.00  0.00    +0.000 F 
ENDBRANCH  30  31
ENDBRANCH  27  30
ENDBRANCH   8  24
TORSDOF 4
ENDMDL
MODEL 8
REMARK VINA RESULT:      -8.1      4.925      6.775
REMARK  Name = 
REMARK  7 active torsions:
REMARK  status: ('A' for Active; 'I' for Inactive)
REMARK    1  A    between atoms: C_1  and  C_2
REMARK    2  A    between atoms: N_6  and  C_7
REMARK    3  A    between atoms: C_13  and  C_14
REMARK    4  A    between atoms: C_16  and  C_17
REMARK    5  A    between atoms: C_22  and  C_23
REMARK    6  A    between atoms: C_26  and  O_27
REMARK    7  A    between atoms: O_27  and  C_28
REMARK                            x       y       z     vdW  Elec       q    Type
REMARK                         _______ _______ _______ _____ _____    ______ ____
ROOT
ATOM      1  C   UNL     1      -1.847  10.102  18.359  0.00  0.00    +0.000 C 
ATOM      2  C   UNL     1      -0.802  11.167  18.431  0.00  0.00    +0.000 A 
ATOM      3  C   UNL     1      -1.167  12.485  18.215  0.00  0.00    +0.000 A 
ATOM      4  N   UNL     1      -0.330  13.535  18.279  0.00  0.00    +0.000 NA
ATOM      5  C   UNL     1       0.932  13.258  18.604  0.00  0.00    +0.000 A 
ATOM      6  N   UNL     1       1.806  14.334  18.724  0.00  0.00    +0.000 N 
ATOM      7  N   UNL     1       1.390  12.011  18.805  0.00  0.00    +0.000 NA
ATOM      8  C   UNL     1       0.546  10.962  18.696  0.00  0.00    +0.000 A 
ATOM      9  H   UNL     1       1.363  15.206  18.485  0.00  0.00    +0.000 HD
ENDROOT
BRANCH   6  10
ATOM     10  C   UNL     1       2.954  14.390  19.516  0.00  0.00    +0.000 A 
ATOM     11  C   UNL     1       2.893  14.149  20.881  0.00  0.00    +0.000 A 
ATOM     12  C   UNL     1       4.022  14.349  21.678  0.00  0.00    +0.000 A 
ATOM     13  C   UNL     1       5.214  14.791  21.100  0.00  0.00    +0.000 A 
ATOM     14  N   UNL     1       6.352  15.010  21.882  0.00  0.00    +0.000 N 
ATOM     15  C   UNL     1       7.544  15.351  21.081  0.00  0.00    +0.000 C 
ATOM     16  C   UNL     1       8.790  15.256  21.973  0.00  0.00    +0.000 C 
ATOM     17  C   UNL     1       9.161  13.803  22.253  0.00  0.00    +0.000 C 
ATOM     18  O   UNL     1       8.686  16.048  23.169  0.00  0.00    +0.000 OA
ATOM     19  C   UNL     1       7.435  15.979  23.879  0.00  0.00    +0.000 C 
ATOM     20  C   UNL     1       7.423  14.835  24.887  0.00  0.00    +0.000 C 
ATOM     21  C   UNL     1       6.180  15.978  22.977  0.00  0.00    +0.000 C 
ATOM     22  N   UNL     1       5.305  14.962  19.769  0.00  0.00    +0.000 NA
ATOM     23  C   UNL     1       4.196  14.771  19.023  0.00  0.00    +0.000 A 
ENDBRANCH   6  10
BRANCH   8  24
ATOM     24  C   UNL     1       1.206   9.644  18.904  0.00  0.00    +0.000 A 
ATOM     25  C   UNL     1       1.192   9.013  20.166  0.00  0.00    +0.000 A 
ATOM     26  C   UNL     1       1.774   7.751  20.363  0.00  0.00    +0.000 A 
ATOM     27  C   UNL     1       2.372   7.071  19.305  0.00  0.00    +0.000 A 
ATOM     28  C   UNL     1       2.488   7.715  18.079  0.00  0.00    +0.000 A 
ATOM     29  C   UNL     1       1.918   8.982  17.890  0.00  0.00    +0.000 A 
BRANCH  27  30
ATOM     30  O   UNL     1       2.849   5.833  19.600  0.00  0.00    +0.000 OA
BRANCH  30  31
ATOM     31  C   UNL     1       2.010   4.705  19.364  0.00  0.00    +0.000 C 
ATOM     32  F   UNL     1       1.415   4.699  18.153  0.00  0.00    +0.000 F 
ATOM     33  F   UNL     1       2.729   3.573  19.500  0.00  0.00    +0.000 F 
ATOM     34  F   UNL     1       1.031   4.698  20.300  0.00  0.00    +0.000 F 
ENDBRANCH  30  31
ENDBRANCH  27  30
ENDBRANCH   8  24
TORSDOF 4
ENDMDL
MODEL 9
REMARK VINA RESULT:      -8.1      5.387      8.271
REMARK  Name = 
REMARK  7 active torsions:
REMARK  status: ('A' for Active; 'I' for Inactive)
REMARK    1  A    between atoms: C_1  and  C_2
REMARK    2  A    between atoms: N_6  and  C_7
REMARK    3  A    between atoms: C_13  and  C_14
REMARK    4  A    between atoms: C_16  and  C_17
REMARK    5  A    between atoms: C_22  and  C_23
REMARK    6  A    between atoms: C_26  and  O_27
REMARK    7  A    between atoms: O_27  and  C_28
REMARK                            x       y       z     vdW  Elec       q    Type
REMARK                         _______ _______ _______ _____ _____    ______ ____
ROOT
ATOM      1  C   UNL     1       1.069  14.986  20.801  0.00  0.00    +0.000 C 
ATOM      2  C   UNL     1       1.303  13.745  20.004  0.00  0.00    +0.000 A 
ATOM      3  C   UNL     1       2.282  13.749  19.025  0.00  0.00    +0.000 A 
ATOM      4  N   UNL     1       2.610  12.692  18.261  0.00  0.00    +0.000 NA
ATOM      5  C   UNL     1       1.945  11.564  18.507  0.00  0.00    +0.000 A 
ATOM      6  N   UNL     1       2.300  10.444  17.762  0.00  0.00    +0.000 N 
ATOM      7  N   UNL     1       0.959  11.467  19.415  0.00  0.00    +0.000 NA
ATOM      8  C   UNL     1       0.613  12.548  20.146  0.00  0.00    +0.000 A 
ATOM      9  H   UNL     1       3.001  10.659  17.071  0.00  0.00    +0.000 HD
ENDROOT
BRANCH   6  10
ATOM     10  C   UNL     1       2.164   9.110  18.148  0.00  0.00    +0.000 A 
ATOM     11  C   UNL     1       1.926   8.769  19.472  0.00  0.00    +0.000 A 
ATOM     12  C   UNL     1       1.936   7.429  19.863  0.00  0.00    +0.000 A 
ATOM     13  C   UNL     1       2.183   6.430  18.920  0.00  0.00    +0.000 A 
ATOM     14  N   UNL     1       2.210   5.083  19.292  0.00  0.00    +0.000 N 
ATOM     15  C   UNL     1       2.359   4.170  18.141  0.00  0.00    +0.000 C 
ATOM     16  C   UNL     1       2.058   2.736  18.598  0.00  0.00    +0.000 C 
ATOM     17  C   UNL     1       0.562   2.525  18.812  0.00  0.00    +0.000 C 
ATOM     18  O   UNL     1       2.848   2.329  19.730  0.00  0.00    +0.000 OA
ATOM     19  C   UNL     1       2.977   3.283  20.800  0.00  0.00    +0.000 C 
ATOM     20  C   UNL     1       1.842   3.152  21.811  0.00  0.00    +0.000 C 
ATOM     21  C   UNL     1       3.185   4.745  20.341  0.00  0.00    +0.000 C 
ATOM     22  N   UNL     1       2.347   6.742  17.621  0.00  0.00    +0.000 NA
ATOM     23  C   UNL     1       2.343   8.046  17.273  0.00  0.00    +0.000 A 
ENDBRANCH   6  10
BRANCH   8  24
ATOM     24  C   UNL     1      -0.520  12.297  21.078  0.00  0.00    +0.000 A 
ATOM     25  C   UNL     1      -0.376  11.434  22.184  0.00  0.00    +0.000 A 
ATOM     26  C   UNL     1      -1.425  11.224  23.093  0.00  0.00    +0.000 A 
ATOM     27  C   UNL     1      -2.643  11.881  22.940  0.00  0.00    +0.000 A 
ATOM     28  C   UNL     1      -2.842  12.657  21.804  0.00  0.00    +0.000 A 
ATOM     29  C   UNL     1      -1.796  12.853  20.889  0.00  0.00    +0.000 A 
BRANCH  27  30
ATOM     30  O   UNL     1      -3.562  11.647  23.912  0.00  0.00    +0.000 OA
BRANCH  30  31
ATOM     31  C   UNL     1      -4.167  12.762  24.562  0.00  0.00    +0.000 C 
ATOM     32  F   UNL     1      -3.307  13.751  24.882  0.00  0.00    +0.000 F 
ATOM     33  F   UNL     1      -5.138  13.268  23.776  0.00  0.00    +0.000 F 
ATOM     34  F   UNL     1      -4.738  12.329  25.711  0.00  0.00    +0.000 F 
ENDBRANCH  30  31
ENDBRANCH  27  30
ENDBRANCH   8  24
TORSDOF 4
ENDMDL
