MODEL 1
REMARK VINA RESULT:      -7.3      0.000      0.000
REMARK  Name = 
REMARK  9 active torsions:
REMARK  status: ('A' for Active; 'I' for Inactive)
REMARK    1  A    between atoms: C_1  and  S_2
REMARK    2  A    between atoms: S_2  and  N_5
REMARK    3  A    between atoms: N_5  and  C_6
REMARK    4  A    between atoms: N_5  and  C_23
REMARK    5  A    between atoms: C_6  and  C_7
REMARK    6  A    between atoms: C_7  and  O_8
REMARK    7  A    between atoms: C_7  and  C_9
REMARK    8  A    between atoms: C_9  and  N_10
REMARK    9  A    between atoms: C_23  and  C_24
REMARK                            x       y       z     vdW  Elec       q    Type
REMARK                         _______ _______ _______ _____ _____    ______ ____
ROOT
ATOM      1  C   UNL     1       1.549   8.477  18.295  0.00  0.00    +0.000 C 
ENDROOT
BRANCH   1   2
ATOM      2  O   UNL     1       2.282   9.365  17.421  0.00  0.00    +0.000 OA
ATOM      3  H   UNL     1       3.050   9.727  17.894  0.00  0.00    +0.000 HD
ENDBRANCH   1   2
BRANCH   1   4
ATOM      4  C   UNL     1       0.557   9.383  19.049  0.00  0.00    +0.000 C 
BRANCH   4   5
ATOM      5  N   UNL     1       1.054  10.311  20.108  0.00  0.00    +0.000 NA
BRANCH   5   7
ATOM      6  C   UNL     1      -0.442   8.595  21.742  0.00  0.00    +0.000 C 
ATOM      7  S   UNL     1       0.668  10.000  21.742  0.00  0.00    +0.000 S 
ATOM      8  O   UNL     1      -0.066  11.144  22.243  0.00  0.00    +0.000 OA
ATOM      9  O   UNL     1       1.882   9.579  22.397  0.00  0.00    +0.000 OA
ENDBRANCH   5   7
BRANCH   5  10
ATOM     10  C   UNL     1       0.890  11.768  19.690  0.00  0.00    +0.000 C 
ATOM     11  C   UNL     1       2.090  12.450  19.036  0.00  0.00    +0.000 C 
ATOM     12  C   UNL     1       1.620  12.891  20.381  0.00  0.00    +0.000 C 
BRANCH  10  13
ATOM     13  C   UNL     1      -0.381  12.107  19.082  0.00  0.00    +0.000 C 
ATOM     14  N   UNL     1      -1.416  12.339  18.601  0.00  0.00    +0.000 NA
ENDBRANCH  10  13
ENDBRANCH   5  10
ENDBRANCH   4   5
ENDBRANCH   1   4
BRANCH   1  15
ATOM     15  C   UNL     1       2.514   7.708  19.211  0.00  0.00    +0.000 C 
BRANCH  15  16
ATOM     16  N   UNL     1       2.799   6.352  18.732  0.00  0.00    +0.000 N 
ATOM     17  C   UNL     1       2.269   5.196  19.275  0.00  0.00    +0.000 A 
ATOM     18  C   UNL     1       1.363   4.995  20.330  0.00  0.00    +0.000 A 
ATOM     19  C   UNL     1       1.028   3.688  20.690  0.00  0.00    +0.000 A 
ATOM     20  C   UNL     1       1.570   2.603  20.013  0.00  0.00    +0.000 A 
ATOM     21  C   UNL     1       2.454   2.806  18.948  0.00  0.00    +0.000 A 
ATOM     22  C   UNL     1       2.817   4.119  18.574  0.00  0.00    +0.000 A 
ATOM     23  C   UNL     1       3.696   4.653  17.582  0.00  0.00    +0.000 A 
ATOM     24  C   UNL     1       4.519   4.066  16.596  0.00  0.00    +0.000 A 
ATOM     25  C   UNL     1       5.315   4.876  15.782  0.00  0.00    +0.000 A 
ATOM     26  C   UNL     1       5.304   6.257  15.937  0.00  0.00    +0.000 A 
ATOM     27  C   UNL     1       4.492   6.864  16.900  0.00  0.00    +0.000 A 
ATOM     28  C   UNL     1       3.690   6.045  17.716  0.00  0.00    +0.000 A 
ENDBRANCH  15  16
ENDBRANCH   1  15
TORSDOF 8
ENDMDL
MODEL 2
REMARK VINA RESULT:      -7.3      0.249      3.091
REMARK  Name = 
REMARK  9 active torsions:
REMARK  status: ('A' for Active; 'I' for Inactive)
REMARK    1  A    between atoms: C_1  and  S_2
REMARK    2  A    between atoms: S_2  and  N_5
REMARK    3  A    between atoms: N_5  and  C_6
REMARK    4  A    between atoms: N_5  and  C_23
REMARK    5  A    between atoms: C_6  and  C_7
REMARK    6  A    between atoms: C_7  and  O_8
REMARK    7  A    between atoms: C_7  and  C_9
REMARK    8  A    between atoms: C_9  and  N_10
REMARK    9  A    between atoms: C_23  and  C_24
REMARK                            x       y       z     vdW  Elec       q    Type
REMARK                         _______ _______ _______ _____ _____    ______ ____
ROOT
ATOM      1  C   UNL     1       1.584   8.460  18.183  0.00  0.00    +0.000 C 
ENDROOT
BRANCH   1   2
ATOM      2  O   UNL     1       2.348   9.356  17.344  0.00  0.00    +0.000 OA
ATOM      3  H   UNL     1       3.228   8.976  17.179  0.00  0.00    +0.000 HD
ENDBRANCH   1   2
BRANCH   1   4
ATOM      4  C   UNL     1       0.524   9.350  18.860  0.00  0.00    +0.000 C 
BRANCH   4   5
ATOM      5  N   UNL     1       0.934  10.317  19.921  0.00  0.00    +0.000 NA
BRANCH   5   7
ATOM      6  C   UNL     1      -0.338   8.440  21.568  0.00  0.00    +0.000 C 
ATOM      7  S   UNL     1       0.423  10.061  21.530  0.00  0.00    +0.000 S 
ATOM      8  O   UNL     1      -0.604  11.039  21.824  0.00  0.00    +0.000 OA
ATOM      9  O   UNL     1       1.607   9.990  22.350  0.00  0.00    +0.000 OA
ENDBRANCH   5   7
BRANCH   5  10
ATOM     10  C   UNL     1       0.796  11.758  19.441  0.00  0.00    +0.000 C 
ATOM     11  C   UNL     1       2.050  12.437  18.892  0.00  0.00    +0.000 C 
ATOM     12  C   UNL     1       1.438  12.913  20.166  0.00  0.00    +0.000 C 
BRANCH  10  13
ATOM     13  C   UNL     1      -0.409  12.058  18.695  0.00  0.00    +0.000 C 
ATOM     14  N   UNL     1      -1.393  12.261  18.106  0.00  0.00    +0.000 NA
ENDBRANCH  10  13
ENDBRANCH   5  10
ENDBRANCH   4   5
ENDBRANCH   1   4
BRANCH   1  15
ATOM     15  C   UNL     1       2.508   7.727  19.168  0.00  0.00    +0.000 C 
BRANCH  15  16
ATOM     16  N   UNL     1       2.844   6.369  18.732  0.00  0.00    +0.000 N 
ATOM     17  C   UNL     1       3.723   6.063  17.709  0.00  0.00    +0.000 A 
ATOM     18  C   UNL     1       4.505   6.884  16.879  0.00  0.00    +0.000 A 
ATOM     19  C   UNL     1       5.287   6.288  15.887  0.00  0.00    +0.000 A 
ATOM     20  C   UNL     1       5.305   4.909  15.728  0.00  0.00    +0.000 A 
ATOM     21  C   UNL     1       4.543   4.092  16.570  0.00  0.00    +0.000 A 
ATOM     22  C   UNL     1       3.735   4.673  17.572  0.00  0.00    +0.000 A 
ATOM     23  C   UNL     1       2.838   4.137  18.548  0.00  0.00    +0.000 A 
ATOM     24  C   UNL     1       2.438   2.825  18.881  0.00  0.00    +0.000 A 
ATOM     25  C   UNL     1       1.485   2.621  19.884  0.00  0.00    +0.000 A 
ATOM     26  C   UNL     1       0.928   3.704  20.555  0.00  0.00    +0.000 A 
ATOM     27  C   UNL     1       1.313   5.013  20.249  0.00  0.00    +0.000 A 
ATOM     28  C   UNL     1       2.274   5.212  19.241  0.00  0.00    +0.000 A 
ENDBRANCH  15  16
ENDBRANCH   1  15
TORSDOF 8
ENDMDL
MODEL 3
REMARK VINA RESULT:      -7.2      1.781      2.332
REMARK  Name = 
REMARK  9 active torsions:
REMARK  status: ('A' for Active; 'I' for Inactive)
REMARK    1  A    between atoms: C_1  and  S_2
REMARK    2  A    between atoms: S_2  and  N_5
REMARK    3  A    between atoms: N_5  and  C_6
REMARK    4  A    between atoms: N_5  and  C_23
REMARK    5  A    between atoms: C_6  and  C_7
REMARK    6  A    between atoms: C_7  and  O_8
REMARK    7  A    between atoms: C_7  and  C_9
REMARK    8  A    between atoms: C_9  and  N_10
REMARK    9  A    between atoms: C_23  and  C_24
REMARK                            x       y       z     vdW  Elec       q    Type
REMARK                         _______ _______ _______ _____ _____    ______ ____
ROOT
ATOM      1  C   UNL     1       1.556   8.493  18.542  0.00  0.00    +0.000 C 
ENDROOT
BRANCH   1   2
ATOM      2  O   UNL     1       2.183   9.112  17.395  0.00  0.00    +0.000 OA
ATOM      3  H   UNL     1       2.212   8.478  16.659  0.00  0.00    +0.000 HD
ENDBRANCH   1   2
BRANCH   1   4
ATOM      4  C   UNL     1       0.932   9.657  19.335  0.00  0.00    +0.000 C 
BRANCH   4   5
ATOM      5  N   UNL     1       0.483  10.888  18.620  0.00  0.00    +0.000 NA
BRANCH   5   7
ATOM      6  C   UNL     1       1.837  12.546  20.429  0.00  0.00    +0.000 C 
ATOM      7  S   UNL     1       1.441  12.299  18.700  0.00  0.00    +0.000 S 
ATOM      8  O   UNL     1       0.618  13.411  18.271  0.00  0.00    +0.000 OA
ATOM      9  O   UNL     1       2.681  12.015  18.020  0.00  0.00    +0.000 OA
ENDBRANCH   5   7
BRANCH   5  10
ATOM     10  C   UNL     1      -1.010  11.130  18.817  0.00  0.00    +0.000 C 
ATOM     11  C   UNL     1      -1.973  10.163  18.132  0.00  0.00    +0.000 C 
ATOM     12  C   UNL     1      -1.906  11.588  17.695  0.00  0.00    +0.000 C 
BRANCH  10  13
ATOM     13  C   UNL     1      -1.412  11.511  20.156  0.00  0.00    +0.000 C 
ATOM     14  N   UNL     1      -1.714  11.853  21.228  0.00  0.00    +0.000 NA
ENDBRANCH  10  13
ENDBRANCH   5  10
ENDBRANCH   4   5
ENDBRANCH   1   4
BRANCH   1  15
ATOM     15  C   UNL     1       2.584   7.673  19.338  0.00  0.00    +0.000 C 
BRANCH  15  16
ATOM     16  N   UNL     1       2.811   6.339  18.773  0.00  0.00    +0.000 N 
ATOM     17  C   UNL     1       2.220   5.176  19.233  0.00  0.00    +0.000 A 
ATOM     18  C   UNL     1       1.290   4.951  20.262  0.00  0.00    +0.000 A 
ATOM     19  C   UNL     1       0.890   3.640  20.532  0.00  0.00    +0.000 A 
ATOM     20  C   UNL     1       1.389   2.577  19.791  0.00  0.00    +0.000 A 
ATOM     21  C   UNL     1       2.297   2.807  18.752  0.00  0.00    +0.000 A 
ATOM     22  C   UNL     1       2.726   4.123  18.469  0.00  0.00    +0.000 A 
ATOM     23  C   UNL     1       3.643   4.678  17.524  0.00  0.00    +0.000 A 
ATOM     24  C   UNL     1       4.451   4.118  16.510  0.00  0.00    +0.000 A 
ATOM     25  C   UNL     1       5.296   4.940  15.760  0.00  0.00    +0.000 A 
ATOM     26  C   UNL     1       5.347   6.307  16.006  0.00  0.00    +0.000 A 
ATOM     27  C   UNL     1       4.551   6.888  16.998  0.00  0.00    +0.000 A 
ATOM     28  C   UNL     1       3.700   6.056  17.749  0.00  0.00    +0.000 A 
ENDBRANCH  15  16
ENDBRANCH   1  15
TORSDOF 8
ENDMDL
MODEL 4
REMARK VINA RESULT:      -7.1      1.792      3.864
REMARK  Name = 
REMARK  9 active torsions:
REMARK  status: ('A' for Active; 'I' for Inactive)
REMARK    1  A    between atoms: C_1  and  S_2
REMARK    2  A    between atoms: S_2  and  N_5
REMARK    3  A    between atoms: N_5  and  C_6
REMARK    4  A    between atoms: N_5  and  C_23
REMARK    5  A    between atoms: C_6  and  C_7
REMARK    6  A    between atoms: C_7  and  O_8
REMARK    7  A    between atoms: C_7  and  C_9
REMARK    8  A    between atoms: C_9  and  N_10
REMARK    9  A    between atoms: C_23  and  C_24
REMARK                            x       y       z     vdW  Elec       q    Type
REMARK                         _______ _______ _______ _____ _____    ______ ____
ROOT
ATOM      1  C   UNL     1       1.587   8.459  18.555  0.00  0.00    +0.000 C 
ENDROOT
BRANCH   1   2
ATOM      2  O   UNL     1       2.134   9.054  17.357  0.00  0.00    +0.000 OA
ATOM      3  H   UNL     1       2.377   8.353  16.728  0.00  0.00    +0.000 HD
ENDBRANCH   1   2
BRANCH   1   4
ATOM      4  C   UNL     1       0.963   9.630  19.337  0.00  0.00    +0.000 C 
BRANCH   4   5
ATOM      5  N   UNL     1       0.517  10.856  18.610  0.00  0.00    +0.000 NA
BRANCH   5   7
ATOM      6  C   UNL     1       1.887  12.526  20.395  0.00  0.00    +0.000 C 
ATOM      7  S   UNL     1       1.481  12.263  18.671  0.00  0.00    +0.000 S 
ATOM      8  O   UNL     1       0.660  13.375  18.235  0.00  0.00    +0.000 OA
ATOM      9  O   UNL     1       2.716  11.967  17.987  0.00  0.00    +0.000 OA
ENDBRANCH   5   7
BRANCH   5  10
ATOM     10  C   UNL     1      -0.974  11.106  18.811  0.00  0.00    +0.000 C 
ATOM     11  C   UNL     1      -1.944  10.132  18.146  0.00  0.00    +0.000 C 
ATOM     12  C   UNL     1      -1.874  11.549  17.685  0.00  0.00    +0.000 C 
BRANCH  10  13
ATOM     13  C   UNL     1      -1.368  11.510  20.145  0.00  0.00    +0.000 C 
ATOM     14  N   UNL     1      -1.706  11.867  21.201  0.00  0.00    +0.000 NA
ENDBRANCH  10  13
ENDBRANCH   5  10
ENDBRANCH   4   5
ENDBRANCH   1   4
BRANCH   1  15
ATOM     15  C   UNL     1       2.679   7.702  19.327  0.00  0.00    +0.000 C 
BRANCH  15  16
ATOM     16  N   UNL     1       2.923   6.356  18.799  0.00  0.00    +0.000 N 
ATOM     17  C   UNL     1       3.771   6.063  17.747  0.00  0.00    +0.000 A 
ATOM     18  C   UNL     1       4.597   6.886  16.963  0.00  0.00    +0.000 A 
ATOM     19  C   UNL     1       5.331   6.308  15.924  0.00  0.00    +0.000 A 
ATOM     20  C   UNL     1       5.258   4.944  15.675  0.00  0.00    +0.000 A 
ATOM     21  C   UNL     1       4.453   4.124  16.471  0.00  0.00    +0.000 A 
ATOM     22  C   UNL     1       3.692   4.688  17.520  0.00  0.00    +0.000 A 
ATOM     23  C   UNL     1       2.771   4.147  18.470  0.00  0.00    +0.000 A 
ATOM     24  C   UNL     1       2.290   2.844  18.722  0.00  0.00    +0.000 A 
ATOM     25  C   UNL     1       1.335   2.636  19.722  0.00  0.00    +0.000 A 
ATOM     26  C   UNL     1       0.855   3.705  20.469  0.00  0.00    +0.000 A 
ATOM     27  C   UNL     1       1.321   5.004  20.245  0.00  0.00    +0.000 A 
ATOM     28  C   UNL     1       2.284   5.208  19.239  0.00  0.00    +0.000 A 
ENDBRANCH  15  16
ENDBRANCH   1  15
TORSDOF 8
ENDMDL
MODEL 5
REMARK VINA RESULT:      -6.9      1.327      3.183
REMARK  Name = 
REMARK  9 active torsions:
REMARK  status: ('A' for Active; 'I' for Inactive)
REMARK    1  A    between atoms: C_1  and  S_2
REMARK    2  A    between atoms: S_2  and  N_5
REMARK    3  A    between atoms: N_5  and  C_6
REMARK    4  A    between atoms: N_5  and  C_23
REMARK    5  A    between atoms: C_6  and  C_7
REMARK    6  A    between atoms: C_7  and  O_8
REMARK    7  A    between atoms: C_7  and  C_9
REMARK    8  A    between atoms: C_9  and  N_10
REMARK    9  A    between atoms: C_23  and  C_24
REMARK                            x       y       z     vdW  Elec       q    Type
REMARK                         _______ _______ _______ _____ _____    ______ ____
ROOT
ATOM      1  C   UNL     1       2.349   8.003  19.125  0.00  0.00    +0.000 C 
ENDROOT
BRANCH   1   2
ATOM      2  O   UNL     1       2.254   7.127  20.271  0.00  0.00    +0.000 OA
ATOM      3  H   UNL     1       1.902   7.621  21.031  0.00  0.00    +0.000 HD
ENDBRANCH   1   2
BRANCH   1   4
ATOM      4  C   UNL     1       1.163   8.976  19.265  0.00  0.00    +0.000 C 
BRANCH   4   5
ATOM      5  N   UNL     1       1.245  10.116  20.226  0.00  0.00    +0.000 NA
BRANCH   5   7
ATOM      6  C   UNL     1      -0.566   8.646  21.779  0.00  0.00    +0.000 C 
ATOM      7  S   UNL     1       0.717   9.894  21.835  0.00  0.00    +0.000 S 
ATOM      8  O   UNL     1       0.109  11.135  22.271  0.00  0.00    +0.000 OA
ATOM      9  O   UNL     1       1.820   9.332  22.576  0.00  0.00    +0.000 OA
ENDBRANCH   5   7
BRANCH   5  10
ATOM     10  C   UNL     1       0.776  11.417  19.585  0.00  0.00    +0.000 C 
ATOM     11  C   UNL     1       1.774  12.163  18.701  0.00  0.00    +0.000 C 
ATOM     12  C   UNL     1       1.328  12.760  19.993  0.00  0.00    +0.000 C 
BRANCH  10  13
ATOM     13  C   UNL     1      -0.577  11.409  19.067  0.00  0.00    +0.000 C 
ATOM     14  N   UNL     1      -1.675  11.430  18.680  0.00  0.00    +0.000 NA
ENDBRANCH  10  13
ENDBRANCH   5  10
ENDBRANCH   4   5
ENDBRANCH   1   4
BRANCH   1  15
ATOM     15  C   UNL     1       2.339   7.188  17.823  0.00  0.00    +0.000 C 
BRANCH  15  16
ATOM     16  N   UNL     1       3.209   6.010  17.880  0.00  0.00    +0.000 N 
ATOM     17  C   UNL     1       4.579   6.030  17.685  0.00  0.00    +0.000 A 
ATOM     18  C   UNL     1       5.464   7.090  17.429  0.00  0.00    +0.000 A 
ATOM     19  C   UNL     1       6.818   6.803  17.236  0.00  0.00    +0.000 A 
ATOM     20  C   UNL     1       7.286   5.498  17.309  0.00  0.00    +0.000 A 
ATOM     21  C   UNL     1       6.406   4.447  17.587  0.00  0.00    +0.000 A 
ATOM     22  C   UNL     1       5.030   4.712  17.773  0.00  0.00    +0.000 A 
ATOM     23  C   UNL     1       3.894   3.883  18.031  0.00  0.00    +0.000 A 
ATOM     24  C   UNL     1       3.728   2.493  18.212  0.00  0.00    +0.000 A 
ATOM     25  C   UNL     1       2.449   1.966  18.412  0.00  0.00    +0.000 A 
ATOM     26  C   UNL     1       1.339   2.802  18.434  0.00  0.00    +0.000 A 
ATOM     27  C   UNL     1       1.477   4.183  18.266  0.00  0.00    +0.000 A 
ATOM     28  C   UNL     1       2.768   4.709  18.068  0.00  0.00    +0.000 A 
ENDBRANCH  15  16
ENDBRANCH   1  15
TORSDOF 8
ENDMDL
MODEL 6
REMARK VINA RESULT:      -6.8      1.163      3.316
REMARK  Name = 
REMARK  9 active torsions:
REMARK  status: ('A' for Active; 'I' for Inactive)
REMARK    1  A    between atoms: C_1  and  S_2
REMARK    2  A    between atoms: S_2  and  N_5
REMARK    3  A    between atoms: N_5  and  C_6
REMARK    4  A    between atoms: N_5  and  C_23
REMARK    5  A    between atoms: C_6  and  C_7
REMARK    6  A    between atoms: C_7  and  O_8
REMARK    7  A    between atoms: C_7  and  C_9
REMARK    8  A    between atoms: C_9  and  N_10
REMARK    9  A    between atoms: C_23  and  C_24
REMARK                            x       y       z     vdW  Elec       q    Type
REMARK                         _______ _______ _______ _____ _____    ______ ____
ROOT
ATOM      1  C   UNL     1       1.587   8.557  18.135  0.00  0.00    +0.000 C 
ENDROOT
BRANCH   1   2
ATOM      2  O   UNL     1       2.069   9.706  17.402  0.00  0.00    +0.000 OA
ATOM      3  H   UNL     1       1.639   9.741  16.531  0.00  0.00    +0.000 HD
ENDBRANCH   1   2
BRANCH   1   4
ATOM      4  C   UNL     1       0.413   9.083  18.981  0.00  0.00    +0.000 C 
BRANCH   4   5
ATOM      5  N   UNL     1       0.453  10.473  19.525  0.00  0.00    +0.000 NA
BRANCH   5   7
ATOM      6  C   UNL     1       1.268   9.252  21.912  0.00  0.00    +0.000 C 
ATOM      7  S   UNL     1       0.494  10.709  21.216  0.00  0.00    +0.000 S 
ATOM      8  O   UNL     1      -0.876  10.749  21.686  0.00  0.00    +0.000 OA
ATOM      9  O   UNL     1       1.378  11.819  21.473  0.00  0.00    +0.000 OA
ENDBRANCH   5   7
BRANCH   5  10
ATOM     10  C   UNL     1      -0.521  11.386  18.788  0.00  0.00    +0.000 C 
ATOM     11  C   UNL     1       0.024  12.711  18.260  0.00  0.00    +0.000 C 
ATOM     12  C   UNL     1      -0.982  12.701  19.361  0.00  0.00    +0.000 C 
BRANCH  10  13
ATOM     13  C   UNL     1      -1.437  10.723  17.881  0.00  0.00    +0.000 C 
ATOM     14  N   UNL     1      -2.142  10.164  17.142  0.00  0.00    +0.000 NA
ENDBRANCH  10  13
ENDBRANCH   5  10
ENDBRANCH   4   5
ENDBRANCH   1   4
BRANCH   1  15
ATOM     15  C   UNL     1       2.722   7.930  18.960  0.00  0.00    +0.000 C 
BRANCH  15  16
ATOM     16  N   UNL     1       2.990   6.536  18.597  0.00  0.00    +0.000 N 
ATOM     17  C   UNL     1       3.829   6.134  17.573  0.00  0.00    +0.000 A 
ATOM     18  C   UNL     1       4.624   6.873  16.680  0.00  0.00    +0.000 A 
ATOM     19  C   UNL     1       5.355   6.188  15.706  0.00  0.00    +0.000 A 
ATOM     20  C   UNL     1       5.311   4.802  15.627  0.00  0.00    +0.000 A 
ATOM     21  C   UNL     1       4.538   4.068  16.532  0.00  0.00    +0.000 A 
ATOM     22  C   UNL     1       3.779   4.740  17.517  0.00  0.00    +0.000 A 
ATOM     23  C   UNL     1       2.885   4.300  18.542  0.00  0.00    +0.000 A 
ATOM     24  C   UNL     1       2.439   3.027  18.961  0.00  0.00    +0.000 A 
ATOM     25  C   UNL     1       1.505   2.922  19.995  0.00  0.00    +0.000 A 
ATOM     26  C   UNL     1       1.011   4.064  20.614  0.00  0.00    +0.000 A 
ATOM     27  C   UNL     1       1.442   5.336  20.224  0.00  0.00    +0.000 A 
ATOM     28  C   UNL     1       2.385   5.436  19.184  0.00  0.00    +0.000 A 
ENDBRANCH  15  16
ENDBRANCH   1  15
TORSDOF 8
ENDMDL
MODEL 7
REMARK VINA RESULT:      -6.8      0.797      3.333
REMARK  Name = 
REMARK  9 active torsions:
REMARK  status: ('A' for Active; 'I' for Inactive)
REMARK    1  A    between atoms: C_1  and  S_2
REMARK    2  A    between atoms: S_2  and  N_5
REMARK    3  A    between atoms: N_5  and  C_6
REMARK    4  A    between atoms: N_5  and  C_23
REMARK    5  A    between atoms: C_6  and  C_7
REMARK    6  A    between atoms: C_7  and  O_8
REMARK    7  A    between atoms: C_7  and  C_9
REMARK    8  A    between atoms: C_9  and  N_10
REMARK    9  A    between atoms: C_23  and  C_24
REMARK                            x       y       z     vdW  Elec       q    Type
REMARK                         _______ _______ _______ _____ _____    ______ ____
ROOT
ATOM      1  C   UNL     1       1.496   8.512  18.419  0.00  0.00    +0.000 C 
ENDROOT
BRANCH   1   2
ATOM      2  O   UNL     1       2.193   9.375  17.491  0.00  0.00    +0.000 OA
ATOM      3  H   UNL     1       1.549   9.828  16.921  0.00  0.00    +0.000 HD
ENDBRANCH   1   2
BRANCH   1   4
ATOM      4  C   UNL     1       0.519   9.436  19.170  0.00  0.00    +0.000 C 
BRANCH   4   5
ATOM      5  N   UNL     1       1.017  10.296  20.285  0.00  0.00    +0.000 NA
BRANCH   5   7
ATOM      6  C   UNL     1      -0.466   8.470  21.809  0.00  0.00    +0.000 C 
ATOM      7  S   UNL     1       0.633   9.881  21.896  0.00  0.00    +0.000 S 
ATOM      8  O   UNL     1      -0.110  10.986  22.467  0.00  0.00    +0.000 OA
ATOM      9  O   UNL     1       1.850   9.429  22.525  0.00  0.00    +0.000 OA
ENDBRANCH   5   7
BRANCH   5  10
ATOM     10  C   UNL     1       0.850  11.776  19.960  0.00  0.00    +0.000 C 
ATOM     11  C   UNL     1      -0.575  12.304  19.805  0.00  0.00    +0.000 C 
ATOM     12  C   UNL     1       0.338  12.255  18.626  0.00  0.00    +0.000 C 
BRANCH  10  13
ATOM     13  C   UNL     1       1.737  12.677  20.669  0.00  0.00    +0.000 C 
ATOM     14  N   UNL     1       2.433  13.433  21.216  0.00  0.00    +0.000 NA
ENDBRANCH  10  13
ENDBRANCH   5  10
ENDBRANCH   4   5
ENDBRANCH   1   4
BRANCH   1  15
ATOM     15  C   UNL     1       2.496   7.784  19.331  0.00  0.00    +0.000 C 
BRANCH  15  16
ATOM     16  N   UNL     1       2.829   6.439  18.854  0.00  0.00    +0.000 N 
ATOM     17  C   UNL     1       3.697   6.163  17.812  0.00  0.00    +0.000 A 
ATOM     18  C   UNL     1       4.468   7.009  16.997  0.00  0.00    +0.000 A 
ATOM     19  C   UNL     1       5.240   6.443  15.980  0.00  0.00    +0.000 A 
ATOM     20  C   UNL     1       5.258   5.068  15.783  0.00  0.00    +0.000 A 
ATOM     21  C   UNL     1       4.508   4.227  16.610  0.00  0.00    +0.000 A 
ATOM     22  C   UNL     1       3.709   4.778  17.637  0.00  0.00    +0.000 A 
ATOM     23  C   UNL     1       2.824   4.214  18.607  0.00  0.00    +0.000 A 
ATOM     24  C   UNL     1       2.430   2.892  18.909  0.00  0.00    +0.000 A 
ATOM     25  C   UNL     1       1.490   2.658  19.916  0.00  0.00    +0.000 A 
ATOM     26  C   UNL     1       0.938   3.721  20.623  0.00  0.00    +0.000 A 
ATOM     27  C   UNL     1       1.318   5.039  20.350  0.00  0.00    +0.000 A 
ATOM     28  C   UNL     1       2.267   5.268  19.336  0.00  0.00    +0.000 A 
ENDBRANCH  15  16
ENDBRANCH   1  15
TORSDOF 8
ENDMDL
MODEL 8
REMARK VINA RESULT:      -6.7      1.710      3.395
REMARK  Name = 
REMARK  9 active torsions:
REMARK  status: ('A' for Active; 'I' for Inactive)
REMARK    1  A    between atoms: C_1  and  S_2
REMARK    2  A    between atoms: S_2  and  N_5
REMARK    3  A    between atoms: N_5  and  C_6
REMARK    4  A    between atoms: N_5  and  C_23
REMARK    5  A    between atoms: C_6  and  C_7
REMARK    6  A    between atoms: C_7  and  O_8
REMARK    7  A    between atoms: C_7  and  C_9
REMARK    8  A    between atoms: C_9  and  N_10
REMARK    9  A    between atoms: C_23  and  C_24
REMARK                            x       y       z     vdW  Elec       q    Type
REMARK                         _______ _______ _______ _____ _____    ______ ____
ROOT
ATOM      1  C   UNL     1       2.217   7.709  19.665  0.00  0.00    +0.000 C 
ENDROOT
BRANCH   1   2
ATOM      2  O   UNL     1       2.329   6.639  20.632  0.00  0.00    +0.000 OA
ATOM      3  H   UNL     1       1.868   5.851  20.299  0.00  0.00    +0.000 HD
ENDBRANCH   1   2
BRANCH   1   4
ATOM      4  C   UNL     1       0.951   8.486  20.071  0.00  0.00    +0.000 C 
BRANCH   4   5
ATOM      5  N   UNL     1       0.995   9.975  20.181  0.00  0.00    +0.000 NA
BRANCH   5   7
ATOM      6  C   UNL     1       0.209   9.648  22.851  0.00  0.00    +0.000 C 
ATOM      7  S   UNL     1       0.137  10.747  21.440  0.00  0.00    +0.000 S 
ATOM      8  O   UNL     1      -1.248  10.847  21.027  0.00  0.00    +0.000 OA
ATOM      9  O   UNL     1       0.871  11.937  21.793  0.00  0.00    +0.000 OA
ENDBRANCH   5   7
BRANCH   5  10
ATOM     10  C   UNL     1       0.839  10.636  18.816  0.00  0.00    +0.000 C 
ATOM     11  C   UNL     1       2.112  10.892  18.012  0.00  0.00    +0.000 C 
ATOM     12  C   UNL     1       1.319  12.039  18.543  0.00  0.00    +0.000 C 
BRANCH  10  13
ATOM     13  C   UNL     1      -0.277  10.172  18.018  0.00  0.00    +0.000 C 
ATOM     14  N   UNL     1      -1.201   9.809  17.409  0.00  0.00    +0.000 NA
ENDBRANCH  10  13
ENDBRANCH   5  10
ENDBRANCH   4   5
ENDBRANCH   1   4
BRANCH   1  15
ATOM     15  C   UNL     1       2.172   7.141  18.238  0.00  0.00    +0.000 C 
BRANCH  15  16
ATOM     16  N   UNL     1       3.054   5.985  18.055  0.00  0.00    +0.000 N 
ATOM     17  C   UNL     1       4.391   6.059  17.709  0.00  0.00    +0.000 A 
ATOM     18  C   UNL     1       5.231   7.161  17.479  0.00  0.00    +0.000 A 
ATOM     19  C   UNL     1       6.556   6.931  17.100  0.00  0.00    +0.000 A 
ATOM     20  C   UNL     1       7.041   5.636  16.964  0.00  0.00    +0.000 A 
ATOM     21  C   UNL     1       6.209   4.541  17.216  0.00  0.00    +0.000 A 
ATOM     22  C   UNL     1       4.862   4.750  17.588  0.00  0.00    +0.000 A 
ATOM     23  C   UNL     1       3.772   3.872  17.875  0.00  0.00    +0.000 A 
ATOM     24  C   UNL     1       3.641   2.466  17.908  0.00  0.00    +0.000 A 
ATOM     25  C   UNL     1       2.399   1.890  18.190  0.00  0.00    +0.000 A 
ATOM     26  C   UNL     1       1.291   2.692  18.438  0.00  0.00    +0.000 A 
ATOM     27  C   UNL     1       1.396   4.087  18.420  0.00  0.00    +0.000 A 
ATOM     28  C   UNL     1       2.650   4.662  18.138  0.00  0.00    +0.000 A 
ENDBRANCH  15  16
ENDBRANCH   1  15
TORSDOF 8
ENDMDL
MODEL 9
REMARK VINA RESULT:      -6.7      1.712      1.904
REMARK  Name = 
REMARK  9 active torsions:
REMARK  status: ('A' for Active; 'I' for Inactive)
REMARK    1  A    between atoms: C_1  and  S_2
REMARK    2  A    between atoms: S_2  and  N_5
REMARK    3  A    between atoms: N_5  and  C_6
REMARK    4  A    between atoms: N_5  and  C_23
REMARK    5  A    between atoms: C_6  and  C_7
REMARK    6  A    between atoms: C_7  and  O_8
REMARK    7  A    between atoms: C_7  and  C_9
REMARK    8  A    between atoms: C_9  and  N_10
REMARK    9  A    between atoms: C_23  and  C_24
REMARK                            x       y       z     vdW  Elec       q    Type
REMARK                         _______ _______ _______ _____ _____    ______ ____
ROOT
ATOM      1  C   UNL     1       2.246   7.671  19.624  0.00  0.00    +0.000 C 
ENDROOT
BRANCH   1   2
ATOM      2  O   UNL     1       2.368   6.573  20.556  0.00  0.00    +0.000 OA
ATOM      3  H   UNL     1       1.577   6.009  20.500  0.00  0.00    +0.000 HD
ENDBRANCH   1   2
BRANCH   1   4
ATOM      4  C   UNL     1       0.985   8.437  20.067  0.00  0.00    +0.000 C 
BRANCH   4   5
ATOM      5  N   UNL     1       1.024   9.924  20.195  0.00  0.00    +0.000 NA
BRANCH   5   7
ATOM      6  C   UNL     1       0.324   9.597  22.889  0.00  0.00    +0.000 C 
ATOM      7  S   UNL     1       0.172  10.677  21.469  0.00  0.00    +0.000 S 
ATOM      8  O   UNL     1      -1.226  10.722  21.093  0.00  0.00    +0.000 OA
ATOM      9  O   UNL     1       0.872  11.897  21.791  0.00  0.00    +0.000 OA
ENDBRANCH   5   7
BRANCH   5  10
ATOM     10  C   UNL     1       0.856  10.602  18.839  0.00  0.00    +0.000 C 
ATOM     11  C   UNL     1       2.121  10.858  18.022  0.00  0.00    +0.000 C 
ATOM     12  C   UNL     1       1.342  12.004  18.575  0.00  0.00    +0.000 C 
BRANCH  10  13
ATOM     13  C   UNL     1      -0.273  10.153  18.050  0.00  0.00    +0.000 C 
ATOM     14  N   UNL     1      -1.182   9.831  17.398  0.00  0.00    +0.000 NA
ENDBRANCH  10  13
ENDBRANCH   5  10
ENDBRANCH   4   5
ENDBRANCH   1   4
BRANCH   1  15
ATOM     15  C   UNL     1       2.185   7.147  18.180  0.00  0.00    +0.000 C 
BRANCH  15  16
ATOM     16  N   UNL     1       3.057   5.991  17.955  0.00  0.00    +0.000 N 
ATOM     17  C   UNL     1       2.662   4.671  18.067  0.00  0.00    +0.000 A 
ATOM     18  C   UNL     1       1.416   4.097  18.372  0.00  0.00    +0.000 A 
ATOM     19  C   UNL     1       1.318   2.706  18.453  0.00  0.00    +0.000 A 
ATOM     20  C   UNL     1       2.426   1.900  18.224  0.00  0.00    +0.000 A 
ATOM     21  C   UNL     1       3.659   2.473  17.898  0.00  0.00    +0.000 A 
ATOM     22  C   UNL     1       3.785   3.878  17.823  0.00  0.00    +0.000 A 
ATOM     23  C   UNL     1       4.881   4.756  17.554  0.00  0.00    +0.000 A 
ATOM     24  C   UNL     1       6.243   4.543  17.248  0.00  0.00    +0.000 A 
ATOM     25  C   UNL     1       7.097   5.636  17.075  0.00  0.00    +0.000 A 
ATOM     26  C   UNL     1       6.613   6.933  17.203  0.00  0.00    +0.000 A 
ATOM     27  C   UNL     1       5.267   7.171  17.497  0.00  0.00    +0.000 A 
ATOM     28  C   UNL     1       4.411   6.067  17.668  0.00  0.00    +0.000 A 
ENDBRANCH  15  16
ENDBRANCH   1  15
TORSDOF 8
ENDMDL
