MODEL 1
REMARK VINA RESULT:      -7.7      0.000      0.000
REMARK  Name = 
REMARK  5 active torsions:
REMARK  status: ('A' for Active; 'I' for Inactive)
REMARK    1  A    between atoms: N_6  and  C_7
REMARK    2  A    between atoms: C_10  and  C_11
REMARK    3  A    between atoms: C_11  and  N_12
REMARK    4  A    between atoms: N_12  and  S_13
REMARK    5  A    between atoms: S_13  and  C_16
REMARK                            x       y       z     vdW  Elec       q    Type
REMARK                         _______ _______ _______ _____ _____    ______ ____
ROOT
ATOM      1  C   UNL     1       2.914   5.617  19.905  0.00  0.00    +0.000 C 
ENDROOT
BRANCH   1   5
ATOM      2  C   UNL     1       1.136   9.527  19.149  0.00  0.00    +0.000 A 
ATOM      3  C   UNL     1       1.057   8.927  20.410  0.00  0.00    +0.000 A 
ATOM      4  C   UNL     1       1.630   7.673  20.663  0.00  0.00    +0.000 A 
ATOM      5  C   UNL     1       2.300   6.975  19.655  0.00  0.00    +0.000 A 
ATOM      6  C   UNL     1       2.430   7.591  18.405  0.00  0.00    +0.000 A 
ATOM      7  C   UNL     1       1.848   8.842  18.154  0.00  0.00    +0.000 A 
BRANCH   2  13
ATOM      8  O   UNL     1       2.318  12.278  18.676  0.00  0.00    +0.000 OA
ATOM      9  C   UNL     1       1.127  12.013  18.731  0.00  0.00    +0.000 C 
ATOM     10  C   UNL     1       0.060  13.079  18.706  0.00  0.00    +0.000 C 
ATOM     11  C   UNL     1      -1.204  12.310  18.381  0.00  0.00    +0.000 C 
ATOM     12  C   UNL     1      -0.941  10.929  18.948  0.00  0.00    +0.000 C 
ATOM     13  N   UNL     1       0.492  10.768  18.872  0.00  0.00    +0.000 N 
ENDBRANCH   2  13
ENDBRANCH   1   5
BRANCH   1  14
ATOM     14  N   UNL     1       3.579   5.072  18.717  0.00  0.00    +0.000 NA
ATOM     15  H   UNL     1       3.452   5.587  17.845  0.00  0.00    +0.000 HD
BRANCH  14  16
ATOM     16  S   UNL     1       5.155   4.527  18.894  0.00  0.00    +0.000 S 
ATOM     17  O   UNL     1       5.871   5.566  19.596  0.00  0.00    +0.000 OA
ATOM     18  O   UNL     1       5.104   3.166  19.385  0.00  0.00    +0.000 OA
BRANCH  16  19
ATOM     19  C   UNL     1       5.756   4.510  17.223  0.00  0.00    +0.000 A 
ATOM     20  C   UNL     1       4.898   4.120  16.190  0.00  0.00    +0.000 A 
ATOM     21  C   UNL     1       5.361   4.131  14.871  0.00  0.00    +0.000 A 
ATOM     22  C   UNL     1       6.669   4.534  14.598  0.00  0.00    +0.000 A 
ATOM     23 CL   UNL     1       7.238   4.542  12.974  0.00  0.00    +0.000 Cl
ATOM     24  C   UNL     1       7.519   4.936  15.629  0.00  0.00    +0.000 A 
ATOM     25  C   UNL     1       7.063   4.926  16.949  0.00  0.00    +0.000 A 
ENDBRANCH  16  19
ENDBRANCH  14  16
ENDBRANCH   1  14
TORSDOF 5
ENDMDL
MODEL 2
REMARK VINA RESULT:      -7.7      1.148      1.681
REMARK  Name = 
REMARK  5 active torsions:
REMARK  status: ('A' for Active; 'I' for Inactive)
REMARK    1  A    between atoms: N_6  and  C_7
REMARK    2  A    between atoms: C_10  and  C_11
REMARK    3  A    between atoms: C_11  and  N_12
REMARK    4  A    between atoms: N_12  and  S_13
REMARK    5  A    between atoms: S_13  and  C_16
REMARK                            x       y       z     vdW  Elec       q    Type
REMARK                         _______ _______ _______ _____ _____    ______ ____
ROOT
ATOM      1  C   UNL     1       3.295   5.801  19.296  0.00  0.00    +0.000 C 
ENDROOT
BRANCH   1   5
ATOM      2  C   UNL     1       1.028   9.517  19.025  0.00  0.00    +0.000 A 
ATOM      3  C   UNL     1       1.135   8.820  20.233  0.00  0.00    +0.000 A 
ATOM      4  C   UNL     1       1.865   7.627  20.331  0.00  0.00    +0.000 A 
ATOM      5  C   UNL     1       2.512   7.091  19.214  0.00  0.00    +0.000 A 
ATOM      6  C   UNL     1       2.456   7.809  18.014  0.00  0.00    +0.000 A 
ATOM      7  C   UNL     1       1.717   8.997  17.920  0.00  0.00    +0.000 A 
BRANCH   2  13
ATOM      8  O   UNL     1      -1.700   9.903  17.760  0.00  0.00    +0.000 OA
ATOM      9  C   UNL     1      -1.005  10.785  18.243  0.00  0.00    +0.000 C 
ATOM     10  C   UNL     1      -1.370  12.246  18.145  0.00  0.00    +0.000 C 
ATOM     11  C   UNL     1      -0.496  12.901  19.194  0.00  0.00    +0.000 C 
ATOM     12  C   UNL     1       0.720  12.001  19.264  0.00  0.00    +0.000 C 
ATOM     13  N   UNL     1       0.228  10.690  18.909  0.00  0.00    +0.000 N 
ENDBRANCH   2  13
ENDBRANCH   1   5
BRANCH   1  14
ATOM     14  N   UNL     1       4.742   6.012  19.187  0.00  0.00    +0.000 NA
ATOM     15  H   UNL     1       5.151   6.706  19.812  0.00  0.00    +0.000 HD
BRANCH  14  16
ATOM     16  S   UNL     1       5.713   4.653  19.044  0.00  0.00    +0.000 S 
ATOM     17  O   UNL     1       6.992   5.002  19.616  0.00  0.00    +0.000 OA
ATOM     18  O   UNL     1       4.954   3.510  19.506  0.00  0.00    +0.000 OA
BRANCH  16  19
ATOM     19  C   UNL     1       5.942   4.516  17.288  0.00  0.00    +0.000 A 
ATOM     20  C   UNL     1       7.171   4.874  16.726  0.00  0.00    +0.000 A 
ATOM     21  C   UNL     1       7.362   4.742  15.348  0.00  0.00    +0.000 A 
ATOM     22  C   UNL     1       6.329   4.251  14.548  0.00  0.00    +0.000 A 
ATOM     23 CL   UNL     1       6.565   4.094  12.851  0.00  0.00    +0.000 Cl
ATOM     24  C   UNL     1       5.107   3.882  15.113  0.00  0.00    +0.000 A 
ATOM     25  C   UNL     1       4.910   4.012  16.489  0.00  0.00    +0.000 A 
ENDBRANCH  16  19
ENDBRANCH  14  16
ENDBRANCH   1  14
TORSDOF 5
ENDMDL
MODEL 3
REMARK VINA RESULT:      -7.7      0.610      1.229
REMARK  Name = 
REMARK  5 active torsions:
REMARK  status: ('A' for Active; 'I' for Inactive)
REMARK    1  A    between atoms: N_6  and  C_7
REMARK    2  A    between atoms: C_10  and  C_11
REMARK    3  A    between atoms: C_11  and  N_12
REMARK    4  A    between atoms: N_12  and  S_13
REMARK    5  A    between atoms: S_13  and  C_16
REMARK                            x       y       z     vdW  Elec       q    Type
REMARK                         _______ _______ _______ _____ _____    ______ ____
ROOT
ATOM      1  C   UNL     1       2.919   5.699  20.006  0.00  0.00    +0.000 C 
ENDROOT
BRANCH   1   5
ATOM      2  C   UNL     1       1.090   9.556  19.107  0.00  0.00    +0.000 A 
ATOM      3  C   UNL     1       1.028   9.006  20.392  0.00  0.00    +0.000 A 
ATOM      4  C   UNL     1       1.617   7.769  20.691  0.00  0.00    +0.000 A 
ATOM      5  C   UNL     1       2.287   7.039  19.706  0.00  0.00    +0.000 A 
ATOM      6  C   UNL     1       2.402   7.606  18.432  0.00  0.00    +0.000 A 
ATOM      7  C   UNL     1       1.803   8.839  18.136  0.00  0.00    +0.000 A 
BRANCH   2  13
ATOM      8  O   UNL     1       2.216  12.347  18.744  0.00  0.00    +0.000 OA
ATOM      9  C   UNL     1       1.033  12.042  18.702  0.00  0.00    +0.000 C 
ATOM     10  C   UNL     1      -0.063  13.075  18.597  0.00  0.00    +0.000 C 
ATOM     11  C   UNL     1      -1.270  12.267  18.169  0.00  0.00    +0.000 C 
ATOM     12  C   UNL     1      -1.009  10.892  18.748  0.00  0.00    +0.000 C 
ATOM     13  N   UNL     1       0.431  10.777  18.786  0.00  0.00    +0.000 N 
ENDBRANCH   2  13
ENDBRANCH   1   5
BRANCH   1  14
ATOM     14  N   UNL     1       4.180   5.498  19.285  0.00  0.00    +0.000 NA
ATOM     15  H   UNL     1       5.015   5.913  19.698  0.00  0.00    +0.000 HD
BRANCH  14  16
ATOM     16  S   UNL     1       4.484   3.967  18.673  0.00  0.00    +0.000 S 
ATOM     17  O   UNL     1       5.405   3.335  19.588  0.00  0.00    +0.000 OA
ATOM     18  O   UNL     1       3.215   3.363  18.326  0.00  0.00    +0.000 OA
BRANCH  16  19
ATOM     19  C   UNL     1       5.380   4.312  17.179  0.00  0.00    +0.000 A 
ATOM     20  C   UNL     1       6.725   4.687  17.256  0.00  0.00    +0.000 A 
ATOM     21  C   UNL     1       7.439   4.934  16.080  0.00  0.00    +0.000 A 
ATOM     22  C   UNL     1       6.807   4.799  14.843  0.00  0.00    +0.000 A 
ATOM     23 CL   UNL     1       7.687   5.108  13.397  0.00  0.00    +0.000 Cl
ATOM     24  C   UNL     1       5.468   4.412  14.767  0.00  0.00    +0.000 A 
ATOM     25  C   UNL     1       4.749   4.165  15.939  0.00  0.00    +0.000 A 
ENDBRANCH  16  19
ENDBRANCH  14  16
ENDBRANCH   1  14
TORSDOF 5
ENDMDL
MODEL 4
REMARK VINA RESULT:      -7.7      2.165      2.815
REMARK  Name = 
REMARK  5 active torsions:
REMARK  status: ('A' for Active; 'I' for Inactive)
REMARK    1  A    between atoms: N_6  and  C_7
REMARK    2  A    between atoms: C_10  and  C_11
REMARK    3  A    between atoms: C_11  and  N_12
REMARK    4  A    between atoms: N_12  and  S_13
REMARK    5  A    between atoms: S_13  and  C_16
REMARK                            x       y       z     vdW  Elec       q    Type
REMARK                         _______ _______ _______ _____ _____    ______ ____
ROOT
ATOM      1  C   UNL     1       3.017   5.422  19.831  0.00  0.00    +0.000 C 
ENDROOT
BRANCH   1   5
ATOM      2  C   UNL     1       1.235   9.347  19.168  0.00  0.00    +0.000 A 
ATOM      3  C   UNL     1       1.832   8.636  18.121  0.00  0.00    +0.000 A 
ATOM      4  C   UNL     1       2.403   7.372  18.324  0.00  0.00    +0.000 A 
ATOM      5  C   UNL     1       2.397   6.779  19.590  0.00  0.00    +0.000 A 
ATOM      6  C   UNL     1       1.755   7.458  20.631  0.00  0.00    +0.000 A 
ATOM      7  C   UNL     1       1.193   8.727  20.424  0.00  0.00    +0.000 A 
BRANCH   2  13
ATOM      8  O   UNL     1      -1.615  10.282  18.726  0.00  0.00    +0.000 OA
ATOM      9  C   UNL     1      -0.620  10.992  18.713  0.00  0.00    +0.000 C 
ATOM     10  C   UNL     1      -0.673  12.450  18.327  0.00  0.00    +0.000 C 
ATOM     11  C   UNL     1       0.642  13.000  18.839  0.00  0.00    +0.000 C 
ATOM     12  C   UNL     1       1.577  11.809  18.788  0.00  0.00    +0.000 C 
ATOM     13  N   UNL     1       0.719  10.661  18.977  0.00  0.00    +0.000 N 
ENDBRANCH   2  13
ENDBRANCH   1   5
BRANCH   1  14
ATOM     14  N   UNL     1       3.145   4.634  18.601  0.00  0.00    +0.000 NA
ATOM     15  H   UNL     1       2.740   5.036  17.756  0.00  0.00    +0.000 HD
BRANCH  14  16
ATOM     16  S   UNL     1       4.627   3.911  18.297  0.00  0.00    +0.000 S 
ATOM     17  O   UNL     1       4.993   3.205  19.502  0.00  0.00    +0.000 OA
ATOM     18  O   UNL     1       4.544   3.244  17.015  0.00  0.00    +0.000 OA
BRANCH  16  19
ATOM     19  C   UNL     1       5.721   5.302  18.148  0.00  0.00    +0.000 A 
ATOM     20  C   UNL     1       6.880   5.349  18.929  0.00  0.00    +0.000 A 
ATOM     21  C   UNL     1       7.756   6.430  18.794  0.00  0.00    +0.000 A 
ATOM     22  C   UNL     1       7.469   7.447  17.883  0.00  0.00    +0.000 A 
ATOM     23 CL   UNL     1       8.546   8.779  17.723  0.00  0.00    +0.000 Cl
ATOM     24  C   UNL     1       6.318   7.392  17.096  0.00  0.00    +0.000 A 
ATOM     25  C   UNL     1       5.438   6.314  17.226  0.00  0.00    +0.000 A 
ENDBRANCH  16  19
ENDBRANCH  14  16
ENDBRANCH   1  14
TORSDOF 5
ENDMDL
MODEL 5
REMARK VINA RESULT:      -7.6      0.948      1.241
REMARK  Name = 
REMARK  5 active torsions:
REMARK  status: ('A' for Active; 'I' for Inactive)
REMARK    1  A    between atoms: N_6  and  C_7
REMARK    2  A    between atoms: C_10  and  C_11
REMARK    3  A    between atoms: C_11  and  N_12
REMARK    4  A    between atoms: N_12  and  S_13
REMARK    5  A    between atoms: S_13  and  C_16
REMARK                            x       y       z     vdW  Elec       q    Type
REMARK                         _______ _______ _______ _____ _____    ______ ____
ROOT
ATOM      1  C   UNL     1       2.762   5.696  19.866  0.00  0.00    +0.000 C 
ENDROOT
BRANCH   1   5
ATOM      2  C   UNL     1       1.104   9.671  19.177  0.00  0.00    +0.000 A 
ATOM      3  C   UNL     1       1.005   9.052  20.427  0.00  0.00    +0.000 A 
ATOM      4  C   UNL     1       1.539   7.777  20.659  0.00  0.00    +0.000 A 
ATOM      5  C   UNL     1       2.189   7.076  19.639  0.00  0.00    +0.000 A 
ATOM      6  C   UNL     1       2.341   7.710  18.401  0.00  0.00    +0.000 A 
ATOM      7  C   UNL     1       1.797   8.983  18.171  0.00  0.00    +0.000 A 
BRANCH   2  13
ATOM      8  O   UNL     1      -1.785  10.371  18.582  0.00  0.00    +0.000 OA
ATOM      9  C   UNL     1      -0.847  11.154  18.589  0.00  0.00    +0.000 C 
ATOM     10  C   UNL     1      -0.993  12.592  18.154  0.00  0.00    +0.000 C 
ATOM     11  C   UNL     1       0.251  13.257  18.704  0.00  0.00    +0.000 C 
ATOM     12  C   UNL     1       1.275  12.140  18.733  0.00  0.00    +0.000 C 
ATOM     13  N   UNL     1       0.499  10.936  18.921  0.00  0.00    +0.000 N 
ENDBRANCH   2  13
ENDBRANCH   1   5
BRANCH   1  14
ATOM     14  N   UNL     1       3.430   5.161  18.676  0.00  0.00    +0.000 NA
ATOM     15  H   UNL     1       3.382   5.729  17.830  0.00  0.00    +0.000 HD
BRANCH  14  16
ATOM     16  S   UNL     1       4.948   4.479  18.882  0.00  0.00    +0.000 S 
ATOM     17  O   UNL     1       5.711   5.411  19.679  0.00  0.00    +0.000 OA
ATOM     18  O   UNL     1       4.768   3.099  19.281  0.00  0.00    +0.000 OA
BRANCH  16  19
ATOM     19  C   UNL     1       5.622   4.516  17.239  0.00  0.00    +0.000 A 
ATOM     20  C   UNL     1       4.794   4.224  16.151  0.00  0.00    +0.000 A 
ATOM     21  C   UNL     1       5.316   4.278  14.856  0.00  0.00    +0.000 A 
ATOM     22  C   UNL     1       6.653   4.625  14.660  0.00  0.00    +0.000 A 
ATOM     23 CL   UNL     1       7.295   4.687  13.064  0.00  0.00    +0.000 Cl
ATOM     24  C   UNL     1       7.475   4.930  15.746  0.00  0.00    +0.000 A 
ATOM     25  C   UNL     1       6.959   4.877  17.044  0.00  0.00    +0.000 A 
ENDBRANCH  16  19
ENDBRANCH  14  16
ENDBRANCH   1  14
TORSDOF 5
ENDMDL
MODEL 6
REMARK VINA RESULT:      -7.6      2.113      2.610
REMARK  Name = 
REMARK  5 active torsions:
REMARK  status: ('A' for Active; 'I' for Inactive)
REMARK    1  A    between atoms: N_6  and  C_7
REMARK    2  A    between atoms: C_10  and  C_11
REMARK    3  A    between atoms: C_11  and  N_12
REMARK    4  A    between atoms: N_12  and  S_13
REMARK    5  A    between atoms: S_13  and  C_16
REMARK                            x       y       z     vdW  Elec       q    Type
REMARK                         _______ _______ _______ _____ _____    ______ ____
ROOT
ATOM      1  C   UNL     1       2.715   5.559  20.019  0.00  0.00    +0.000 C 
ENDROOT
BRANCH   1   5
ATOM      2  C   UNL     1       1.193   9.566  19.208  0.00  0.00    +0.000 A 
ATOM      3  C   UNL     1       1.796   8.802  18.203  0.00  0.00    +0.000 A 
ATOM      4  C   UNL     1       2.283   7.512  18.453  0.00  0.00    +0.000 A 
ATOM      5  C   UNL     1       2.185   6.944  19.726  0.00  0.00    +0.000 A 
ATOM      6  C   UNL     1       1.536   7.679  20.725  0.00  0.00    +0.000 A 
ATOM      7  C   UNL     1       1.057   8.973  20.471  0.00  0.00    +0.000 A 
BRANCH   2  13
ATOM      8  O   UNL     1      -1.597  10.675  18.790  0.00  0.00    +0.000 OA
ATOM      9  C   UNL     1      -0.557  11.313  18.724  0.00  0.00    +0.000 C 
ATOM     10  C   UNL     1      -0.521  12.754  18.276  0.00  0.00    +0.000 C 
ATOM     11  C   UNL     1       0.841  13.234  18.734  0.00  0.00    +0.000 C 
ATOM     12  C   UNL     1       1.691  11.980  18.714  0.00  0.00    +0.000 C 
ATOM     13  N   UNL     1       0.763  10.903  18.972  0.00  0.00    +0.000 N 
ENDBRANCH   2  13
ENDBRANCH   1   5
BRANCH   1  14
ATOM     14  N   UNL     1       2.623   4.665  18.861  0.00  0.00    +0.000 NA
ATOM     15  H   UNL     1       2.153   5.034  18.034  0.00  0.00    +0.000 HD
BRANCH  14  16
ATOM     16  S   UNL     1       3.990   3.781  18.457  0.00  0.00    +0.000 S 
ATOM     17  O   UNL     1       4.383   3.068  19.649  0.00  0.00    +0.000 OA
ATOM     18  O   UNL     1       3.727   3.097  17.208  0.00  0.00    +0.000 OA
BRANCH  16  19
ATOM     19  C   UNL     1       5.206   5.043  18.174  0.00  0.00    +0.000 A 
ATOM     20  C   UNL     1       5.000   5.977  17.153  0.00  0.00    +0.000 A 
ATOM     21  C   UNL     1       5.943   6.987  16.945  0.00  0.00    +0.000 A 
ATOM     22  C   UNL     1       7.076   7.058  17.757  0.00  0.00    +0.000 A 
ATOM     23 CL   UNL     1       8.238   8.300  17.496  0.00  0.00    +0.000 Cl
ATOM     24  C   UNL     1       7.273   6.133  18.784  0.00  0.00    +0.000 A 
ATOM     25  C   UNL     1       6.335   5.120  18.996  0.00  0.00    +0.000 A 
ENDBRANCH  16  19
ENDBRANCH  14  16
ENDBRANCH   1  14
TORSDOF 5
ENDMDL
MODEL 7
REMARK VINA RESULT:      -7.5      2.136      2.760
REMARK  Name = 
REMARK  5 active torsions:
REMARK  status: ('A' for Active; 'I' for Inactive)
REMARK    1  A    between atoms: N_6  and  C_7
REMARK    2  A    between atoms: C_10  and  C_11
REMARK    3  A    between atoms: C_11  and  N_12
REMARK    4  A    between atoms: N_12  and  S_13
REMARK    5  A    between atoms: S_13  and  C_16
REMARK                            x       y       z     vdW  Elec       q    Type
REMARK                         _______ _______ _______ _____ _____    ______ ____
ROOT
ATOM      1  C   UNL     1       2.458   5.709  20.124  0.00  0.00    +0.000 C 
ENDROOT
BRANCH   1   5
ATOM      2  C   UNL     1       1.105   9.765  19.259  0.00  0.00    +0.000 A 
ATOM      3  C   UNL     1       1.719   8.980  18.277  0.00  0.00    +0.000 A 
ATOM      4  C   UNL     1       2.153   7.675  18.544  0.00  0.00    +0.000 A 
ATOM      5  C   UNL     1       1.988   7.111  19.812  0.00  0.00    +0.000 A 
ATOM      6  C   UNL     1       1.325   7.867  20.786  0.00  0.00    +0.000 A 
ATOM      7  C   UNL     1       0.901   9.177  20.515  0.00  0.00    +0.000 A 
BRANCH   2  13
ATOM      8  O   UNL     1      -1.644  11.000  18.933  0.00  0.00    +0.000 OA
ATOM      9  C   UNL     1      -0.579  11.584  18.806  0.00  0.00    +0.000 C 
ATOM     10  C   UNL     1      -0.493  13.011  18.321  0.00  0.00    +0.000 C 
ATOM     11  C   UNL     1       0.909  13.434  18.708  0.00  0.00    +0.000 C 
ATOM     12  C   UNL     1       1.696  12.140  18.683  0.00  0.00    +0.000 C 
ATOM     13  N   UNL     1       0.729  11.116  19.008  0.00  0.00    +0.000 N 
ENDBRANCH   2  13
ENDBRANCH   1   5
BRANCH   1  14
ATOM     14  N   UNL     1       1.899   4.711  19.207  0.00  0.00    +0.000 NA
ATOM     15  H   UNL     1       1.128   5.016  18.613  0.00  0.00    +0.000 HD
BRANCH  14  16
ATOM     16  S   UNL     1       2.980   3.738  18.373  0.00  0.00    +0.000 S 
ATOM     17  O   UNL     1       3.412   2.718  19.299  0.00  0.00    +0.000 OA
ATOM     18  O   UNL     1       2.389   3.409  17.092  0.00  0.00    +0.000 OA
BRANCH  16  19
ATOM     19  C   UNL     1       4.360   4.823  18.103  0.00  0.00    +0.000 A 
ATOM     20  C   UNL     1       5.419   4.826  19.016  0.00  0.00    +0.000 A 
ATOM     21  C   UNL     1       6.518   5.661  18.793  0.00  0.00    +0.000 A 
ATOM     22  C   UNL     1       6.550   6.477  17.661  0.00  0.00    +0.000 A 
ATOM     23 CL   UNL     1       7.902   7.506  17.390  0.00  0.00    +0.000 Cl
ATOM     24  C   UNL     1       5.499   6.463  16.744  0.00  0.00    +0.000 A 
ATOM     25  C   UNL     1       4.397   5.632  16.962  0.00  0.00    +0.000 A 
ENDBRANCH  16  19
ENDBRANCH  14  16
ENDBRANCH   1  14
TORSDOF 5
ENDMDL
MODEL 8
REMARK VINA RESULT:      -7.5      1.270      1.425
REMARK  Name = 
REMARK  5 active torsions:
REMARK  status: ('A' for Active; 'I' for Inactive)
REMARK    1  A    between atoms: N_6  and  C_7
REMARK    2  A    between atoms: C_10  and  C_11
REMARK    3  A    between atoms: C_11  and  N_12
REMARK    4  A    between atoms: N_12  and  S_13
REMARK    5  A    between atoms: S_13  and  C_16
REMARK                            x       y       z     vdW  Elec       q    Type
REMARK                         _______ _______ _______ _____ _____    ______ ____
ROOT
ATOM      1  C   UNL     1       3.764   6.334  17.922  0.00  0.00    +0.000 C 
ENDROOT
BRANCH   1   5
ATOM      2  C   UNL     1       1.049   9.455  19.305  0.00  0.00    +0.000 A 
ATOM      3  C   UNL     1       1.380   8.368  20.121  0.00  0.00    +0.000 A 
ATOM      4  C   UNL     1       2.255   7.363  19.687  0.00  0.00    +0.000 A 
ATOM      5  C   UNL     1       2.827   7.414  18.413  0.00  0.00    +0.000 A 
ATOM      6  C   UNL     1       2.545   8.524  17.610  0.00  0.00    +0.000 A 
ATOM      7  C   UNL     1       1.662   9.523  18.046  0.00  0.00    +0.000 A 
BRANCH   2  13
ATOM      8  O   UNL     1       1.140  11.392  21.636  0.00  0.00    +0.000 OA
ATOM      9  C   UNL     1       0.207  11.251  20.860  0.00  0.00    +0.000 C 
ATOM     10  C   UNL     1      -1.117  11.950  21.054  0.00  0.00    +0.000 C 
ATOM     11  C   UNL     1      -1.786  11.824  19.701  0.00  0.00    +0.000 C 
ATOM     12  C   UNL     1      -1.210  10.543  19.132  0.00  0.00    +0.000 C 
ATOM     13  N   UNL     1       0.105  10.439  19.719  0.00  0.00    +0.000 N 
ENDBRANCH   2  13
ENDBRANCH   1   5
BRANCH   1  14
ATOM     14  N   UNL     1       3.377   4.999  18.387  0.00  0.00    +0.000 NA
ATOM     15  H   UNL     1       2.473   4.648  18.072  0.00  0.00    +0.000 HD
BRANCH  14  16
ATOM     16  S   UNL     1       4.551   3.802  18.363  0.00  0.00    +0.000 S 
ATOM     17  O   UNL     1       5.428   4.066  19.479  0.00  0.00    +0.000 OA
ATOM     18  O   UNL     1       3.886   2.526  18.197  0.00  0.00    +0.000 OA
BRANCH  16  19
ATOM     19  C   UNL     1       5.459   4.171  16.882  0.00  0.00    +0.000 A 
ATOM     20  C   UNL     1       4.826   4.049  15.641  0.00  0.00    +0.000 A 
ATOM     21  C   UNL     1       5.530   4.364  14.475  0.00  0.00    +0.000 A 
ATOM     22  C   UNL     1       6.853   4.800  14.560  0.00  0.00    +0.000 A 
ATOM     23 CL   UNL     1       7.719   5.183  13.123  0.00  0.00    +0.000 Cl
ATOM     24  C   UNL     1       7.479   4.934  15.800  0.00  0.00    +0.000 A 
ATOM     25  C   UNL     1       6.780   4.620  16.969  0.00  0.00    +0.000 A 
ENDBRANCH  16  19
ENDBRANCH  14  16
ENDBRANCH   1  14
TORSDOF 5
ENDMDL
MODEL 9
REMARK VINA RESULT:      -7.5      3.923      8.584
REMARK  Name = 
REMARK  5 active torsions:
REMARK  status: ('A' for Active; 'I' for Inactive)
REMARK    1  A    between atoms: N_6  and  C_7
REMARK    2  A    between atoms: C_10  and  C_11
REMARK    3  A    between atoms: C_11  and  N_12
REMARK    4  A    between atoms: N_12  and  S_13
REMARK    5  A    between atoms: S_13  and  C_16
REMARK                            x       y       z     vdW  Elec       q    Type
REMARK                         _______ _______ _______ _____ _____    ______ ____
ROOT
ATOM      1  C   UNL     1       0.787  10.051  20.637  0.00  0.00    +0.000 C 
ENDROOT
BRANCH   1   5
ATOM      2  C   UNL     1       2.559   6.644  18.570  0.00  0.00    +0.000 A 
ATOM      3  C   UNL     1       2.331   7.856  17.907  0.00  0.00    +0.000 A 
ATOM      4  C   UNL     1       1.766   8.957  18.565  0.00  0.00    +0.000 A 
ATOM      5  C   UNL     1       1.407   8.879  19.913  0.00  0.00    +0.000 A 
ATOM      6  C   UNL     1       1.682   7.690  20.598  0.00  0.00    +0.000 A 
ATOM      7  C   UNL     1       2.239   6.588  19.933  0.00  0.00    +0.000 A 
BRANCH   2  13
ATOM      8  O   UNL     1       1.150   4.110  17.686  0.00  0.00    +0.000 OA
ATOM      9  C   UNL     1       2.345   4.340  17.573  0.00  0.00    +0.000 C 
ATOM     10  C   UNL     1       3.325   3.300  17.085  0.00  0.00    +0.000 C 
ATOM     11  C   UNL     1       4.549   4.112  16.718  0.00  0.00    +0.000 C 
ATOM     12  C   UNL     1       4.478   5.312  17.640  0.00  0.00    +0.000 C 
ATOM     13  N   UNL     1       3.067   5.504  17.884  0.00  0.00    +0.000 N 
ENDBRANCH   2  13
ENDBRANCH   1   5
BRANCH   1  14
ATOM     14  N   UNL     1      -0.657  10.158  20.403  0.00  0.00    +0.000 NA
ATOM     15  H   UNL     1      -1.267   9.759  21.115  0.00  0.00    +0.000 HD
BRANCH  14  16
ATOM     16  S   UNL     1      -1.241  11.623  19.833  0.00  0.00    +0.000 S 
ATOM     17  O   UNL     1      -2.276  12.036  20.751  0.00  0.00    +0.000 OA
ATOM     18  O   UNL     1      -0.106  12.469  19.528  0.00  0.00    +0.000 OA
BRANCH  16  19
ATOM     19  C   UNL     1      -2.036  11.165  18.313  0.00  0.00    +0.000 A 
ATOM     20  C   UNL     1      -1.450  10.192  17.498  0.00  0.00    +0.000 A 
ATOM     21  C   UNL     1      -2.088   9.811  16.314  0.00  0.00    +0.000 A 
ATOM     22  C   UNL     1      -3.302  10.400  15.959  0.00  0.00    +0.000 A 
ATOM     23 CL   UNL     1      -4.083   9.932  14.499  0.00  0.00    +0.000 Cl
ATOM     24  C   UNL     1      -3.893  11.361  16.781  0.00  0.00    +0.000 A 
ATOM     25  C   UNL     1      -3.260  11.747  17.965  0.00  0.00    +0.000 A 
ENDBRANCH  16  19
ENDBRANCH  14  16
ENDBRANCH   1  14
TORSDOF 5
ENDMDL
