MODEL 1
REMARK VINA RESULT:      -7.2      0.000      0.000
REMARK  Name = 
REMARK  5 active torsions:
REMARK  status: ('A' for Active; 'I' for Inactive)
REMARK    1  A    between atoms: C_1  and  C_2
REMARK    2  A    between atoms: C_2  and  O_3
REMARK    3  A    between atoms: O_3  and  C_4
REMARK    4  A    between atoms: C_4  and  C_6
REMARK    5  A    between atoms: C_7  and  O_8
REMARK                            x       y       z     vdW  Elec       q    Type
REMARK                         _______ _______ _______ _____ _____    ______ ____
ROOT
ATOM      1  C   UNL     1       3.769   3.793  18.522  0.00  0.00    +0.000 A 
ATOM      2  C   UNL     1       4.816   3.305  19.222  0.00  0.00    +0.000 A 
ATOM      3  O   UNL     1       5.996   4.011  19.420  0.00  0.00    +0.000 OA
ATOM      4  C   UNL     1       6.204   5.159  18.707  0.00  0.00    +0.000 A 
ATOM      5  C   UNL     1       7.483   5.712  18.725  0.00  0.00    +0.000 A 
ATOM      6  C   UNL     1       7.739   6.893  18.022  0.00  0.00    +0.000 A 
ATOM      7  C   UNL     1       6.718   7.523  17.310  0.00  0.00    +0.000 A 
ATOM      8  C   UNL     1       5.437   6.971  17.295  0.00  0.00    +0.000 A 
ATOM      9  C   UNL     1       5.191   5.785  17.993  0.00  0.00    +0.000 A 
ATOM     10  C   UNL     1       3.862   5.169  17.986  0.00  0.00    +0.000 A 
ATOM     11  O   UNL     1       2.902   5.795  17.553  0.00  0.00    +0.000 OA
ENDROOT
BRANCH   1  12
ATOM     12  C   UNL     1       2.625   2.905  18.225  0.00  0.00    +0.000 C 
ATOM     13  O   UNL     1       2.091   2.852  17.121  0.00  0.00    +0.000 OA
BRANCH  12  14
ATOM     14  O   UNL     1       2.158   2.345  19.359  0.00  0.00    +0.000 OA
BRANCH  14  16
ATOM     15  C   UNL     1       1.617   2.940  21.601  0.00  0.00    +0.000 C 
ATOM     16  C   UNL     1       1.243   3.121  20.142  0.00  0.00    +0.000 C 
ENDBRANCH  14  16
ENDBRANCH  12  14
ENDBRANCH   1  12
BRANCH   2  17
ATOM     17  O   UNL     1       4.818   2.039  19.793  0.00  0.00    +0.000 OA
ATOM     18  H   UNL     1       4.833   2.115  20.773  0.00  0.00    +0.000 HD
ENDBRANCH   2  17
TORSDOF 4
ENDMDL
MODEL 2
REMARK VINA RESULT:      -7.1      1.777      5.044
REMARK  Name = 
REMARK  5 active torsions:
REMARK  status: ('A' for Active; 'I' for Inactive)
REMARK    1  A    between atoms: C_1  and  C_2
REMARK    2  A    between atoms: C_2  and  O_3
REMARK    3  A    between atoms: O_3  and  C_4
REMARK    4  A    between atoms: C_4  and  C_6
REMARK    5  A    between atoms: C_7  and  O_8
REMARK                            x       y       z     vdW  Elec       q    Type
REMARK                         _______ _______ _______ _____ _____    ______ ____
ROOT
ATOM      1  C   UNL     1       4.330   5.275  17.119  0.00  0.00    +0.000 A 
ATOM      2  C   UNL     1       4.629   3.964  16.992  0.00  0.00    +0.000 A 
ATOM      3  O   UNL     1       3.938   2.957  17.655  0.00  0.00    +0.000 OA
ATOM      4  C   UNL     1       3.055   3.303  18.642  0.00  0.00    +0.000 A 
ATOM      5  C   UNL     1       2.566   2.288  19.461  0.00  0.00    +0.000 A 
ATOM      6  C   UNL     1       1.652   2.591  20.473  0.00  0.00    +0.000 A 
ATOM      7  C   UNL     1       1.221   3.906  20.661  0.00  0.00    +0.000 A 
ATOM      8  C   UNL     1       1.709   4.921  19.838  0.00  0.00    +0.000 A 
ATOM      9  C   UNL     1       2.630   4.610  18.834  0.00  0.00    +0.000 A 
ATOM     10  C   UNL     1       3.174   5.655  17.962  0.00  0.00    +0.000 A 
ATOM     11  O   UNL     1       2.669   6.771  17.958  0.00  0.00    +0.000 OA
ENDROOT
BRANCH   1  12
ATOM     12  C   UNL     1       5.225   6.279  16.508  0.00  0.00    +0.000 C 
ATOM     13  O   UNL     1       5.402   6.366  15.296  0.00  0.00    +0.000 OA
BRANCH  12  14
ATOM     14  O   UNL     1       5.936   6.918  17.459  0.00  0.00    +0.000 OA
BRANCH  14  16
ATOM     15  C   UNL     1       7.673   5.926  18.753  0.00  0.00    +0.000 C 
ATOM     16  C   UNL     1       7.350   6.689  17.481  0.00  0.00    +0.000 C 
ENDBRANCH  14  16
ENDBRANCH  12  14
ENDBRANCH   1  12
BRANCH   2  17
ATOM     17  O   UNL     1       5.672   3.500  16.202  0.00  0.00    +0.000 OA
ATOM     18  H   UNL     1       6.149   4.260  15.800  0.00  0.00    +0.000 HD
ENDBRANCH   2  17
TORSDOF 4
ENDMDL
MODEL 3
REMARK VINA RESULT:      -7.1      2.200      5.244
REMARK  Name = 
REMARK  5 active torsions:
REMARK  status: ('A' for Active; 'I' for Inactive)
REMARK    1  A    between atoms: C_1  and  C_2
REMARK    2  A    between atoms: C_2  and  O_3
REMARK    3  A    between atoms: O_3  and  C_4
REMARK    4  A    between atoms: C_4  and  C_6
REMARK    5  A    between atoms: C_7  and  O_8
REMARK                            x       y       z     vdW  Elec       q    Type
REMARK                         _______ _______ _______ _____ _____    ______ ____
ROOT
ATOM      1  C   UNL     1       4.481   3.969  17.506  0.00  0.00    +0.000 A 
ATOM      2  C   UNL     1       5.267   3.749  18.583  0.00  0.00    +0.000 A 
ATOM      3  O   UNL     1       4.788   3.241  19.784  0.00  0.00    +0.000 OA
ATOM      4  C   UNL     1       3.435   3.153  19.970  0.00  0.00    +0.000 A 
ATOM      5  C   UNL     1       2.972   2.885  21.256  0.00  0.00    +0.000 A 
ATOM      6  C   UNL     1       1.599   2.772  21.492  0.00  0.00    +0.000 A 
ATOM      7  C   UNL     1       0.692   2.919  20.441  0.00  0.00    +0.000 A 
ATOM      8  C   UNL     1       1.156   3.184  19.153  0.00  0.00    +0.000 A 
ATOM      9  C   UNL     1       2.531   3.304  18.928  0.00  0.00    +0.000 A 
ATOM     10  C   UNL     1       3.052   3.597  17.591  0.00  0.00    +0.000 A 
ATOM     11  O   UNL     1       2.311   3.525  16.617  0.00  0.00    +0.000 OA
ENDROOT
BRANCH   1  12
ATOM     12  C   UNL     1       5.048   4.666  16.333  0.00  0.00    +0.000 C 
ATOM     13  O   UNL     1       4.804   5.840  16.072  0.00  0.00    +0.000 OA
BRANCH  12  14
ATOM     14  O   UNL     1       5.680   3.790  15.525  0.00  0.00    +0.000 OA
BRANCH  14  16
ATOM     15  C   UNL     1       6.149   3.720  13.191  0.00  0.00    +0.000 C 
ATOM     16  C   UNL     1       6.545   4.335  14.521  0.00  0.00    +0.000 C 
ENDBRANCH  14  16
ENDBRANCH  12  14
ENDBRANCH   1  12
BRANCH   2  17
ATOM     17  O   UNL     1       6.626   4.033  18.597  0.00  0.00    +0.000 OA
ATOM     18  H   UNL     1       6.832   4.638  19.343  0.00  0.00    +0.000 HD
ENDBRANCH   2  17
TORSDOF 4
ENDMDL
MODEL 4
REMARK VINA RESULT:      -7.0      1.901      5.674
REMARK  Name = 
REMARK  5 active torsions:
REMARK  status: ('A' for Active; 'I' for Inactive)
REMARK    1  A    between atoms: C_1  and  C_2
REMARK    2  A    between atoms: C_2  and  O_3
REMARK    3  A    between atoms: O_3  and  C_4
REMARK    4  A    between atoms: C_4  and  C_6
REMARK    5  A    between atoms: C_7  and  O_8
REMARK                            x       y       z     vdW  Elec       q    Type
REMARK                         _______ _______ _______ _____ _____    ______ ____
ROOT
ATOM      1  C   UNL     1       5.865   5.498  17.353  0.00  0.00    +0.000 A 
ATOM      2  C   UNL     1       4.877   6.065  16.626  0.00  0.00    +0.000 A 
ATOM      3  O   UNL     1       3.531   5.946  16.947  0.00  0.00    +0.000 OA
ATOM      4  C   UNL     1       3.160   5.050  17.911  0.00  0.00    +0.000 A 
ATOM      5  C   UNL     1       1.803   4.761  18.042  0.00  0.00    +0.000 A 
ATOM      6  C   UNL     1       1.375   3.862  19.023  0.00  0.00    +0.000 A 
ATOM      7  C   UNL     1       2.301   3.259  19.876  0.00  0.00    +0.000 A 
ATOM      8  C   UNL     1       3.659   3.552  19.746  0.00  0.00    +0.000 A 
ATOM      9  C   UNL     1       4.079   4.445  18.757  0.00  0.00    +0.000 A 
ATOM     10  C   UNL     1       5.499   4.763  18.584  0.00  0.00    +0.000 A 
ATOM     11  O   UNL     1       6.309   4.422  19.436  0.00  0.00    +0.000 OA
ENDROOT
BRANCH   1  12
ATOM     12  C   UNL     1       7.250   5.540  16.840  0.00  0.00    +0.000 C 
ATOM     13  O   UNL     1       7.918   4.531  16.639  0.00  0.00    +0.000 OA
BRANCH  12  14
ATOM     14  O   UNL     1       7.708   6.809  16.825  0.00  0.00    +0.000 OA
BRANCH  14  16
ATOM     15  C   UNL     1       8.074   8.923  17.859  0.00  0.00    +0.000 C 
ATOM     16  C   UNL     1       7.958   7.428  18.093  0.00  0.00    +0.000 C 
ENDBRANCH  14  16
ENDBRANCH  12  14
ENDBRANCH   1  12
BRANCH   2  17
ATOM     17  O   UNL     1       5.116   6.802  15.473  0.00  0.00    +0.000 OA
ATOM     18  H   UNL     1       5.714   7.555  15.677  0.00  0.00    +0.000 HD
ENDBRANCH   2  17
TORSDOF 4
ENDMDL
MODEL 5
REMARK VINA RESULT:      -7.0      1.955      5.521
REMARK  Name = 
REMARK  5 active torsions:
REMARK  status: ('A' for Active; 'I' for Inactive)
REMARK    1  A    between atoms: C_1  and  C_2
REMARK    2  A    between atoms: C_2  and  O_3
REMARK    3  A    between atoms: O_3  and  C_4
REMARK    4  A    between atoms: C_4  and  C_6
REMARK    5  A    between atoms: C_7  and  O_8
REMARK                            x       y       z     vdW  Elec       q    Type
REMARK                         _______ _______ _______ _____ _____    ______ ____
ROOT
ATOM      1  C   UNL     1       5.864   4.548  17.464  0.00  0.00    +0.000 A 
ATOM      2  C   UNL     1       5.187   4.082  16.392  0.00  0.00    +0.000 A 
ATOM      3  O   UNL     1       3.903   3.556  16.471  0.00  0.00    +0.000 OA
ATOM      4  C   UNL     1       3.372   3.298  17.705  0.00  0.00    +0.000 A 
ATOM      5  C   UNL     1       2.201   2.544  17.763  0.00  0.00    +0.000 A 
ATOM      6  C   UNL     1       1.614   2.267  19.001  0.00  0.00    +0.000 A 
ATOM      7  C   UNL     1       2.191   2.750  20.177  0.00  0.00    +0.000 A 
ATOM      8  C   UNL     1       3.361   3.507  20.117  0.00  0.00    +0.000 A 
ATOM      9  C   UNL     1       3.947   3.772  18.876  0.00  0.00    +0.000 A 
ATOM     10  C   UNL     1       5.184   4.551  18.778  0.00  0.00    +0.000 A 
ATOM     11  O   UNL     1       5.600   5.161  19.756  0.00  0.00    +0.000 OA
ENDROOT
BRANCH   1  12
ATOM     12  C   UNL     1       7.282   4.932  17.307  0.00  0.00    +0.000 C 
ATOM     13  O   UNL     1       8.197   4.358  17.890  0.00  0.00    +0.000 OA
BRANCH  12  14
ATOM     14  O   UNL     1       7.383   6.087  16.617  0.00  0.00    +0.000 OA
BRANCH  14  16
ATOM     15  C   UNL     1       7.940   8.139  17.690  0.00  0.00    +0.000 C 
ATOM     16  C   UNL     1       6.804   7.255  17.210  0.00  0.00    +0.000 C 
ENDBRANCH  14  16
ENDBRANCH  12  14
ENDBRANCH   1  12
BRANCH   2  17
ATOM     17  O   UNL     1       5.721   4.064  15.110  0.00  0.00    +0.000 OA
ATOM     18  H   UNL     1       5.454   3.239  14.649  0.00  0.00    +0.000 HD
ENDBRANCH   2  17
TORSDOF 4
ENDMDL
MODEL 6
REMARK VINA RESULT:      -6.8      1.870      5.122
REMARK  Name = 
REMARK  5 active torsions:
REMARK  status: ('A' for Active; 'I' for Inactive)
REMARK    1  A    between atoms: C_1  and  C_2
REMARK    2  A    between atoms: C_2  and  O_3
REMARK    3  A    between atoms: O_3  and  C_4
REMARK    4  A    between atoms: C_4  and  C_6
REMARK    5  A    between atoms: C_7  and  O_8
REMARK                            x       y       z     vdW  Elec       q    Type
REMARK                         _______ _______ _______ _____ _____    ______ ____
ROOT
ATOM      1  C   UNL     1       5.926   4.589  17.889  0.00  0.00    +0.000 A 
ATOM      2  C   UNL     1       5.937   4.828  19.219  0.00  0.00    +0.000 A 
ATOM      3  O   UNL     1       4.838   4.613  20.041  0.00  0.00    +0.000 OA
ATOM      4  C   UNL     1       3.626   4.350  19.464  0.00  0.00    +0.000 A 
ATOM      5  C   UNL     1       2.497   4.388  20.280  0.00  0.00    +0.000 A 
ATOM      6  C   UNL     1       1.238   4.113  19.738  0.00  0.00    +0.000 A 
ATOM      7  C   UNL     1       1.110   3.792  18.386  0.00  0.00    +0.000 A 
ATOM      8  C   UNL     1       2.241   3.751  17.571  0.00  0.00    +0.000 A 
ATOM      9  C   UNL     1       3.495   4.037  18.119  0.00  0.00    +0.000 A 
ATOM     10  C   UNL     1       4.701   4.017  17.288  0.00  0.00    +0.000 A 
ATOM     11  O   UNL     1       4.658   3.541  16.159  0.00  0.00    +0.000 OA
ENDROOT
BRANCH   1  12
ATOM     12  C   UNL     1       7.086   5.006  17.074  0.00  0.00    +0.000 C 
ATOM     13  O   UNL     1       8.193   4.483  17.171  0.00  0.00    +0.000 OA
BRANCH  12  14
ATOM     14  O   UNL     1       6.800   6.132  16.389  0.00  0.00    +0.000 OA
BRANCH  14  16
ATOM     15  C   UNL     1       7.792   7.933  17.591  0.00  0.00    +0.000 C 
ATOM     16  C   UNL     1       6.483   7.300  17.156  0.00  0.00    +0.000 C 
ENDBRANCH  14  16
ENDBRANCH  12  14
ENDBRANCH   1  12
BRANCH   2  17
ATOM     17  O   UNL     1       7.046   5.334  19.886  0.00  0.00    +0.000 OA
ATOM     18  H   UNL     1       7.689   5.695  19.237  0.00  0.00    +0.000 HD
ENDBRANCH   2  17
TORSDOF 4
ENDMDL
MODEL 7
REMARK VINA RESULT:      -6.8      1.528      5.185
REMARK  Name = 
REMARK  5 active torsions:
REMARK  status: ('A' for Active; 'I' for Inactive)
REMARK    1  A    between atoms: C_1  and  C_2
REMARK    2  A    between atoms: C_2  and  O_3
REMARK    3  A    between atoms: O_3  and  C_4
REMARK    4  A    between atoms: C_4  and  C_6
REMARK    5  A    between atoms: C_7  and  O_8
REMARK                            x       y       z     vdW  Elec       q    Type
REMARK                         _______ _______ _______ _____ _____    ______ ____
ROOT
ATOM      1  C   UNL     1       4.745   5.250  17.997  0.00  0.00    +0.000 A 
ATOM      2  C   UNL     1       5.490   4.234  18.484  0.00  0.00    +0.000 A 
ATOM      3  O   UNL     1       4.981   3.246  19.317  0.00  0.00    +0.000 OA
ATOM      4  C   UNL     1       3.730   3.411  19.847  0.00  0.00    +0.000 A 
ATOM      5  C   UNL     1       3.339   2.549  20.869  0.00  0.00    +0.000 A 
ATOM      6  C   UNL     1       2.065   2.671  21.431  0.00  0.00    +0.000 A 
ATOM      7  C   UNL     1       1.182   3.647  20.966  0.00  0.00    +0.000 A 
ATOM      8  C   UNL     1       1.573   4.507  19.941  0.00  0.00    +0.000 A 
ATOM      9  C   UNL     1       2.853   4.385  19.391  0.00  0.00    +0.000 A 
ATOM     10  C   UNL     1       3.301   5.282  18.323  0.00  0.00    +0.000 A 
ATOM     11  O   UNL     1       2.493   6.004  17.751  0.00  0.00    +0.000 OA
ENDROOT
BRANCH   1  12
ATOM     12  C   UNL     1       5.412   6.342  17.257  0.00  0.00    +0.000 C 
ATOM     13  O   UNL     1       5.218   6.555  16.064  0.00  0.00    +0.000 OA
BRANCH  12  14
ATOM     14  O   UNL     1       6.373   6.906  18.016  0.00  0.00    +0.000 OA
BRANCH  14  16
ATOM     15  C   UNL     1       7.934   8.690  17.785  0.00  0.00    +0.000 C 
ATOM     16  C   UNL     1       7.591   7.275  17.359  0.00  0.00    +0.000 C 
ENDBRANCH  14  16
ENDBRANCH  12  14
ENDBRANCH   1  12
BRANCH   2  17
ATOM     17  O   UNL     1       6.845   4.094  18.213  0.00  0.00    +0.000 OA
ATOM     18  H   UNL     1       7.162   4.865  17.693  0.00  0.00    +0.000 HD
ENDBRANCH   2  17
TORSDOF 4
ENDMDL
MODEL 8
REMARK VINA RESULT:      -6.7      2.336      5.613
REMARK  Name = 
REMARK  5 active torsions:
REMARK  status: ('A' for Active; 'I' for Inactive)
REMARK    1  A    between atoms: C_1  and  C_2
REMARK    2  A    between atoms: C_2  and  O_3
REMARK    3  A    between atoms: O_3  and  C_4
REMARK    4  A    between atoms: C_4  and  C_6
REMARK    5  A    between atoms: C_7  and  O_8
REMARK                            x       y       z     vdW  Elec       q    Type
REMARK                         _______ _______ _______ _____ _____    ______ ____
ROOT
ATOM      1  C   UNL     1       5.803   5.684  17.314  0.00  0.00    +0.000 A 
ATOM      2  C   UNL     1       4.731   6.289  16.757  0.00  0.00    +0.000 A 
ATOM      3  O   UNL     1       3.428   6.084  17.193  0.00  0.00    +0.000 OA
ATOM      4  C   UNL     1       3.183   5.073  18.081  0.00  0.00    +0.000 A 
ATOM      5  C   UNL     1       1.855   4.719  18.311  0.00  0.00    +0.000 A 
ATOM      6  C   UNL     1       1.554   3.701  19.220  0.00  0.00    +0.000 A 
ATOM      7  C   UNL     1       2.578   3.044  19.904  0.00  0.00    +0.000 A 
ATOM      8  C   UNL     1       3.907   3.401  19.675  0.00  0.00    +0.000 A 
ATOM      9  C   UNL     1       4.199   4.414  18.757  0.00  0.00    +0.000 A 
ATOM     10  C   UNL     1       5.585   4.803  18.482  0.00  0.00    +0.000 A 
ATOM     11  O   UNL     1       6.487   4.401  19.207  0.00  0.00    +0.000 OA
ENDROOT
BRANCH   1  12
ATOM     12  C   UNL     1       7.127   5.835  16.675  0.00  0.00    +0.000 C 
ATOM     13  O   UNL     1       7.751   6.892  16.673  0.00  0.00    +0.000 OA
BRANCH  12  14
ATOM     14  O   UNL     1       7.430   4.737  15.954  0.00  0.00    +0.000 OA
BRANCH  14  16
ATOM     15  C   UNL     1       6.067   3.926  14.176  0.00  0.00    +0.000 C 
ATOM     16  C   UNL     1       7.244   4.815  14.536  0.00  0.00    +0.000 C 
ENDBRANCH  14  16
ENDBRANCH  12  14
ENDBRANCH   1  12
BRANCH   2  17
ATOM     17  O   UNL     1       4.831   7.158  15.678  0.00  0.00    +0.000 OA
ATOM     18  H   UNL     1       4.731   6.659  14.838  0.00  0.00    +0.000 HD
ENDBRANCH   2  17
TORSDOF 4
ENDMDL
MODEL 9
REMARK VINA RESULT:      -6.7      1.900      5.607
REMARK  Name = 
REMARK  5 active torsions:
REMARK  status: ('A' for Active; 'I' for Inactive)
REMARK    1  A    between atoms: C_1  and  C_2
REMARK    2  A    between atoms: C_2  and  O_3
REMARK    3  A    between atoms: O_3  and  C_4
REMARK    4  A    between atoms: C_4  and  C_6
REMARK    5  A    between atoms: C_7  and  O_8
REMARK                            x       y       z     vdW  Elec       q    Type
REMARK                         _______ _______ _______ _____ _____    ______ ____
ROOT
ATOM      1  C   UNL     1       4.491   5.883  17.929  0.00  0.00    +0.000 A 
ATOM      2  C   UNL     1       3.419   6.664  18.188  0.00  0.00    +0.000 A 
ATOM      3  O   UNL     1       2.474   6.362  19.160  0.00  0.00    +0.000 OA
ATOM      4  C   UNL     1       2.498   5.123  19.740  0.00  0.00    +0.000 A 
ATOM      5  C   UNL     1       1.403   4.748  20.516  0.00  0.00    +0.000 A 
ATOM      6  C   UNL     1       1.389   3.497  21.140  0.00  0.00    +0.000 A 
ATOM      7  C   UNL     1       2.471   2.627  20.994  0.00  0.00    +0.000 A 
ATOM      8  C   UNL     1       3.567   3.004  20.219  0.00  0.00    +0.000 A 
ATOM      9  C   UNL     1       3.569   4.254  19.591  0.00  0.00    +0.000 A 
ATOM     10  C   UNL     1       4.698   4.675  18.758  0.00  0.00    +0.000 A 
ATOM     11  O   UNL     1       5.743   4.036  18.776  0.00  0.00    +0.000 OA
ENDROOT
BRANCH   1  12
ATOM     12  C   UNL     1       5.348   6.201  16.768  0.00  0.00    +0.000 C 
ATOM     13  O   UNL     1       5.479   5.446  15.809  0.00  0.00    +0.000 OA
BRANCH  12  14
ATOM     14  O   UNL     1       6.085   7.303  17.014  0.00  0.00    +0.000 OA
BRANCH  14  16
ATOM     15  C   UNL     1       8.006   8.467  17.806  0.00  0.00    +0.000 C 
ATOM     16  C   UNL     1       7.422   7.103  17.486  0.00  0.00    +0.000 C 
ENDBRANCH  14  16
ENDBRANCH  12  14
ENDBRANCH   1  12
BRANCH   2  17
ATOM     17  O   UNL     1       3.151   7.835  17.491  0.00  0.00    +0.000 OA
ATOM     18  H   UNL     1       3.853   8.498  17.672  0.00  0.00    +0.000 HD
ENDBRANCH   2  17
TORSDOF 4
ENDMDL
