MODEL 1
REMARK VINA RESULT:      -6.7      0.000      0.000
REMARK  Name = 
REMARK  9 active torsions:
REMARK  status: ('A' for Active; 'I' for Inactive)
REMARK    1  A    between atoms: C_1  and  O_2
REMARK    2  A    between atoms: O_2  and  C_3
REMARK    3  A    between atoms: C_3  and  C_4
REMARK    4  A    between atoms: C_4  and  C_5
REMARK    5  A    between atoms: C_5  and  C_6
REMARK    6  A    between atoms: N_8  and  C_9
REMARK    7  A    between atoms: C_9  and  C_10
REMARK    8  A    between atoms: C_10  and  C_11
REMARK    9  A    between atoms: N_15  and  C_16
REMARK                            x       y       z     vdW  Elec       q    Type
REMARK                         _______ _______ _______ _____ _____    ______ ____
ROOT
ATOM      1  C   UNL     1       5.226   5.773  18.487  0.00  0.00    +0.000 C 
ATOM      2  O   UNL     1       5.063   5.438  19.670  0.00  0.00    +0.000 OA
ATOM      3  N   UNL     1       4.139   6.210  17.738  0.00  0.00    +0.000 N 
ATOM      4  H   UNL     1       4.242   6.303  16.730  0.00  0.00    +0.000 HD
ENDROOT
BRANCH   1   5
ATOM      5  C   UNL     1       6.616   5.678  17.751  0.00  0.00    +0.000 C 
ATOM      6  C   UNL     1       7.827   5.460  18.738  0.00  0.00    +0.000 C 
ATOM      7  C   UNL     1       8.102   6.967  18.678  0.00  0.00    +0.000 C 
ATOM      8  C   UNL     1       7.341   7.006  17.343  0.00  0.00    +0.000 C 
BRANCH   5   9
ATOM      9  C   UNL     1       6.628   4.560  16.685  0.00  0.00    +0.000 C 
BRANCH   9  10
ATOM     10  C   UNL     1       7.452   4.919  15.454  0.00  0.00    +0.000 C 
BRANCH  10  12
ATOM     11  C   UNL     1       5.416   4.368  14.404  0.00  0.00    +0.000 C 
ATOM     12  O   UNL     1       6.569   5.201  14.373  0.00  0.00    +0.000 OA
ENDBRANCH  10  12
ENDBRANCH   9  10
ENDBRANCH   5   9
ENDBRANCH   1   5
BRANCH   3  13
ATOM     13  C   UNL     1       2.816   6.146  18.342  0.00  0.00    +0.000 C 
BRANCH  13  14
ATOM     14  C   UNL     1       1.898   5.031  17.851  0.00  0.00    +0.000 C 
BRANCH  14  15
ATOM     15  C   UNL     1       2.477   3.675  18.041  0.00  0.00    +0.000 A 
ATOM     16  N   UNL     1       3.285   3.075  17.187  0.00  0.00    +0.000 NA
ATOM     17  N   UNL     1       3.620   1.843  17.699  0.00  0.00    +0.000 NA
ATOM     18  C   UNL     1       3.016   1.716  18.856  0.00  0.00    +0.000 A 
ATOM     19  N   UNL     1       2.273   2.829  19.105  0.00  0.00    +0.000 N 
BRANCH  19  20
ATOM     20  C   UNL     1       1.448   3.054  20.273  0.00  0.00    +0.000 C 
ATOM     21  C   UNL     1       1.862   2.587  21.664  0.00  0.00    +0.000 C 
ATOM     22  C   UNL     1       1.870   4.042  21.350  0.00  0.00    +0.000 C 
ENDBRANCH  19  20
ENDBRANCH  14  15
ENDBRANCH  13  14
ENDBRANCH   3  13
TORSDOF 8
ENDMDL
MODEL 2
REMARK VINA RESULT:      -6.4      1.142      2.183
REMARK  Name = 
REMARK  9 active torsions:
REMARK  status: ('A' for Active; 'I' for Inactive)
REMARK    1  A    between atoms: C_1  and  O_2
REMARK    2  A    between atoms: O_2  and  C_3
REMARK    3  A    between atoms: C_3  and  C_4
REMARK    4  A    between atoms: C_4  and  C_5
REMARK    5  A    between atoms: C_5  and  C_6
REMARK    6  A    between atoms: N_8  and  C_9
REMARK    7  A    between atoms: C_9  and  C_10
REMARK    8  A    between atoms: C_10  and  C_11
REMARK    9  A    between atoms: N_15  and  C_16
REMARK                            x       y       z     vdW  Elec       q    Type
REMARK                         _______ _______ _______ _____ _____    ______ ____
ROOT
ATOM      1  C   UNL     1       5.252   5.837  18.575  0.00  0.00    +0.000 C 
ATOM      2  O   UNL     1       5.051   5.373  19.707  0.00  0.00    +0.000 OA
ATOM      3  N   UNL     1       4.216   6.463  17.892  0.00  0.00    +0.000 N 
ATOM      4  H   UNL     1       4.334   6.672  16.903  0.00  0.00    +0.000 HD
ENDROOT
BRANCH   1   5
ATOM      5  C   UNL     1       6.633   5.706  17.826  0.00  0.00    +0.000 C 
ATOM      6  C   UNL     1       7.868   5.650  18.807  0.00  0.00    +0.000 C 
ATOM      7  C   UNL     1       8.083   7.149  18.565  0.00  0.00    +0.000 C 
ATOM      8  C   UNL     1       7.299   7.003  17.251  0.00  0.00    +0.000 C 
BRANCH   5   9
ATOM      9  C   UNL     1       6.671   4.472  16.898  0.00  0.00    +0.000 C 
BRANCH   9  10
ATOM     10  C   UNL     1       6.219   4.782  15.475  0.00  0.00    +0.000 C 
BRANCH  10  12
ATOM     11  C   UNL     1       6.206   3.830  13.320  0.00  0.00    +0.000 C 
ATOM     12  O   UNL     1       6.216   3.575  14.719  0.00  0.00    +0.000 OA
ENDBRANCH  10  12
ENDBRANCH   9  10
ENDBRANCH   5   9
ENDBRANCH   1   5
BRANCH   3  13
ATOM     13  C   UNL     1       2.888   6.447  18.490  0.00  0.00    +0.000 C 
BRANCH  13  14
ATOM     14  C   UNL     1       1.992   5.267  18.123  0.00  0.00    +0.000 C 
BRANCH  14  15
ATOM     15  C   UNL     1       1.775   4.330  19.256  0.00  0.00    +0.000 A 
ATOM     16  N   UNL     1       1.323   4.679  20.446  0.00  0.00    +0.000 NA
ATOM     17  N   UNL     1       1.247   3.550  21.229  0.00  0.00    +0.000 NA
ATOM     18  C   UNL     1       1.647   2.535  20.502  0.00  0.00    +0.000 A 
ATOM     19  N   UNL     1       2.007   2.975  19.266  0.00  0.00    +0.000 N 
BRANCH  19  20
ATOM     20  C   UNL     1       2.520   2.154  18.190  0.00  0.00    +0.000 C 
ATOM     21  C   UNL     1       3.887   2.396  17.561  0.00  0.00    +0.000 C 
ATOM     22  C   UNL     1       3.682   1.198  18.421  0.00  0.00    +0.000 C 
ENDBRANCH  19  20
ENDBRANCH  14  15
ENDBRANCH  13  14
ENDBRANCH   3  13
TORSDOF 8
ENDMDL
MODEL 3
REMARK VINA RESULT:      -6.4      1.722      3.582
REMARK  Name = 
REMARK  9 active torsions:
REMARK  status: ('A' for Active; 'I' for Inactive)
REMARK    1  A    between atoms: C_1  and  O_2
REMARK    2  A    between atoms: O_2  and  C_3
REMARK    3  A    between atoms: C_3  and  C_4
REMARK    4  A    between atoms: C_4  and  C_5
REMARK    5  A    between atoms: C_5  and  C_6
REMARK    6  A    between atoms: N_8  and  C_9
REMARK    7  A    between atoms: C_9  and  C_10
REMARK    8  A    between atoms: C_10  and  C_11
REMARK    9  A    between atoms: N_15  and  C_16
REMARK                            x       y       z     vdW  Elec       q    Type
REMARK                         _______ _______ _______ _____ _____    ______ ____
ROOT
ATOM      1  C   UNL     1       5.327   4.204  17.534  0.00  0.00    +0.000 C 
ATOM      2  O   UNL     1       5.727   3.916  18.671  0.00  0.00    +0.000 OA
ATOM      3  N   UNL     1       4.200   3.574  17.018  0.00  0.00    +0.000 N 
ATOM      4  H   UNL     1       3.989   3.675  16.028  0.00  0.00    +0.000 HD
ENDROOT
BRANCH   1   5
ATOM      5  C   UNL     1       6.072   5.227  16.595  0.00  0.00    +0.000 C 
ATOM      6  C   UNL     1       5.471   5.282  15.137  0.00  0.00    +0.000 C 
ATOM      7  C   UNL     1       6.584   4.330  14.681  0.00  0.00    +0.000 C 
ATOM      8  C   UNL     1       7.404   4.777  15.902  0.00  0.00    +0.000 C 
BRANCH   5   9
ATOM      9  C   UNL     1       6.081   6.653  17.189  0.00  0.00    +0.000 C 
BRANCH   9  10
ATOM     10  C   UNL     1       7.467   7.103  17.639  0.00  0.00    +0.000 C 
BRANCH  10  12
ATOM     11  C   UNL     1       8.388   9.201  18.190  0.00  0.00    +0.000 C 
ATOM     12  O   UNL     1       7.676   8.447  17.217  0.00  0.00    +0.000 OA
ENDBRANCH  10  12
ENDBRANCH   9  10
ENDBRANCH   5   9
ENDBRANCH   1   5
BRANCH   3  13
ATOM     13  C   UNL     1       3.593   2.503  17.797  0.00  0.00    +0.000 C 
BRANCH  13  14
ATOM     14  C   UNL     1       2.166   2.740  18.282  0.00  0.00    +0.000 C 
BRANCH  14  15
ATOM     15  C   UNL     1       2.096   3.125  19.716  0.00  0.00    +0.000 A 
ATOM     16  N   UNL     1       1.675   2.336  20.687  0.00  0.00    +0.000 NA
ATOM     17  N   UNL     1       1.756   3.028  21.873  0.00  0.00    +0.000 NA
ATOM     18  C   UNL     1       2.229   4.221  21.605  0.00  0.00    +0.000 A 
ATOM     19  N   UNL     1       2.439   4.336  20.266  0.00  0.00    +0.000 N 
BRANCH  19  20
ATOM     20  C   UNL     1       2.936   5.512  19.584  0.00  0.00    +0.000 C 
ATOM     21  C   UNL     1       2.132   6.230  18.506  0.00  0.00    +0.000 C 
ATOM     22  C   UNL     1       2.317   6.881  19.832  0.00  0.00    +0.000 C 
ENDBRANCH  19  20
ENDBRANCH  14  15
ENDBRANCH  13  14
ENDBRANCH   3  13
TORSDOF 8
ENDMDL
MODEL 4
REMARK VINA RESULT:      -6.3      1.477      2.414
REMARK  Name = 
REMARK  9 active torsions:
REMARK  status: ('A' for Active; 'I' for Inactive)
REMARK    1  A    between atoms: C_1  and  O_2
REMARK    2  A    between atoms: O_2  and  C_3
REMARK    3  A    between atoms: C_3  and  C_4
REMARK    4  A    between atoms: C_4  and  C_5
REMARK    5  A    between atoms: C_5  and  C_6
REMARK    6  A    between atoms: N_8  and  C_9
REMARK    7  A    between atoms: C_9  and  C_10
REMARK    8  A    between atoms: C_10  and  C_11
REMARK    9  A    between atoms: N_15  and  C_16
REMARK                            x       y       z     vdW  Elec       q    Type
REMARK                         _______ _______ _______ _____ _____    ______ ____
ROOT
ATOM      1  C   UNL     1       5.136   6.326  17.276  0.00  0.00    +0.000 C 
ATOM      2  O   UNL     1       4.505   7.002  16.450  0.00  0.00    +0.000 OA
ATOM      3  N   UNL     1       4.509   5.900  18.442  0.00  0.00    +0.000 N 
ATOM      4  H   UNL     1       5.077   5.512  19.192  0.00  0.00    +0.000 HD
ENDROOT
BRANCH   1   5
ATOM      5  C   UNL     1       6.659   5.959  17.102  0.00  0.00    +0.000 C 
ATOM      6  C   UNL     1       7.158   4.877  18.136  0.00  0.00    +0.000 C 
ATOM      7  C   UNL     1       7.716   6.014  19.001  0.00  0.00    +0.000 C 
ATOM      8  C   UNL     1       7.735   6.900  17.746  0.00  0.00    +0.000 C 
BRANCH   5   9
ATOM      9  C   UNL     1       6.975   5.471  15.671  0.00  0.00    +0.000 C 
BRANCH   9  10
ATOM     10  C   UNL     1       6.394   4.093  15.370  0.00  0.00    +0.000 C 
BRANCH  10  12
ATOM     11  C   UNL     1       6.147   3.668  13.065  0.00  0.00    +0.000 C 
ATOM     12  O   UNL     1       5.535   4.192  14.238  0.00  0.00    +0.000 OA
ENDBRANCH  10  12
ENDBRANCH   9  10
ENDBRANCH   5   9
ENDBRANCH   1   5
BRANCH   3  13
ATOM     13  C   UNL     1       3.156   6.367  18.706  0.00  0.00    +0.000 C 
BRANCH  13  14
ATOM     14  C   UNL     1       2.024   5.406  18.356  0.00  0.00    +0.000 C 
BRANCH  14  15
ATOM     15  C   UNL     1       1.789   4.379  19.404  0.00  0.00    +0.000 A 
ATOM     16  N   UNL     1       1.323   4.631  20.614  0.00  0.00    +0.000 NA
ATOM     17  N   UNL     1       1.233   3.442  21.299  0.00  0.00    +0.000 NA
ATOM     18  C   UNL     1       1.639   2.488  20.496  0.00  0.00    +0.000 A 
ATOM     19  N   UNL     1       2.016   3.027  19.305  0.00  0.00    +0.000 N 
BRANCH  19  20
ATOM     20  C   UNL     1       2.539   2.296  18.171  0.00  0.00    +0.000 C 
ATOM     21  C   UNL     1       3.935   2.548  17.613  0.00  0.00    +0.000 C 
ATOM     22  C   UNL     1       3.661   1.281  18.345  0.00  0.00    +0.000 C 
ENDBRANCH  19  20
ENDBRANCH  14  15
ENDBRANCH  13  14
ENDBRANCH   3  13
TORSDOF 8
ENDMDL
MODEL 5
REMARK VINA RESULT:      -6.3      1.604      2.903
REMARK  Name = 
REMARK  9 active torsions:
REMARK  status: ('A' for Active; 'I' for Inactive)
REMARK    1  A    between atoms: C_1  and  O_2
REMARK    2  A    between atoms: O_2  and  C_3
REMARK    3  A    between atoms: C_3  and  C_4
REMARK    4  A    between atoms: C_4  and  C_5
REMARK    5  A    between atoms: C_5  and  C_6
REMARK    6  A    between atoms: N_8  and  C_9
REMARK    7  A    between atoms: C_9  and  C_10
REMARK    8  A    between atoms: C_10  and  C_11
REMARK    9  A    between atoms: N_15  and  C_16
REMARK                            x       y       z     vdW  Elec       q    Type
REMARK                         _______ _______ _______ _____ _____    ______ ____
ROOT
ATOM      1  C   UNL     1       5.187   5.843  16.205  0.00  0.00    +0.000 C 
ATOM      2  O   UNL     1       4.998   6.927  15.635  0.00  0.00    +0.000 OA
ATOM      3  N   UNL     1       4.357   5.459  17.253  0.00  0.00    +0.000 N 
ATOM      4  H   UNL     1       4.629   4.667  17.831  0.00  0.00    +0.000 HD
ENDROOT
BRANCH   1   5
ATOM      5  C   UNL     1       6.376   4.875  15.837  0.00  0.00    +0.000 C 
ATOM      6  C   UNL     1       6.986   5.157  14.410  0.00  0.00    +0.000 C 
ATOM      7  C   UNL     1       6.124   4.017  13.855  0.00  0.00    +0.000 C 
ATOM      8  C   UNL     1       6.037   3.449  15.280  0.00  0.00    +0.000 C 
BRANCH   5   9
ATOM      9  C   UNL     1       7.507   4.927  16.887  0.00  0.00    +0.000 C 
BRANCH   9  10
ATOM     10  C   UNL     1       7.469   6.188  17.743  0.00  0.00    +0.000 C 
BRANCH  10  12
ATOM     11  C   UNL     1       7.832   8.516  17.670  0.00  0.00    +0.000 C 
ATOM     12  O   UNL     1       7.961   7.282  16.974  0.00  0.00    +0.000 OA
ENDBRANCH  10  12
ENDBRANCH   9  10
ENDBRANCH   5   9
ENDBRANCH   1   5
BRANCH   3  13
ATOM     13  C   UNL     1       3.360   6.409  17.724  0.00  0.00    +0.000 C 
BRANCH  13  14
ATOM     14  C   UNL     1       2.178   5.828  18.494  0.00  0.00    +0.000 C 
BRANCH  14  15
ATOM     15  C   UNL     1       2.038   4.358  18.321  0.00  0.00    +0.000 A 
ATOM     16  N   UNL     1       1.546   3.770  17.245  0.00  0.00    +0.000 NA
ATOM     17  N   UNL     1       1.578   2.410  17.443  0.00  0.00    +0.000 NA
ATOM     18  C   UNL     1       2.091   2.192  18.630  0.00  0.00    +0.000 A 
ATOM     19  N   UNL     1       2.376   3.381  19.226  0.00  0.00    +0.000 N 
BRANCH  19  20
ATOM     20  C   UNL     1       2.936   3.553  20.550  0.00  0.00    +0.000 C 
ATOM     21  C   UNL     1       2.092   3.991  21.741  0.00  0.00    +0.000 C 
ATOM     22  C   UNL     1       2.591   2.590  21.677  0.00  0.00    +0.000 C 
ENDBRANCH  19  20
ENDBRANCH  14  15
ENDBRANCH  13  14
ENDBRANCH   3  13
TORSDOF 8
ENDMDL
MODEL 6
REMARK VINA RESULT:      -6.3      1.372      1.478
REMARK  Name = 
REMARK  9 active torsions:
REMARK  status: ('A' for Active; 'I' for Inactive)
REMARK    1  A    between atoms: C_1  and  O_2
REMARK    2  A    between atoms: O_2  and  C_3
REMARK    3  A    between atoms: C_3  and  C_4
REMARK    4  A    between atoms: C_4  and  C_5
REMARK    5  A    between atoms: C_5  and  C_6
REMARK    6  A    between atoms: N_8  and  C_9
REMARK    7  A    between atoms: C_9  and  C_10
REMARK    8  A    between atoms: C_10  and  C_11
REMARK    9  A    between atoms: N_15  and  C_16
REMARK                            x       y       z     vdW  Elec       q    Type
REMARK                         _______ _______ _______ _____ _____    ______ ____
ROOT
ATOM      1  C   UNL     1       5.130   6.384  16.874  0.00  0.00    +0.000 C 
ATOM      2  O   UNL     1       4.607   6.945  15.901  0.00  0.00    +0.000 OA
ATOM      3  N   UNL     1       4.394   6.192  18.038  0.00  0.00    +0.000 N 
ATOM      4  H   UNL     1       4.879   5.904  18.885  0.00  0.00    +0.000 HD
ENDROOT
BRANCH   1   5
ATOM      5  C   UNL     1       6.635   5.913  16.888  0.00  0.00    +0.000 C 
ATOM      6  C   UNL     1       6.970   4.943  18.086  0.00  0.00    +0.000 C 
ATOM      7  C   UNL     1       7.527   6.145  18.857  0.00  0.00    +0.000 C 
ATOM      8  C   UNL     1       7.713   6.864  17.511  0.00  0.00    +0.000 C 
BRANCH   5   9
ATOM      9  C   UNL     1       7.037   5.231  15.561  0.00  0.00    +0.000 C 
BRANCH   9  10
ATOM     10  C   UNL     1       6.271   3.940  15.298  0.00  0.00    +0.000 C 
BRANCH  10  12
ATOM     11  C   UNL     1       6.175   3.624  12.965  0.00  0.00    +0.000 C 
ATOM     12  O   UNL     1       5.490   4.098  14.118  0.00  0.00    +0.000 OA
ENDBRANCH  10  12
ENDBRANCH   9  10
ENDBRANCH   5   9
ENDBRANCH   1   5
BRANCH   3  13
ATOM     13  C   UNL     1       3.059   6.768  18.112  0.00  0.00    +0.000 C 
BRANCH  13  14
ATOM     14  C   UNL     1       2.011   5.961  18.872  0.00  0.00    +0.000 C 
BRANCH  14  15
ATOM     15  C   UNL     1       1.968   4.533  18.461  0.00  0.00    +0.000 A 
ATOM     16  N   UNL     1       2.277   4.085  17.258  0.00  0.00    +0.000 NA
ATOM     17  N   UNL     1       2.125   2.718  17.252  0.00  0.00    +0.000 NA
ATOM     18  C   UNL     1       1.732   2.357  18.449  0.00  0.00    +0.000 A 
ATOM     19  N   UNL     1       1.601   3.459  19.236  0.00  0.00    +0.000 N 
BRANCH  19  20
ATOM     20  C   UNL     1       1.167   3.467  20.617  0.00  0.00    +0.000 C 
ATOM     21  C   UNL     1       1.611   2.406  21.617  0.00  0.00    +0.000 C 
ATOM     22  C   UNL     1       2.140   3.792  21.741  0.00  0.00    +0.000 C 
ENDBRANCH  19  20
ENDBRANCH  14  15
ENDBRANCH  13  14
ENDBRANCH   3  13
TORSDOF 8
ENDMDL
MODEL 7
REMARK VINA RESULT:      -6.3      1.652      2.835
REMARK  Name = 
REMARK  9 active torsions:
REMARK  status: ('A' for Active; 'I' for Inactive)
REMARK    1  A    between atoms: C_1  and  O_2
REMARK    2  A    between atoms: O_2  and  C_3
REMARK    3  A    between atoms: C_3  and  C_4
REMARK    4  A    between atoms: C_4  and  C_5
REMARK    5  A    between atoms: C_5  and  C_6
REMARK    6  A    between atoms: N_8  and  C_9
REMARK    7  A    between atoms: C_9  and  C_10
REMARK    8  A    between atoms: C_10  and  C_11
REMARK    9  A    between atoms: N_15  and  C_16
REMARK                            x       y       z     vdW  Elec       q    Type
REMARK                         _______ _______ _______ _____ _____    ______ ____
ROOT
ATOM      1  C   UNL     1       5.258   4.946  18.278  0.00  0.00    +0.000 C 
ATOM      2  O   UNL     1       4.571   5.548  19.115  0.00  0.00    +0.000 OA
ATOM      3  N   UNL     1       5.588   3.611  18.487  0.00  0.00    +0.000 N 
ATOM      4  H   UNL     1       6.298   3.181  17.899  0.00  0.00    +0.000 HD
ENDROOT
BRANCH   1   5
ATOM      5  C   UNL     1       5.840   5.636  16.985  0.00  0.00    +0.000 C 
ATOM      6  C   UNL     1       7.416   5.686  16.965  0.00  0.00    +0.000 C 
ATOM      7  C   UNL     1       7.342   7.127  17.483  0.00  0.00    +0.000 C 
ATOM      8  C   UNL     1       5.907   7.202  16.937  0.00  0.00    +0.000 C 
BRANCH   5   9
ATOM      9  C   UNL     1       5.342   4.952  15.693  0.00  0.00    +0.000 C 
BRANCH   9  10
ATOM     10  C   UNL     1       6.407   4.088  15.027  0.00  0.00    +0.000 C 
BRANCH  10  12
ATOM     11  C   UNL     1       6.183   3.531  12.748  0.00  0.00    +0.000 C 
ATOM     12  O   UNL     1       6.582   4.526  13.683  0.00  0.00    +0.000 OA
ENDBRANCH  10  12
ENDBRANCH   9  10
ENDBRANCH   5   9
ENDBRANCH   1   5
BRANCH   3  13
ATOM     13  C   UNL     1       5.207   2.998  19.752  0.00  0.00    +0.000 C 
BRANCH  13  14
ATOM     14  C   UNL     1       4.076   1.975  19.698  0.00  0.00    +0.000 C 
BRANCH  14  15
ATOM     15  C   UNL     1       2.881   2.389  20.479  0.00  0.00    +0.000 A 
ATOM     16  N   UNL     1       2.818   2.424  21.797  0.00  0.00    +0.000 NA
ATOM     17  N   UNL     1       1.564   2.859  22.159  0.00  0.00    +0.000 NA
ATOM     18  C   UNL     1       0.889   3.086  21.058  0.00  0.00    +0.000 A 
ATOM     19  N   UNL     1       1.664   2.787  19.980  0.00  0.00    +0.000 N 
BRANCH  19  20
ATOM     20  C   UNL     1       1.263   2.889  18.594  0.00  0.00    +0.000 C 
ATOM     21  C   UNL     1       1.540   4.131  17.754  0.00  0.00    +0.000 C 
ATOM     22  C   UNL     1       2.297   2.879  17.477  0.00  0.00    +0.000 C 
ENDBRANCH  19  20
ENDBRANCH  14  15
ENDBRANCH  13  14
ENDBRANCH   3  13
TORSDOF 8
ENDMDL
MODEL 8
REMARK VINA RESULT:      -6.2      1.404      2.285
REMARK  Name = 
REMARK  9 active torsions:
REMARK  status: ('A' for Active; 'I' for Inactive)
REMARK    1  A    between atoms: C_1  and  O_2
REMARK    2  A    between atoms: O_2  and  C_3
REMARK    3  A    between atoms: C_3  and  C_4
REMARK    4  A    between atoms: C_4  and  C_5
REMARK    5  A    between atoms: C_5  and  C_6
REMARK    6  A    between atoms: N_8  and  C_9
REMARK    7  A    between atoms: C_9  and  C_10
REMARK    8  A    between atoms: C_10  and  C_11
REMARK    9  A    between atoms: N_15  and  C_16
REMARK                            x       y       z     vdW  Elec       q    Type
REMARK                         _______ _______ _______ _____ _____    ______ ____
ROOT
ATOM      1  C   UNL     1       5.283   4.344  17.590  0.00  0.00    +0.000 C 
ATOM      2  O   UNL     1       5.117   4.111  18.796  0.00  0.00    +0.000 OA
ATOM      3  N   UNL     1       4.258   4.079  16.689  0.00  0.00    +0.000 N 
ATOM      4  H   UNL     1       4.462   4.095  15.692  0.00  0.00    +0.000 HD
ENDROOT
BRANCH   1   5
ATOM      5  C   UNL     1       6.640   4.885  16.997  0.00  0.00    +0.000 C 
ATOM      6  C   UNL     1       7.851   4.751  17.999  0.00  0.00    +0.000 C 
ATOM      7  C   UNL     1       7.645   6.219  18.390  0.00  0.00    +0.000 C 
ATOM      8  C   UNL     1       6.920   6.427  17.051  0.00  0.00    +0.000 C 
BRANCH   5   9
ATOM      9  C   UNL     1       7.006   4.189  15.668  0.00  0.00    +0.000 C 
BRANCH   9  10
ATOM     10  C   UNL     1       7.161   5.164  14.507  0.00  0.00    +0.000 C 
BRANCH  10  12
ATOM     11  C   UNL     1       5.763   3.684  13.320  0.00  0.00    +0.000 C 
ATOM     12  O   UNL     1       6.952   4.463  13.285  0.00  0.00    +0.000 OA
ENDBRANCH  10  12
ENDBRANCH   9  10
ENDBRANCH   5   9
ENDBRANCH   1   5
BRANCH   3  13
ATOM     13  C   UNL     1       3.057   3.421  17.185  0.00  0.00    +0.000 C 
BRANCH  13  14
ATOM     14  C   UNL     1       1.834   4.308  17.396  0.00  0.00    +0.000 C 
BRANCH  14  15
ATOM     15  C   UNL     1       1.949   5.181  18.594  0.00  0.00    +0.000 A 
ATOM     16  N   UNL     1       2.284   6.458  18.565  0.00  0.00    +0.000 NA
ATOM     17  N   UNL     1       2.282   6.935  19.856  0.00  0.00    +0.000 NA
ATOM     18  C   UNL     1       1.942   5.945  20.645  0.00  0.00    +0.000 A 
ATOM     19  N   UNL     1       1.742   4.821  19.904  0.00  0.00    +0.000 N 
BRANCH  19  20
ATOM     20  C   UNL     1       1.376   3.520  20.420  0.00  0.00    +0.000 C 
ATOM     21  C   UNL     1       2.404   2.423  20.672  0.00  0.00    +0.000 C 
ATOM     22  C   UNL     1       1.762   3.100  21.831  0.00  0.00    +0.000 C 
ENDBRANCH  19  20
ENDBRANCH  14  15
ENDBRANCH  13  14
ENDBRANCH   3  13
TORSDOF 8
ENDMDL
MODEL 9
REMARK VINA RESULT:      -6.1      2.811      6.680
REMARK  Name = 
REMARK  9 active torsions:
REMARK  status: ('A' for Active; 'I' for Inactive)
REMARK    1  A    between atoms: C_1  and  O_2
REMARK    2  A    between atoms: O_2  and  C_3
REMARK    3  A    between atoms: C_3  and  C_4
REMARK    4  A    between atoms: C_4  and  C_5
REMARK    5  A    between atoms: C_5  and  C_6
REMARK    6  A    between atoms: N_8  and  C_9
REMARK    7  A    between atoms: C_9  and  C_10
REMARK    8  A    between atoms: C_10  and  C_11
REMARK    9  A    between atoms: N_15  and  C_16
REMARK                            x       y       z     vdW  Elec       q    Type
REMARK                         _______ _______ _______ _____ _____    ______ ____
ROOT
ATOM      1  C   UNL     1       3.838   4.403  18.045  0.00  0.00    +0.000 C 
ATOM      2  O   UNL     1       4.126   3.200  18.126  0.00  0.00    +0.000 OA
ATOM      3  N   UNL     1       4.712   5.281  17.414  0.00  0.00    +0.000 N 
ATOM      4  H   UNL     1       4.562   6.282  17.514  0.00  0.00    +0.000 HD
ENDROOT
BRANCH   1   5
ATOM      5  C   UNL     1       2.532   5.019  18.679  0.00  0.00    +0.000 C 
ATOM      6  C   UNL     1       2.009   6.291  17.907  0.00  0.00    +0.000 C 
ATOM      7  C   UNL     1       2.713   7.169  18.949  0.00  0.00    +0.000 C 
ATOM      8  C   UNL     1       2.677   5.973  19.914  0.00  0.00    +0.000 C 
BRANCH   5   9
ATOM      9  C   UNL     1       1.392   3.981  18.771  0.00  0.00    +0.000 C 
BRANCH   9  10
ATOM     10  C   UNL     1       0.906   3.754  20.198  0.00  0.00    +0.000 C 
BRANCH  10  12
ATOM     11  C   UNL     1       2.448   2.694  21.631  0.00  0.00    +0.000 C 
ATOM     12  O   UNL     1       1.418   2.510  20.667  0.00  0.00    +0.000 OA
ENDBRANCH  10  12
ENDBRANCH   9  10
ENDBRANCH   5   9
ENDBRANCH   1   5
BRANCH   3  13
ATOM     13  C   UNL     1       6.001   4.769  16.971  0.00  0.00    +0.000 C 
BRANCH  13  14
ATOM     14  C   UNL     1       5.986   3.856  15.748  0.00  0.00    +0.000 C 
BRANCH  14  15
ATOM     15  C   UNL     1       6.723   4.424  14.589  0.00  0.00    +0.000 A 
ATOM     16  N   UNL     1       7.603   5.405  14.665  0.00  0.00    +0.000 NA
ATOM     17  N   UNL     1       8.080   5.657  13.399  0.00  0.00    +0.000 NA
ATOM     18  C   UNL     1       7.488   4.824  12.578  0.00  0.00    +0.000 A 
ATOM     19  N   UNL     1       6.615   4.045  13.273  0.00  0.00    +0.000 N 
BRANCH  19  20
ATOM     20  C   UNL     1       5.761   3.021  12.711  0.00  0.00    +0.000 C 
ATOM     21  C   UNL     1       4.609   3.347  11.768  0.00  0.00    +0.000 C 
ATOM     22  C   UNL     1       5.824   2.676  11.229  0.00  0.00    +0.000 C 
ENDBRANCH  19  20
ENDBRANCH  14  15
ENDBRANCH  13  14
ENDBRANCH   3  13
TORSDOF 8
ENDMDL
