MODEL 1
REMARK VINA RESULT:      -6.1      0.000      0.000
REMARK  Name = 
REMARK  7 active torsions:
REMARK  status: ('A' for Active; 'I' for Inactive)
REMARK    1  A    between atoms: C_1  and  C_2
REMARK    2  A    between atoms: C_2  and  O_3
REMARK    3  A    between atoms: O_3  and  C_4
REMARK    4  A    between atoms: C_4  and  C_6
REMARK    5  A    between atoms: C_6  and  N_7
REMARK    6  A    between atoms: C_10  and  C_11
REMARK    7  A    between atoms: C_12  and  C_13
REMARK                            x       y       z     vdW  Elec       q    Type
REMARK                         _______ _______ _______ _____ _____    ______ ____
ROOT
ATOM      1  N   UNL     1       4.355   4.381  17.703  0.00  0.00    +0.000 N 
ATOM      2  C   UNL     1       4.416   5.292  16.665  0.00  0.00    +0.000 A 
ATOM      3  C   UNL     1       5.367   6.233  16.623  0.00  0.00    +0.000 A 
ATOM      4  C   UNL     1       6.379   6.299  17.658  0.00  0.00    +0.000 A 
ATOM      5  C   UNL     1       7.440   7.356  17.522  0.00  0.00    +0.000 C 
ATOM      6  C   UNL     1       6.352   5.401  18.664  0.00  0.00    +0.000 A 
ATOM      7  C   UNL     1       5.295   4.358  18.733  0.00  0.00    +0.000 A 
ATOM      8  O   UNL     1       5.271   3.534  19.646  0.00  0.00    +0.000 OA
ENDROOT
BRANCH   6   9
ATOM      9  C   UNL     1       7.454   5.346  19.710  0.00  0.00    +0.000 C 
ATOM     10  N   UNL     1       8.367   5.300  20.578  0.00  0.00    +0.000 NA
ENDBRANCH   6   9
BRANCH   1  11
ATOM     11  C   UNL     1       3.355   3.315  17.674  0.00  0.00    +0.000 C 
BRANCH  11  12
ATOM     12  C   UNL     1       1.977   3.837  18.056  0.00  0.00    +0.000 C 
ATOM     13  O   UNL     1       1.099   4.187  17.280  0.00  0.00    +0.000 OA
BRANCH  12  14
ATOM     14  O   UNL     1       1.935   3.995  19.414  0.00  0.00    +0.000 OA
BRANCH  14  16
ATOM     15  C   UNL     1       1.730   2.873  21.512  0.00  0.00    +0.000 C 
ATOM     16  C   UNL     1       1.152   3.019  20.113  0.00  0.00    +0.000 C 
ENDBRANCH  14  16
ENDBRANCH  12  14
ENDBRANCH  11  12
ENDBRANCH   1  11
TORSDOF 5
ENDMDL
MODEL 2
REMARK VINA RESULT:      -6.1      1.307      1.554
REMARK  Name = 
REMARK  7 active torsions:
REMARK  status: ('A' for Active; 'I' for Inactive)
REMARK    1  A    between atoms: C_1  and  C_2
REMARK    2  A    between atoms: C_2  and  O_3
REMARK    3  A    between atoms: O_3  and  C_4
REMARK    4  A    between atoms: C_4  and  C_6
REMARK    5  A    between atoms: C_6  and  N_7
REMARK    6  A    between atoms: C_10  and  C_11
REMARK    7  A    between atoms: C_12  and  C_13
REMARK                            x       y       z     vdW  Elec       q    Type
REMARK                         _______ _______ _______ _____ _____    ______ ____
ROOT
ATOM      1  N   UNL     1       3.730   3.196  18.227  0.00  0.00    +0.000 N 
ATOM      2  C   UNL     1       3.390   3.911  17.093  0.00  0.00    +0.000 A 
ATOM      3  C   UNL     1       4.051   5.023  16.750  0.00  0.00    +0.000 A 
ATOM      4  C   UNL     1       5.167   5.488  17.549  0.00  0.00    +0.000 A 
ATOM      5  C   UNL     1       5.889   6.720  17.078  0.00  0.00    +0.000 C 
ATOM      6  C   UNL     1       5.532   4.788  18.643  0.00  0.00    +0.000 A 
ATOM      7  C   UNL     1       4.799   3.558  19.046  0.00  0.00    +0.000 A 
ATOM      8  O   UNL     1       5.132   2.914  20.039  0.00  0.00    +0.000 OA
ENDROOT
BRANCH   6   9
ATOM      9  C   UNL     1       6.765   5.159  19.450  0.00  0.00    +0.000 C 
ATOM     10  N   UNL     1       7.789   5.467  20.119  0.00  0.00    +0.000 NA
ENDBRANCH   6   9
BRANCH   1  11
ATOM     11  C   UNL     1       3.042   1.941  18.526  0.00  0.00    +0.000 C 
BRANCH  11  12
ATOM     12  C   UNL     1       1.627   2.191  19.027  0.00  0.00    +0.000 C 
ATOM     13  O   UNL     1       0.599   2.070  18.375  0.00  0.00    +0.000 OA
BRANCH  12  14
ATOM     14  O   UNL     1       1.700   2.723  20.285  0.00  0.00    +0.000 OA
BRANCH  14  16
ATOM     15  C   UNL     1       1.935   5.061  20.710  0.00  0.00    +0.000 C 
ATOM     16  C   UNL     1       0.948   3.928  20.478  0.00  0.00    +0.000 C 
ENDBRANCH  14  16
ENDBRANCH  12  14
ENDBRANCH  11  12
ENDBRANCH   1  11
TORSDOF 5
ENDMDL
MODEL 3
REMARK VINA RESULT:      -6.1      2.018      2.665
REMARK  Name = 
REMARK  7 active torsions:
REMARK  status: ('A' for Active; 'I' for Inactive)
REMARK    1  A    between atoms: C_1  and  C_2
REMARK    2  A    between atoms: C_2  and  O_3
REMARK    3  A    between atoms: O_3  and  C_4
REMARK    4  A    between atoms: C_4  and  C_6
REMARK    5  A    between atoms: C_6  and  N_7
REMARK    6  A    between atoms: C_10  and  C_11
REMARK    7  A    between atoms: C_12  and  C_13
REMARK                            x       y       z     vdW  Elec       q    Type
REMARK                         _______ _______ _______ _____ _____    ______ ____
ROOT
ATOM      1  N   UNL     1       3.947   4.124  17.925  0.00  0.00    +0.000 N 
ATOM      2  C   UNL     1       4.273   4.641  19.165  0.00  0.00    +0.000 A 
ATOM      3  C   UNL     1       5.439   5.264  19.372  0.00  0.00    +0.000 A 
ATOM      4  C   UNL     1       6.381   5.438  18.284  0.00  0.00    +0.000 A 
ATOM      5  C   UNL     1       7.651   6.185  18.581  0.00  0.00    +0.000 C 
ATOM      6  C   UNL     1       6.067   4.965  17.060  0.00  0.00    +0.000 A 
ATOM      7  C   UNL     1       4.782   4.258  16.817  0.00  0.00    +0.000 A 
ATOM      8  O   UNL     1       4.491   3.831  15.701  0.00  0.00    +0.000 OA
ENDROOT
BRANCH   6   9
ATOM      9  C   UNL     1       6.959   5.223  15.856  0.00  0.00    +0.000 C 
ATOM     10  N   UNL     1       7.699   5.435  14.857  0.00  0.00    +0.000 NA
ENDBRANCH   6   9
BRANCH   1  11
ATOM     11  C   UNL     1       2.630   3.525  17.713  0.00  0.00    +0.000 C 
BRANCH  11  12
ATOM     12  C   UNL     1       2.509   2.187  18.430  0.00  0.00    +0.000 C 
ATOM     13  O   UNL     1       3.346   1.295  18.438  0.00  0.00    +0.000 OA
BRANCH  12  14
ATOM     14  O   UNL     1       1.245   2.082  18.941  0.00  0.00    +0.000 OA
BRANCH  14  16
ATOM     15  C   UNL     1       1.457   2.765  21.220  0.00  0.00    +0.000 C 
ATOM     16  C   UNL     1       0.875   3.119  19.861  0.00  0.00    +0.000 C 
ENDBRANCH  14  16
ENDBRANCH  12  14
ENDBRANCH  11  12
ENDBRANCH   1  11
TORSDOF 5
ENDMDL
MODEL 4
REMARK VINA RESULT:      -6.0      2.374      5.095
REMARK  Name = 
REMARK  7 active torsions:
REMARK  status: ('A' for Active; 'I' for Inactive)
REMARK    1  A    between atoms: C_1  and  C_2
REMARK    2  A    between atoms: C_2  and  O_3
REMARK    3  A    between atoms: O_3  and  C_4
REMARK    4  A    between atoms: C_4  and  C_6
REMARK    5  A    between atoms: C_6  and  N_7
REMARK    6  A    between atoms: C_10  and  C_11
REMARK    7  A    between atoms: C_12  and  C_13
REMARK                            x       y       z     vdW  Elec       q    Type
REMARK                         _______ _______ _______ _____ _____    ______ ____
ROOT
ATOM      1  N   UNL     1       4.221   5.288  18.061  0.00  0.00    +0.000 N 
ATOM      2  C   UNL     1       2.872   5.232  17.761  0.00  0.00    +0.000 A 
ATOM      3  C   UNL     1       2.106   4.225  18.198  0.00  0.00    +0.000 A 
ATOM      4  C   UNL     1       2.671   3.180  19.027  0.00  0.00    +0.000 A 
ATOM      5  C   UNL     1       1.740   2.105  19.516  0.00  0.00    +0.000 C 
ATOM      6  C   UNL     1       3.979   3.234  19.354  0.00  0.00    +0.000 A 
ATOM      7  C   UNL     1       4.847   4.337  18.865  0.00  0.00    +0.000 A 
ATOM      8  O   UNL     1       6.038   4.392  19.166  0.00  0.00    +0.000 OA
ENDROOT
BRANCH   6   9
ATOM      9  C   UNL     1       4.599   2.234  20.317  0.00  0.00    +0.000 C 
ATOM     10  N   UNL     1       5.113   1.405  21.116  0.00  0.00    +0.000 NA
ENDBRANCH   6   9
BRANCH   1  11
ATOM     11  C   UNL     1       5.009   6.444  17.638  0.00  0.00    +0.000 C 
BRANCH  11  12
ATOM     12  C   UNL     1       5.731   6.173  16.326  0.00  0.00    +0.000 C 
ATOM     13  O   UNL     1       5.347   5.431  15.432  0.00  0.00    +0.000 OA
BRANCH  12  14
ATOM     14  O   UNL     1       6.957   6.776  16.372  0.00  0.00    +0.000 OA
BRANCH  14  16
ATOM     15  C   UNL     1       7.959   8.509  17.676  0.00  0.00    +0.000 C 
ATOM     16  C   UNL     1       7.432   7.083  17.690  0.00  0.00    +0.000 C 
ENDBRANCH  14  16
ENDBRANCH  12  14
ENDBRANCH  11  12
ENDBRANCH   1  11
TORSDOF 5
ENDMDL
MODEL 5
REMARK VINA RESULT:      -6.0      2.618      5.036
REMARK  Name = 
REMARK  7 active torsions:
REMARK  status: ('A' for Active; 'I' for Inactive)
REMARK    1  A    between atoms: C_1  and  C_2
REMARK    2  A    between atoms: C_2  and  O_3
REMARK    3  A    between atoms: O_3  and  C_4
REMARK    4  A    between atoms: C_4  and  C_6
REMARK    5  A    between atoms: C_6  and  N_7
REMARK    6  A    between atoms: C_10  and  C_11
REMARK    7  A    between atoms: C_12  and  C_13
REMARK                            x       y       z     vdW  Elec       q    Type
REMARK                         _______ _______ _______ _____ _____    ______ ____
ROOT
ATOM      1  N   UNL     1       4.327   5.194  18.017  0.00  0.00    +0.000 N 
ATOM      2  C   UNL     1       2.969   5.191  17.755  0.00  0.00    +0.000 A 
ATOM      3  C   UNL     1       2.168   4.241  18.254  0.00  0.00    +0.000 A 
ATOM      4  C   UNL     1       2.706   3.204  19.111  0.00  0.00    +0.000 A 
ATOM      5  C   UNL     1       1.739   2.196  19.669  0.00  0.00    +0.000 C 
ATOM      6  C   UNL     1       4.023   3.207  19.401  0.00  0.00    +0.000 A 
ATOM      7  C   UNL     1       4.929   4.246  18.844  0.00  0.00    +0.000 A 
ATOM      8  O   UNL     1       6.130   4.254  19.111  0.00  0.00    +0.000 OA
ENDROOT
BRANCH   6   9
ATOM      9  C   UNL     1       4.622   2.218  20.388  0.00  0.00    +0.000 C 
ATOM     10  N   UNL     1       5.119   1.398  21.207  0.00  0.00    +0.000 NA
ENDBRANCH   6   9
BRANCH   1  11
ATOM     11  C   UNL     1       5.157   6.292  17.526  0.00  0.00    +0.000 C 
BRANCH  11  12
ATOM     12  C   UNL     1       5.457   6.138  16.042  0.00  0.00    +0.000 C 
ATOM     13  O   UNL     1       5.100   6.898  15.152  0.00  0.00    +0.000 OA
BRANCH  12  14
ATOM     14  O   UNL     1       6.064   4.929  15.845  0.00  0.00    +0.000 OA
BRANCH  14  16
ATOM     15  C   UNL     1       6.123   3.883  13.698  0.00  0.00    +0.000 C 
ATOM     16  C   UNL     1       6.842   4.830  14.645  0.00  0.00    +0.000 C 
ENDBRANCH  14  16
ENDBRANCH  12  14
ENDBRANCH  11  12
ENDBRANCH   1  11
TORSDOF 5
ENDMDL
MODEL 6
REMARK VINA RESULT:      -6.0      3.371      5.525
REMARK  Name = 
REMARK  7 active torsions:
REMARK  status: ('A' for Active; 'I' for Inactive)
REMARK    1  A    between atoms: C_1  and  C_2
REMARK    2  A    between atoms: C_2  and  O_3
REMARK    3  A    between atoms: O_3  and  C_4
REMARK    4  A    between atoms: C_4  and  C_6
REMARK    5  A    between atoms: C_6  and  N_7
REMARK    6  A    between atoms: C_10  and  C_11
REMARK    7  A    between atoms: C_12  and  C_13
REMARK                            x       y       z     vdW  Elec       q    Type
REMARK                         _______ _______ _______ _____ _____    ______ ____
ROOT
ATOM      1  N   UNL     1       5.561   5.133  16.618  0.00  0.00    +0.000 N 
ATOM      2  C   UNL     1       5.648   6.510  16.723  0.00  0.00    +0.000 A 
ATOM      3  C   UNL     1       4.656   7.229  17.261  0.00  0.00    +0.000 A 
ATOM      4  C   UNL     1       3.472   6.573  17.778  0.00  0.00    +0.000 A 
ATOM      5  C   UNL     1       2.419   7.442  18.408  0.00  0.00    +0.000 C 
ATOM      6  C   UNL     1       3.381   5.229  17.711  0.00  0.00    +0.000 A 
ATOM      7  C   UNL     1       4.468   4.416  17.103  0.00  0.00    +0.000 A 
ATOM      8  O   UNL     1       4.390   3.190  17.044  0.00  0.00    +0.000 OA
ENDROOT
BRANCH   6   9
ATOM      9  C   UNL     1       2.221   4.478  18.343  0.00  0.00    +0.000 C 
ATOM     10  N   UNL     1       1.257   3.855  18.866  0.00  0.00    +0.000 NA
ENDBRANCH   6   9
BRANCH   1  11
ATOM     11  C   UNL     1       6.697   4.372  16.102  0.00  0.00    +0.000 C 
BRANCH  11  12
ATOM     12  C   UNL     1       6.902   4.624  14.614  0.00  0.00    +0.000 C 
ATOM     13  O   UNL     1       7.726   5.380  14.119  0.00  0.00    +0.000 OA
BRANCH  12  14
ATOM     14  O   UNL     1       5.912   3.981  13.925  0.00  0.00    +0.000 OA
BRANCH  14  16
ATOM     15  C   UNL     1       4.996   3.191  11.865  0.00  0.00    +0.000 C 
ATOM     16  C   UNL     1       6.274   3.551  12.606  0.00  0.00    +0.000 C 
ENDBRANCH  14  16
ENDBRANCH  12  14
ENDBRANCH  11  12
ENDBRANCH   1  11
TORSDOF 5
ENDMDL
MODEL 7
REMARK VINA RESULT:      -5.9      2.501      5.242
REMARK  Name = 
REMARK  7 active torsions:
REMARK  status: ('A' for Active; 'I' for Inactive)
REMARK    1  A    between atoms: C_1  and  C_2
REMARK    2  A    between atoms: C_2  and  O_3
REMARK    3  A    between atoms: O_3  and  C_4
REMARK    4  A    between atoms: C_4  and  C_6
REMARK    5  A    between atoms: C_6  and  N_7
REMARK    6  A    between atoms: C_10  and  C_11
REMARK    7  A    between atoms: C_12  and  C_13
REMARK                            x       y       z     vdW  Elec       q    Type
REMARK                         _______ _______ _______ _____ _____    ______ ____
ROOT
ATOM      1  N   UNL     1       4.720   3.886  17.756  0.00  0.00    +0.000 N 
ATOM      2  C   UNL     1       3.721   3.797  16.803  0.00  0.00    +0.000 A 
ATOM      3  C   UNL     1       2.504   3.337  17.115  0.00  0.00    +0.000 A 
ATOM      4  C   UNL     1       2.194   2.947  18.476  0.00  0.00    +0.000 A 
ATOM      5  C   UNL     1       0.792   2.480  18.759  0.00  0.00    +0.000 C 
ATOM      6  C   UNL     1       3.146   3.054  19.424  0.00  0.00    +0.000 A 
ATOM      7  C   UNL     1       4.508   3.550  19.092  0.00  0.00    +0.000 A 
ATOM      8  O   UNL     1       5.377   3.653  19.956  0.00  0.00    +0.000 OA
ENDROOT
BRANCH   6   9
ATOM      9  C   UNL     1       2.845   2.775  20.888  0.00  0.00    +0.000 C 
ATOM     10  N   UNL     1       2.596   2.544  22.102  0.00  0.00    +0.000 NA
ENDBRANCH   6   9
BRANCH   1  11
ATOM     11  C   UNL     1       6.011   4.471  17.399  0.00  0.00    +0.000 C 
BRANCH  11  12
ATOM     12  C   UNL     1       5.839   5.832  16.739  0.00  0.00    +0.000 C 
ATOM     13  O   UNL     1       5.073   6.716  17.097  0.00  0.00    +0.000 OA
BRANCH  12  14
ATOM     14  O   UNL     1       6.572   5.849  15.585  0.00  0.00    +0.000 OA
BRANCH  14  16
ATOM     15  C   UNL     1       6.095   4.185  13.939  0.00  0.00    +0.000 C 
ATOM     16  C   UNL     1       6.987   4.561  15.111  0.00  0.00    +0.000 C 
ENDBRANCH  14  16
ENDBRANCH  12  14
ENDBRANCH  11  12
ENDBRANCH   1  11
TORSDOF 5
ENDMDL
MODEL 8
REMARK VINA RESULT:      -5.8      1.932      2.487
REMARK  Name = 
REMARK  7 active torsions:
REMARK  status: ('A' for Active; 'I' for Inactive)
REMARK    1  A    between atoms: C_1  and  C_2
REMARK    2  A    between atoms: C_2  and  O_3
REMARK    3  A    between atoms: O_3  and  C_4
REMARK    4  A    between atoms: C_4  and  C_6
REMARK    5  A    between atoms: C_6  and  N_7
REMARK    6  A    between atoms: C_10  and  C_11
REMARK    7  A    between atoms: C_12  and  C_13
REMARK                            x       y       z     vdW  Elec       q    Type
REMARK                         _______ _______ _______ _____ _____    ______ ____
ROOT
ATOM      1  N   UNL     1       3.655   5.058  19.511  0.00  0.00    +0.000 N 
ATOM      2  C   UNL     1       2.923   5.975  18.778  0.00  0.00    +0.000 A 
ATOM      3  C   UNL     1       3.416   6.521  17.660  0.00  0.00    +0.000 A 
ATOM      4  C   UNL     1       4.726   6.138  17.173  0.00  0.00    +0.000 A 
ATOM      5  C   UNL     1       5.196   6.761  15.888  0.00  0.00    +0.000 C 
ATOM      6  C   UNL     1       5.443   5.224  17.859  0.00  0.00    +0.000 A 
ATOM      7  C   UNL     1       4.916   4.618  19.111  0.00  0.00    +0.000 A 
ATOM      8  O   UNL     1       5.565   3.781  19.736  0.00  0.00    +0.000 OA
ENDROOT
BRANCH   6   9
ATOM      9  C   UNL     1       6.768   4.696  17.335  0.00  0.00    +0.000 C 
ATOM     10  N   UNL     1       7.867   4.258  16.899  0.00  0.00    +0.000 NA
ENDBRANCH   6   9
BRANCH   1  11
ATOM     11  C   UNL     1       3.053   4.419  20.680  0.00  0.00    +0.000 C 
BRANCH  11  12
ATOM     12  C   UNL     1       1.749   3.721  20.319  0.00  0.00    +0.000 C 
ATOM     13  O   UNL     1       0.623   4.168  20.483  0.00  0.00    +0.000 OA
BRANCH  12  14
ATOM     14  O   UNL     1       2.037   2.444  19.922  0.00  0.00    +0.000 OA
BRANCH  14  16
ATOM     15  C   UNL     1       2.476   2.333  17.577  0.00  0.00    +0.000 C 
ATOM     16  C   UNL     1       1.457   2.055  18.670  0.00  0.00    +0.000 C 
ENDBRANCH  14  16
ENDBRANCH  12  14
ENDBRANCH  11  12
ENDBRANCH   1  11
TORSDOF 5
ENDMDL
MODEL 9
REMARK VINA RESULT:      -5.8      2.381      4.715
REMARK  Name = 
REMARK  7 active torsions:
REMARK  status: ('A' for Active; 'I' for Inactive)
REMARK    1  A    between atoms: C_1  and  C_2
REMARK    2  A    between atoms: C_2  and  O_3
REMARK    3  A    between atoms: O_3  and  C_4
REMARK    4  A    between atoms: C_4  and  C_6
REMARK    5  A    between atoms: C_6  and  N_7
REMARK    6  A    between atoms: C_10  and  C_11
REMARK    7  A    between atoms: C_12  and  C_13
REMARK                            x       y       z     vdW  Elec       q    Type
REMARK                         _______ _______ _______ _____ _____    ______ ____
ROOT
ATOM      1  N   UNL     1       4.605   3.837  17.646  0.00  0.00    +0.000 N 
ATOM      2  C   UNL     1       3.582   3.703  16.725  0.00  0.00    +0.000 A 
ATOM      3  C   UNL     1       2.383   3.230  17.084  0.00  0.00    +0.000 A 
ATOM      4  C   UNL     1       2.120   2.871  18.464  0.00  0.00    +0.000 A 
ATOM      5  C   UNL     1       0.736   2.387  18.801  0.00  0.00    +0.000 C 
ATOM      6  C   UNL     1       3.096   3.022  19.382  0.00  0.00    +0.000 A 
ATOM      7  C   UNL     1       4.439   3.534  18.996  0.00  0.00    +0.000 A 
ATOM      8  O   UNL     1       5.330   3.677  19.832  0.00  0.00    +0.000 OA
ENDROOT
BRANCH   6   9
ATOM      9  C   UNL     1       2.843   2.777  20.860  0.00  0.00    +0.000 C 
ATOM     10  N   UNL     1       2.633   2.574  22.087  0.00  0.00    +0.000 NA
ENDBRANCH   6   9
BRANCH   1  11
ATOM     11  C   UNL     1       5.874   4.437  17.237  0.00  0.00    +0.000 C 
BRANCH  11  12
ATOM     12  C   UNL     1       5.665   5.818  16.634  0.00  0.00    +0.000 C 
ATOM     13  O   UNL     1       5.975   6.165  15.502  0.00  0.00    +0.000 OA
BRANCH  12  14
ATOM     14  O   UNL     1       5.212   6.656  17.615  0.00  0.00    +0.000 OA
BRANCH  14  16
ATOM     15  C   UNL     1       2.968   6.968  18.369  0.00  0.00    +0.000 C 
ATOM     16  C   UNL     1       3.992   7.343  17.309  0.00  0.00    +0.000 C 
ENDBRANCH  14  16
ENDBRANCH  12  14
ENDBRANCH  11  12
ENDBRANCH   1  11
TORSDOF 5
ENDMDL
