MODEL 1
REMARK VINA RESULT:      -7.2      0.000      0.000
REMARK  Name = 
REMARK  6 active torsions:
REMARK  status: ('A' for Active; 'I' for Inactive)
REMARK    1  A    between atoms: N_6  and  C_7
REMARK    2  A    between atoms: C_9  and  C_10
REMARK    3  A    between atoms: C_10  and  O_11
REMARK    4  A    between atoms: C_12  and  O_13
REMARK    5  A    between atoms: C_17  and  C_18
REMARK    6  A    between atoms: C_18  and  C_19
REMARK                            x       y       z     vdW  Elec       q    Type
REMARK                         _______ _______ _______ _____ _____    ______ ____
ROOT
ATOM      1  O   UNL     1       7.694   6.171  15.776  0.00  0.00    +0.000 OA
ATOM      2  C   UNL     1       6.897   5.728  16.596  0.00  0.00    +0.000 A 
ATOM      3  N   UNL     1       7.052   5.941  17.939  0.00  0.00    +0.000 N 
ATOM      4  C   UNL     1       6.430   5.222  18.917  0.00  0.00    +0.000 A 
ATOM      5  O   UNL     1       6.836   5.271  20.081  0.00  0.00    +0.000 OA
ATOM      6  N   UNL     1       5.366   4.436  18.511  0.00  0.00    +0.000 N 
ATOM      7  C   UNL     1       5.007   4.356  17.180  0.00  0.00    +0.000 A 
ATOM      8  C   UNL     1       5.713   4.935  16.201  0.00  0.00    +0.000 A 
ATOM      9  H   UNL     1       7.874   6.453  18.213  0.00  0.00    +0.000 HD
ENDROOT
BRANCH   6  10
ATOM     10  C   UNL     1       4.670   3.661  19.537  0.00  0.00    +0.000 C 
ATOM     11  O   UNL     1       4.271   2.372  19.021  0.00  0.00    +0.000 OA
ATOM     12  C   UNL     1       2.886   2.138  19.350  0.00  0.00    +0.000 C 
ATOM     13  C   UNL     1       2.529   3.149  20.437  0.00  0.00    +0.000 C 
ATOM     14  C   UNL     1       3.440   4.327  20.152  0.00  0.00    +0.000 C 
ATOM     15  F   UNL     1       2.819   5.143  19.256  0.00  0.00    +0.000 F 
BRANCH  13  16
ATOM     16  O   UNL     1       2.798   2.610  21.741  0.00  0.00    +0.000 OA
ATOM     17  H   UNL     1       2.147   2.966  22.375  0.00  0.00    +0.000 HD
ENDBRANCH  13  16
BRANCH  12  18
ATOM     18  C   UNL     1       2.021   2.262  18.086  0.00  0.00    +0.000 C 
BRANCH  18  19
ATOM     19  O   UNL     1       0.759   2.864  18.380  0.00  0.00    +0.000 OA
ATOM     20  H   UNL     1       0.058   2.229  18.151  0.00  0.00    +0.000 HD
ENDBRANCH  18  19
ENDBRANCH  12  18
ENDBRANCH   6  10
BRANCH   8  21
ATOM     21  C   UNL     1       5.362   4.808  14.743  0.00  0.00    +0.000 C 
BRANCH  21  22
ATOM     22  C   UNL     1       6.168   3.766  13.982  0.00  0.00    +0.000 C 
ATOM     23  F   UNL     1       6.968   4.380  13.071  0.00  0.00    +0.000 F 
ENDBRANCH  21  22
ENDBRANCH   8  21
TORSDOF 6
ENDMDL
MODEL 2
REMARK VINA RESULT:      -6.8      1.989      2.315
REMARK  Name = 
REMARK  6 active torsions:
REMARK  status: ('A' for Active; 'I' for Inactive)
REMARK    1  A    between atoms: N_6  and  C_7
REMARK    2  A    between atoms: C_9  and  C_10
REMARK    3  A    between atoms: C_10  and  O_11
REMARK    4  A    between atoms: C_12  and  O_13
REMARK    5  A    between atoms: C_17  and  C_18
REMARK    6  A    between atoms: C_18  and  C_19
REMARK                            x       y       z     vdW  Elec       q    Type
REMARK                         _______ _______ _______ _____ _____    ______ ____
ROOT
ATOM      1  O   UNL     1       6.587   7.409  16.506  0.00  0.00    +0.000 OA
ATOM      2  C   UNL     1       5.692   6.713  16.971  0.00  0.00    +0.000 A 
ATOM      3  N   UNL     1       4.528   7.256  17.444  0.00  0.00    +0.000 N 
ATOM      4  C   UNL     1       3.649   6.616  18.267  0.00  0.00    +0.000 A 
ATOM      5  O   UNL     1       2.790   7.255  18.880  0.00  0.00    +0.000 OA
ATOM      6  N   UNL     1       3.810   5.246  18.382  0.00  0.00    +0.000 N 
ATOM      7  C   UNL     1       4.842   4.594  17.735  0.00  0.00    +0.000 A 
ATOM      8  C   UNL     1       5.797   5.240  17.056  0.00  0.00    +0.000 A 
ATOM      9  H   UNL     1       4.466   8.260  17.417  0.00  0.00    +0.000 HD
ENDROOT
BRANCH   6  10
ATOM     10  C   UNL     1       2.877   4.527  19.248  0.00  0.00    +0.000 C 
ATOM     11  O   UNL     1       3.462   3.293  19.718  0.00  0.00    +0.000 OA
ATOM     12  C   UNL     1       2.521   2.217  19.523  0.00  0.00    +0.000 C 
ATOM     13  C   UNL     1       1.165   2.876  19.279  0.00  0.00    +0.000 C 
ATOM     14  C   UNL     1       1.516   4.203  18.633  0.00  0.00    +0.000 C 
ATOM     15  F   UNL     1       1.613   4.014  17.289  0.00  0.00    +0.000 F 
BRANCH  13  16
ATOM     16  O   UNL     1       0.473   3.088  20.519  0.00  0.00    +0.000 OA
ATOM     17  H   UNL     1       0.134   4.003  20.543  0.00  0.00    +0.000 HD
ENDBRANCH  13  16
BRANCH  12  18
ATOM     18  C   UNL     1       2.986   1.320  18.366  0.00  0.00    +0.000 C 
BRANCH  18  19
ATOM     19  O   UNL     1       4.320   0.852  18.577  0.00  0.00    +0.000 OA
ATOM     20  H   UNL     1       4.671   0.539  17.725  0.00  0.00    +0.000 HD
ENDBRANCH  18  19
ENDBRANCH  12  18
ENDBRANCH   6  10
BRANCH   8  21
ATOM     21  C   UNL     1       6.956   4.544  16.395  0.00  0.00    +0.000 C 
BRANCH  21  22
ATOM     22  C   UNL     1       6.771   4.266  14.911  0.00  0.00    +0.000 C 
ATOM     23  F   UNL     1       7.503   5.149  14.184  0.00  0.00    +0.000 F 
ENDBRANCH  21  22
ENDBRANCH   8  21
TORSDOF 6
ENDMDL
MODEL 3
REMARK VINA RESULT:      -6.8      1.060      1.079
REMARK  Name = 
REMARK  6 active torsions:
REMARK  status: ('A' for Active; 'I' for Inactive)
REMARK    1  A    between atoms: N_6  and  C_7
REMARK    2  A    between atoms: C_9  and  C_10
REMARK    3  A    between atoms: C_10  and  O_11
REMARK    4  A    between atoms: C_12  and  O_13
REMARK    5  A    between atoms: C_17  and  C_18
REMARK    6  A    between atoms: C_18  and  C_19
REMARK                            x       y       z     vdW  Elec       q    Type
REMARK                         _______ _______ _______ _____ _____    ______ ____
ROOT
ATOM      1  O   UNL     1       7.824   5.919  15.519  0.00  0.00    +0.000 OA
ATOM      2  C   UNL     1       7.016   5.700  16.414  0.00  0.00    +0.000 A 
ATOM      3  N   UNL     1       7.280   6.019  17.718  0.00  0.00    +0.000 N 
ATOM      4  C   UNL     1       6.608   5.517  18.794  0.00  0.00    +0.000 A 
ATOM      5  O   UNL     1       7.084   5.615  19.928  0.00  0.00    +0.000 OA
ATOM      6  N   UNL     1       5.410   4.882  18.520  0.00  0.00    +0.000 N 
ATOM      7  C   UNL     1       4.966   4.728  17.221  0.00  0.00    +0.000 A 
ATOM      8  C   UNL     1       5.698   5.079  16.157  0.00  0.00    +0.000 A 
ATOM      9  H   UNL     1       8.189   6.412  17.901  0.00  0.00    +0.000 HD
ENDROOT
BRANCH   6  10
ATOM     10  C   UNL     1       4.658   4.342  19.651  0.00  0.00    +0.000 C 
ATOM     11  O   UNL     1       4.802   2.906  19.723  0.00  0.00    +0.000 OA
ATOM     12  C   UNL     1       3.499   2.307  19.881  0.00  0.00    +0.000 C 
ATOM     13  C   UNL     1       2.560   3.433  20.309  0.00  0.00    +0.000 C 
ATOM     14  C   UNL     1       3.166   4.671  19.676  0.00  0.00    +0.000 C 
ATOM     15  F   UNL     1       2.667   4.797  18.415  0.00  0.00    +0.000 F 
BRANCH  13  16
ATOM     16  O   UNL     1       2.537   3.560  21.739  0.00  0.00    +0.000 OA
ATOM     17  H   UNL     1       1.865   4.223  21.990  0.00  0.00    +0.000 HD
ENDBRANCH  13  16
BRANCH  12  18
ATOM     18  C   UNL     1       3.078   1.618  18.574  0.00  0.00    +0.000 C 
BRANCH  18  19
ATOM     19  O   UNL     1       4.038   0.638  18.173  0.00  0.00    +0.000 OA
ATOM     20  H   UNL     1       3.927  -0.147  18.738  0.00  0.00    +0.000 HD
ENDBRANCH  18  19
ENDBRANCH  12  18
ENDBRANCH   6  10
BRANCH   8  21
ATOM     21  C   UNL     1       5.248   4.865  14.737  0.00  0.00    +0.000 C 
BRANCH  21  22
ATOM     22  C   UNL     1       5.989   3.766  13.992  0.00  0.00    +0.000 C 
ATOM     23  F   UNL     1       6.630   4.293  12.915  0.00  0.00    +0.000 F 
ENDBRANCH  21  22
ENDBRANCH   8  21
TORSDOF 6
ENDMDL
MODEL 4
REMARK VINA RESULT:      -6.7      2.468      3.133
REMARK  Name = 
REMARK  6 active torsions:
REMARK  status: ('A' for Active; 'I' for Inactive)
REMARK    1  A    between atoms: N_6  and  C_7
REMARK    2  A    between atoms: C_9  and  C_10
REMARK    3  A    between atoms: C_10  and  O_11
REMARK    4  A    between atoms: C_12  and  O_13
REMARK    5  A    between atoms: C_17  and  C_18
REMARK    6  A    between atoms: C_18  and  C_19
REMARK                            x       y       z     vdW  Elec       q    Type
REMARK                         _______ _______ _______ _____ _____    ______ ____
ROOT
ATOM      1  O   UNL     1       6.468   7.650  16.776  0.00  0.00    +0.000 OA
ATOM      2  C   UNL     1       5.548   6.899  17.081  0.00  0.00    +0.000 A 
ATOM      3  N   UNL     1       4.278   7.364  17.291  0.00  0.00    +0.000 N 
ATOM      4  C   UNL     1       3.298   6.679  17.947  0.00  0.00    +0.000 A 
ATOM      5  O   UNL     1       2.291   7.266  18.352  0.00  0.00    +0.000 OA
ATOM      6  N   UNL     1       3.527   5.329  18.145  0.00  0.00    +0.000 N 
ATOM      7  C   UNL     1       4.711   4.741  17.743  0.00  0.00    +0.000 A 
ATOM      8  C   UNL     1       5.735   5.441  17.243  0.00  0.00    +0.000 A 
ATOM      9  H   UNL     1       4.153   8.360  17.213  0.00  0.00    +0.000 HD
ENDROOT
BRANCH   6  10
ATOM     10  C   UNL     1       2.492   4.562  18.836  0.00  0.00    +0.000 C 
ATOM     11  O   UNL     1       3.077   3.677  19.815  0.00  0.00    +0.000 OA
ATOM     12  C   UNL     1       2.517   2.357  19.657  0.00  0.00    +0.000 C 
ATOM     13  C   UNL     1       1.262   2.527  18.803  0.00  0.00    +0.000 C 
ATOM     14  C   UNL     1       1.568   3.736  17.941  0.00  0.00    +0.000 C 
ATOM     15  F   UNL     1       2.216   3.312  16.821  0.00  0.00    +0.000 F 
BRANCH  13  16
ATOM     16  O   UNL     1       0.115   2.777  19.630  0.00  0.00    +0.000 OA
ATOM     17  H   UNL     1      -0.545   2.073  19.483  0.00  0.00    +0.000 HD
ENDBRANCH  13  16
BRANCH  12  18
ATOM     18  C   UNL     1       3.561   1.417  19.035  0.00  0.00    +0.000 C 
BRANCH  18  19
ATOM     19  O   UNL     1       4.868   1.682  19.550  0.00  0.00    +0.000 OA
ATOM     20  H   UNL     1       5.518   1.264  18.958  0.00  0.00    +0.000 HD
ENDBRANCH  18  19
ENDBRANCH  12  18
ENDBRANCH   6  10
BRANCH   8  21
ATOM     21  C   UNL     1       7.050   4.819  16.852  0.00  0.00    +0.000 C 
BRANCH  21  22
ATOM     22  C   UNL     1       7.993   4.541  18.013  0.00  0.00    +0.000 C 
ATOM     23  F   UNL     1       8.130   5.661  18.770  0.00  0.00    +0.000 F 
ENDBRANCH  21  22
ENDBRANCH   8  21
TORSDOF 6
ENDMDL
MODEL 5
REMARK VINA RESULT:      -6.6      1.622      1.783
REMARK  Name = 
REMARK  6 active torsions:
REMARK  status: ('A' for Active; 'I' for Inactive)
REMARK    1  A    between atoms: N_6  and  C_7
REMARK    2  A    between atoms: C_9  and  C_10
REMARK    3  A    between atoms: C_10  and  O_11
REMARK    4  A    between atoms: C_12  and  O_13
REMARK    5  A    between atoms: C_17  and  C_18
REMARK    6  A    between atoms: C_18  and  C_19
REMARK                            x       y       z     vdW  Elec       q    Type
REMARK                         _______ _______ _______ _____ _____    ______ ____
ROOT
ATOM      1  O   UNL     1       8.125   5.274  14.090  0.00  0.00    +0.000 OA
ATOM      2  C   UNL     1       7.291   5.245  14.988  0.00  0.00    +0.000 A 
ATOM      3  N   UNL     1       7.311   6.142  16.021  0.00  0.00    +0.000 N 
ATOM      4  C   UNL     1       6.654   5.980  17.205  0.00  0.00    +0.000 A 
ATOM      5  O   UNL     1       6.951   6.672  18.183  0.00  0.00    +0.000 OA
ATOM      6  N   UNL     1       5.684   4.994  17.233  0.00  0.00    +0.000 N 
ATOM      7  C   UNL     1       5.450   4.194  16.131  0.00  0.00    +0.000 A 
ATOM      8  C   UNL     1       6.201   4.246  15.024  0.00  0.00    +0.000 A 
ATOM      9  H   UNL     1       8.070   6.803  16.016  0.00  0.00    +0.000 HD
ENDROOT
BRANCH   6  10
ATOM     10  C   UNL     1       4.953   4.801  18.484  0.00  0.00    +0.000 C 
ATOM     11  O   UNL     1       4.575   3.417  18.648  0.00  0.00    +0.000 OA
ATOM     12  C   UNL     1       3.180   3.345  19.006  0.00  0.00    +0.000 C 
ATOM     13  C   UNL     1       2.781   4.750  19.453  0.00  0.00    +0.000 C 
ATOM     14  C   UNL     1       3.700   5.659  18.659  0.00  0.00    +0.000 C 
ATOM     15  F   UNL     1       3.111   5.924  17.461  0.00  0.00    +0.000 F 
BRANCH  13  16
ATOM     16  O   UNL     1       3.004   4.917  20.862  0.00  0.00    +0.000 OA
ATOM     17  H   UNL     1       2.737   5.819  21.123  0.00  0.00    +0.000 HD
ENDBRANCH  13  16
BRANCH  12  18
ATOM     18  C   UNL     1       2.361   2.823  17.815  0.00  0.00    +0.000 C 
BRANCH  18  19
ATOM     19  O   UNL     1       1.113   3.511  17.703  0.00  0.00    +0.000 OA
ATOM     20  H   UNL     1       1.225   4.406  18.070  0.00  0.00    +0.000 HD
ENDBRANCH  18  19
ENDBRANCH  12  18
ENDBRANCH   6  10
BRANCH   8  21
ATOM     21  C   UNL     1       5.990   3.341  13.839  0.00  0.00    +0.000 C 
BRANCH  21  22
ATOM     22  C   UNL     1       5.106   3.919  12.745  0.00  0.00    +0.000 C 
ATOM     23  F   UNL     1       4.961   3.011  11.745  0.00  0.00    +0.000 F 
ENDBRANCH  21  22
ENDBRANCH   8  21
TORSDOF 6
ENDMDL
MODEL 6
REMARK VINA RESULT:      -6.6      1.669      2.446
REMARK  Name = 
REMARK  6 active torsions:
REMARK  status: ('A' for Active; 'I' for Inactive)
REMARK    1  A    between atoms: N_6  and  C_7
REMARK    2  A    between atoms: C_9  and  C_10
REMARK    3  A    between atoms: C_10  and  O_11
REMARK    4  A    between atoms: C_12  and  O_13
REMARK    5  A    between atoms: C_17  and  C_18
REMARK    6  A    between atoms: C_18  and  C_19
REMARK                            x       y       z     vdW  Elec       q    Type
REMARK                         _______ _______ _______ _____ _____    ______ ____
ROOT
ATOM      1  O   UNL     1       8.183   4.354  16.867  0.00  0.00    +0.000 OA
ATOM      2  C   UNL     1       6.978   4.373  17.088  0.00  0.00    +0.000 A 
ATOM      3  N   UNL     1       6.474   4.230  18.352  0.00  0.00    +0.000 N 
ATOM      4  C   UNL     1       5.181   3.905  18.642  0.00  0.00    +0.000 A 
ATOM      5  O   UNL     1       4.876   3.509  19.770  0.00  0.00    +0.000 OA
ATOM      6  N   UNL     1       4.277   4.019  17.601  0.00  0.00    +0.000 N 
ATOM      7  C   UNL     1       4.690   4.388  16.336  0.00  0.00    +0.000 A 
ATOM      8  C   UNL     1       5.978   4.554  16.013  0.00  0.00    +0.000 A 
ATOM      9  H   UNL     1       7.150   4.075  19.082  0.00  0.00    +0.000 HD
ENDROOT
BRANCH   6  10
ATOM     10  C   UNL     1       2.881   3.688  17.881  0.00  0.00    +0.000 C 
ATOM     11  O   UNL     1       2.468   4.243  19.149  0.00  0.00    +0.000 OA
ATOM     12  C   UNL     1       1.802   3.221  19.920  0.00  0.00    +0.000 C 
ATOM     13  C   UNL     1       1.453   2.105  18.937  0.00  0.00    +0.000 C 
ATOM     14  C   UNL     1       2.537   2.199  17.880  0.00  0.00    +0.000 C 
ATOM     15  F   UNL     1       3.598   1.448  18.285  0.00  0.00    +0.000 F 
BRANCH  13  16
ATOM     16  O   UNL     1       0.161   2.329  18.352  0.00  0.00    +0.000 OA
ATOM     17  H   UNL     1      -0.400   2.810  18.989  0.00  0.00    +0.000 HD
ENDBRANCH  13  16
BRANCH  12  18
ATOM     18  C   UNL     1       2.707   2.764  21.074  0.00  0.00    +0.000 C 
BRANCH  18  19
ATOM     19  O   UNL     1       1.941   2.451  22.239  0.00  0.00    +0.000 OA
ATOM     20  H   UNL     1       1.729   1.502  22.218  0.00  0.00    +0.000 HD
ENDBRANCH  18  19
ENDBRANCH  12  18
ENDBRANCH   6  10
BRANCH   8  21
ATOM     21  C   UNL     1       6.444   4.903  14.624  0.00  0.00    +0.000 C 
BRANCH  21  22
ATOM     22  C   UNL     1       6.242   3.806  13.590  0.00  0.00    +0.000 C 
ATOM     23  F   UNL     1       4.984   3.878  13.083  0.00  0.00    +0.000 F 
ENDBRANCH  21  22
ENDBRANCH   8  21
TORSDOF 6
ENDMDL
MODEL 7
REMARK VINA RESULT:      -6.6      2.208      5.921
REMARK  Name = 
REMARK  6 active torsions:
REMARK  status: ('A' for Active; 'I' for Inactive)
REMARK    1  A    between atoms: N_6  and  C_7
REMARK    2  A    between atoms: C_9  and  C_10
REMARK    3  A    between atoms: C_10  and  O_11
REMARK    4  A    between atoms: C_12  and  O_13
REMARK    5  A    between atoms: C_17  and  C_18
REMARK    6  A    between atoms: C_18  and  C_19
REMARK                            x       y       z     vdW  Elec       q    Type
REMARK                         _______ _______ _______ _____ _____    ______ ____
ROOT
ATOM      1  O   UNL     1       1.547   3.323  21.957  0.00  0.00    +0.000 OA
ATOM      2  C   UNL     1       2.370   3.520  21.070  0.00  0.00    +0.000 A 
ATOM      3  N   UNL     1       3.194   2.526  20.618  0.00  0.00    +0.000 N 
ATOM      4  C   UNL     1       4.337   2.728  19.900  0.00  0.00    +0.000 A 
ATOM      5  O   UNL     1       5.170   1.825  19.785  0.00  0.00    +0.000 OA
ATOM      6  N   UNL     1       4.498   3.991  19.358  0.00  0.00    +0.000 N 
ATOM      7  C   UNL     1       3.572   4.989  19.589  0.00  0.00    +0.000 A 
ATOM      8  C   UNL     1       2.534   4.838  20.420  0.00  0.00    +0.000 A 
ATOM      9  H   UNL     1       3.107   1.635  21.079  0.00  0.00    +0.000 HD
ENDROOT
BRANCH   6  10
ATOM     10  C   UNL     1       5.707   4.239  18.574  0.00  0.00    +0.000 C 
ATOM     11  O   UNL     1       6.073   5.635  18.627  0.00  0.00    +0.000 OA
ATOM     12  C   UNL     1       6.335   6.108  17.289  0.00  0.00    +0.000 C 
ATOM     13  C   UNL     1       6.510   4.862  16.424  0.00  0.00    +0.000 C 
ATOM     14  C   UNL     1       5.644   3.820  17.106  0.00  0.00    +0.000 C 
ATOM     15  F   UNL     1       4.378   3.926  16.616  0.00  0.00    +0.000 F 
BRANCH  13  16
ATOM     16  O   UNL     1       7.883   4.442  16.408  0.00  0.00    +0.000 OA
ATOM     17  H   UNL     1       8.073   4.000  15.559  0.00  0.00    +0.000 HD
ENDBRANCH  13  16
BRANCH  12  18
ATOM     18  C   UNL     1       5.192   7.024  16.825  0.00  0.00    +0.000 C 
BRANCH  18  19
ATOM     19  O   UNL     1       5.014   6.952  15.409  0.00  0.00    +0.000 OA
ATOM     20  H   UNL     1       4.140   6.562  15.232  0.00  0.00    +0.000 HD
ENDBRANCH  18  19
ENDBRANCH  12  18
ENDBRANCH   6  10
BRANCH   8  21
ATOM     21  C   UNL     1       1.549   5.937  20.722  0.00  0.00    +0.000 C 
BRANCH  21  22
ATOM     22  C   UNL     1       1.956   7.313  20.219  0.00  0.00    +0.000 C 
ATOM     23  F   UNL     1       1.305   8.272  20.928  0.00  0.00    +0.000 F 
ENDBRANCH  21  22
ENDBRANCH   8  21
TORSDOF 6
ENDMDL
MODEL 8
REMARK VINA RESULT:      -6.5      2.175      6.019
REMARK  Name = 
REMARK  6 active torsions:
REMARK  status: ('A' for Active; 'I' for Inactive)
REMARK    1  A    between atoms: N_6  and  C_7
REMARK    2  A    between atoms: C_9  and  C_10
REMARK    3  A    between atoms: C_10  and  O_11
REMARK    4  A    between atoms: C_12  and  O_13
REMARK    5  A    between atoms: C_17  and  C_18
REMARK    6  A    between atoms: C_18  and  C_19
REMARK                            x       y       z     vdW  Elec       q    Type
REMARK                         _______ _______ _______ _____ _____    ______ ____
ROOT
ATOM      1  O   UNL     1       0.830   3.464  20.708  0.00  0.00    +0.000 OA
ATOM      2  C   UNL     1       1.704   3.675  19.874  0.00  0.00    +0.000 A 
ATOM      3  N   UNL     1       2.098   2.712  18.984  0.00  0.00    +0.000 N 
ATOM      4  C   UNL     1       3.261   2.741  18.272  0.00  0.00    +0.000 A 
ATOM      5  O   UNL     1       3.682   1.718  17.725  0.00  0.00    +0.000 OA
ATOM      6  N   UNL     1       3.924   3.954  18.239  0.00  0.00    +0.000 N 
ATOM      7  C   UNL     1       3.448   5.046  18.938  0.00  0.00    +0.000 A 
ATOM      8  C   UNL     1       2.396   4.977  19.763  0.00  0.00    +0.000 A 
ATOM      9  H   UNL     1       1.651   1.815  19.078  0.00  0.00    +0.000 HD
ENDROOT
BRANCH   6  10
ATOM     10  C   UNL     1       5.168   4.023  17.475  0.00  0.00    +0.000 C 
ATOM     11  O   UNL     1       6.312   3.887  18.346  0.00  0.00    +0.000 OA
ATOM     12  C   UNL     1       7.263   4.931  18.047  0.00  0.00    +0.000 C 
ATOM     13  C   UNL     1       6.862   5.494  16.685  0.00  0.00    +0.000 C 
ATOM     14  C   UNL     1       5.361   5.282  16.630  0.00  0.00    +0.000 C 
ATOM     15  F   UNL     1       4.754   6.358  17.202  0.00  0.00    +0.000 F 
BRANCH  13  16
ATOM     16  O   UNL     1       7.511   4.773  15.626  0.00  0.00    +0.000 OA
ATOM     17  H   UNL     1       7.969   3.998  16.001  0.00  0.00    +0.000 HD
ENDBRANCH  13  16
BRANCH  12  18
ATOM     18  C   UNL     1       7.260   5.978  19.171  0.00  0.00    +0.000 C 
BRANCH  18  19
ATOM     19  O   UNL     1       7.875   5.467  20.356  0.00  0.00    +0.000 OA
ATOM     20  H   UNL     1       7.196   5.406  21.049  0.00  0.00    +0.000 HD
ENDBRANCH  18  19
ENDBRANCH  12  18
ENDBRANCH   6  10
BRANCH   8  21
ATOM     21  C   UNL     1       1.902   6.146  20.573  0.00  0.00    +0.000 C 
BRANCH  21  22
ATOM     22  C   UNL     1       2.085   7.503  19.911  0.00  0.00    +0.000 C 
ATOM     23  F   UNL     1       1.534   8.471  20.688  0.00  0.00    +0.000 F 
ENDBRANCH  21  22
ENDBRANCH   8  21
TORSDOF 6
ENDMDL
MODEL 9
REMARK VINA RESULT:      -6.5      1.034      1.056
REMARK  Name = 
REMARK  6 active torsions:
REMARK  status: ('A' for Active; 'I' for Inactive)
REMARK    1  A    between atoms: N_6  and  C_7
REMARK    2  A    between atoms: C_9  and  C_10
REMARK    3  A    between atoms: C_10  and  O_11
REMARK    4  A    between atoms: C_12  and  O_13
REMARK    5  A    between atoms: C_17  and  C_18
REMARK    6  A    between atoms: C_18  and  C_19
REMARK                            x       y       z     vdW  Elec       q    Type
REMARK                         _______ _______ _______ _____ _____    ______ ____
ROOT
ATOM      1  O   UNL     1       7.914   4.745  15.625  0.00  0.00    +0.000 OA
ATOM      2  C   UNL     1       7.007   4.676  16.446  0.00  0.00    +0.000 A 
ATOM      3  N   UNL     1       7.086   5.302  17.661  0.00  0.00    +0.000 N 
ATOM      4  C   UNL     1       6.303   5.009  18.739  0.00  0.00    +0.000 A 
ATOM      5  O   UNL     1       6.622   5.397  19.866  0.00  0.00    +0.000 OA
ATOM      6  N   UNL     1       5.179   4.242  18.485  0.00  0.00    +0.000 N 
ATOM      7  C   UNL     1       4.915   3.765  17.216  0.00  0.00    +0.000 A 
ATOM      8  C   UNL     1       5.762   3.919  16.191  0.00  0.00    +0.000 A 
ATOM      9  H   UNL     1       7.944   5.792  17.851  0.00  0.00    +0.000 HD
ENDROOT
BRANCH   6  10
ATOM     10  C   UNL     1       4.312   3.919  19.616  0.00  0.00    +0.000 C 
ATOM     11  O   UNL     1       3.686   2.632  19.430  0.00  0.00    +0.000 OA
ATOM     12  C   UNL     1       2.272   2.750  19.690  0.00  0.00    +0.000 C 
ATOM     13  C   UNL     1       2.084   4.069  20.437  0.00  0.00    +0.000 C 
ATOM     14  C   UNL     1       3.217   4.940  19.927  0.00  0.00    +0.000 C 
ATOM     15  F   UNL     1       2.798   5.573  18.797  0.00  0.00    +0.000 F 
BRANCH  13  16
ATOM     16  O   UNL     1       2.201   3.873  21.854  0.00  0.00    +0.000 OA
ATOM     17  H   UNL     1       2.734   3.073  22.023  0.00  0.00    +0.000 HD
ENDBRANCH  13  16
BRANCH  12  18
ATOM     18  C   UNL     1       1.489   2.673  18.371  0.00  0.00    +0.000 C 
BRANCH  18  19
ATOM     19  O   UNL     1       2.106   1.766  17.455  0.00  0.00    +0.000 OA
ATOM     20  H   UNL     1       1.902   0.859  17.741  0.00  0.00    +0.000 HD
ENDBRANCH  18  19
ENDBRANCH  12  18
ENDBRANCH   6  10
BRANCH   8  21
ATOM     21  C   UNL     1       5.510   3.356  14.818  0.00  0.00    +0.000 C 
BRANCH  21  22
ATOM     22  C   UNL     1       5.369   4.397  13.718  0.00  0.00    +0.000 C 
ATOM     23  F   UNL     1       5.222   3.778  12.517  0.00  0.00    +0.000 F 
ENDBRANCH  21  22
ENDBRANCH   8  21
TORSDOF 6
ENDMDL
