MODEL 1
REMARK VINA RESULT:      -7.5      0.000      0.000
REMARK  Name = 
REMARK  7 active torsions:
REMARK  status: ('A' for Active; 'I' for Inactive)
REMARK    1  A    between atoms: C_1  and  O_2
REMARK    2  A    between atoms: O_2  and  C_3
REMARK    3  A    between atoms: C_7  and  O_8
REMARK    4  A    between atoms: O_8  and  C_9
REMARK    5  A    between atoms: C_10  and  O_11
REMARK    6  A    between atoms: C_21  and  O_22
REMARK    7  A    between atoms: C_23  and  O_24
REMARK                            x       y       z     vdW  Elec       q    Type
REMARK                         _______ _______ _______ _____ _____    ______ ____
ROOT
ATOM      1  C   UNL     1       2.584   3.768  20.693  0.00  0.00    +0.000 A 
ATOM      2  C   UNL     1       2.297   5.099  21.005  0.00  0.00    +0.000 A 
ATOM      3  C   UNL     1       2.186   6.093  20.009  0.00  0.00    +0.000 A 
ATOM      4  C   UNL     1       2.419   5.735  18.652  0.00  0.00    +0.000 A 
ATOM      5  C   UNL     1       2.677   4.390  18.328  0.00  0.00    +0.000 A 
ATOM      6  C   UNL     1       2.759   3.426  19.354  0.00  0.00    +0.000 A 
ATOM      7  C   UNL     1       2.378   6.821  17.609  0.00  0.00    +0.000 C 
ATOM      8  C   UNL     1       2.678   8.192  18.184  0.00  0.00    +0.000 C 
ATOM      9  N   UNL     1       1.807   8.469  19.307  0.00  0.00    +0.000 N 
ATOM     10  C   UNL     1       1.269   9.748  19.414  0.00  0.00    +0.000 C 
ATOM     11  O   UNL     1       1.364  10.569  18.499  0.00  0.00    +0.000 OA
ATOM     12  C   UNL     1       0.535  10.077  20.673  0.00  0.00    +0.000 A 
ATOM     13  C   UNL     1       0.183   9.038  21.557  0.00  0.00    +0.000 A 
ATOM     14  C   UNL     1      -0.555   9.331  22.719  0.00  0.00    +0.000 A 
ATOM     15  C   UNL     1      -0.931  10.644  23.013  0.00  0.00    +0.000 A 
ATOM     16  C   UNL     1      -0.566  11.660  22.142  0.00  0.00    +0.000 A 
ATOM     17  C   UNL     1       0.162  11.389  20.981  0.00  0.00    +0.000 A 
ATOM     18  C   UNL     1       0.541   7.611  21.227  0.00  0.00    +0.000 C 
ATOM     19  C   UNL     1       1.858   7.536  20.434  0.00  0.00    +0.000 C 
ENDROOT
BRANCH   1  21
ATOM     20  C   UNL     1       1.368   2.314  22.126  0.00  0.00    +0.000 C 
ATOM     21  O   UNL     1       2.602   2.931  21.776  0.00  0.00    +0.000 OA
ENDBRANCH   1  21
BRANCH   5  22
ATOM     22  O   UNL     1       2.984   3.877  17.088  0.00  0.00    +0.000 OA
ATOM     23  C   UNL     1       4.315   4.002  16.603  0.00  0.00    +0.000 C 
ENDBRANCH   5  22
BRANCH   6  24
ATOM     24  O   UNL     1       2.987   2.125  18.976  0.00  0.00    +0.000 OA
ATOM     25  H   UNL     1       3.945   1.986  19.108  0.00  0.00    +0.000 HD
ENDBRANCH   6  24
BRANCH  16  26
ATOM     26  O   UNL     1      -0.906  12.969  22.379  0.00  0.00    +0.000 OA
ATOM     27  H   UNL     1      -0.142  13.417  22.782  0.00  0.00    +0.000 HD
ENDBRANCH  16  26
BRANCH  17  28
ATOM     28  O   UNL     1       0.492  12.455  20.189  0.00  0.00    +0.000 OA
ATOM     29  H   UNL     1       0.940  13.093  20.775  0.00  0.00    +0.000 HD
ENDBRANCH  17  28
TORSDOF 5
ENDMDL
MODEL 2
REMARK VINA RESULT:      -6.6      1.959      8.053
REMARK  Name = 
REMARK  7 active torsions:
REMARK  status: ('A' for Active; 'I' for Inactive)
REMARK    1  A    between atoms: C_1  and  O_2
REMARK    2  A    between atoms: O_2  and  C_3
REMARK    3  A    between atoms: C_7  and  O_8
REMARK    4  A    between atoms: O_8  and  C_9
REMARK    5  A    between atoms: C_10  and  O_11
REMARK    6  A    between atoms: C_21  and  O_22
REMARK    7  A    between atoms: C_23  and  O_24
REMARK                            x       y       z     vdW  Elec       q    Type
REMARK                         _______ _______ _______ _____ _____    ______ ____
ROOT
ATOM      1  C   UNL     1       1.019  12.631  18.577  0.00  0.00    +0.000 A 
ATOM      2  C   UNL     1       1.754  11.443  18.629  0.00  0.00    +0.000 A 
ATOM      3  C   UNL     1       1.294  10.311  19.335  0.00  0.00    +0.000 A 
ATOM      4  C   UNL     1       0.070  10.400  20.054  0.00  0.00    +0.000 A 
ATOM      5  C   UNL     1      -0.690  11.582  19.979  0.00  0.00    +0.000 A 
ATOM      6  C   UNL     1      -0.202  12.683  19.243  0.00  0.00    +0.000 A 
ATOM      7  C   UNL     1      -0.369   9.212  20.869  0.00  0.00    +0.000 C 
ATOM      8  C   UNL     1       0.795   8.334  21.289  0.00  0.00    +0.000 C 
ATOM      9  N   UNL     1       1.581   7.953  20.134  0.00  0.00    +0.000 N 
ATOM     10  C   UNL     1       2.038   6.641  20.061  0.00  0.00    +0.000 C 
ATOM     11  O   UNL     1       1.641   5.773  20.842  0.00  0.00    +0.000 OA
ATOM     12  C   UNL     1       3.006   6.314  18.970  0.00  0.00    +0.000 A 
ATOM     13  C   UNL     1       3.202   7.237  17.924  0.00  0.00    +0.000 A 
ATOM     14  C   UNL     1       4.071   6.915  16.865  0.00  0.00    +0.000 A 
ATOM     15  C   UNL     1       4.753   5.696  16.846  0.00  0.00    +0.000 A 
ATOM     16  C   UNL     1       4.563   4.802  17.890  0.00  0.00    +0.000 A 
ATOM     17  C   UNL     1       3.700   5.101  18.948  0.00  0.00    +0.000 A 
ATOM     18  C   UNL     1       2.435   8.535  17.908  0.00  0.00    +0.000 C 
ATOM     19  C   UNL     1       2.157   9.036  19.336  0.00  0.00    +0.000 C 
ENDROOT
BRANCH   1  21
ATOM     20  C   UNL     1       2.869  14.078  18.211  0.00  0.00    +0.000 C 
ATOM     21  O   UNL     1       1.589  13.607  17.803  0.00  0.00    +0.000 OA
ENDBRANCH   1  21
BRANCH   5  22
ATOM     22  O   UNL     1      -1.857  11.865  20.652  0.00  0.00    +0.000 OA
ATOM     23  C   UNL     1      -1.787  12.254  22.018  0.00  0.00    +0.000 C 
ENDBRANCH   5  22
BRANCH   6  24
ATOM     24  O   UNL     1      -0.998  13.802  19.185  0.00  0.00    +0.000 OA
ATOM     25  H   UNL     1      -0.470  14.511  19.598  0.00  0.00    +0.000 HD
ENDBRANCH   6  24
BRANCH  16  26
ATOM     26  O   UNL     1       5.206   3.590  17.927  0.00  0.00    +0.000 OA
ATOM     27  H   UNL     1       4.759   3.026  18.582  0.00  0.00    +0.000 HD
ENDBRANCH  16  26
BRANCH  17  28
ATOM     28  O   UNL     1       3.587   4.167  19.942  0.00  0.00    +0.000 OA
ATOM     29  H   UNL     1       2.691   3.791  19.853  0.00  0.00    +0.000 HD
ENDBRANCH  17  28
TORSDOF 5
ENDMDL
MODEL 3
REMARK VINA RESULT:      -6.4      1.482      7.390
REMARK  Name = 
REMARK  7 active torsions:
REMARK  status: ('A' for Active; 'I' for Inactive)
REMARK    1  A    between atoms: C_1  and  O_2
REMARK    2  A    between atoms: O_2  and  C_3
REMARK    3  A    between atoms: C_7  and  O_8
REMARK    4  A    between atoms: O_8  and  C_9
REMARK    5  A    between atoms: C_10  and  O_11
REMARK    6  A    between atoms: C_21  and  O_22
REMARK    7  A    between atoms: C_23  and  O_24
REMARK                            x       y       z     vdW  Elec       q    Type
REMARK                         _______ _______ _______ _____ _____    ______ ____
ROOT
ATOM      1  C   UNL     1      -0.640  11.312  22.129  0.00  0.00    +0.000 A 
ATOM      2  C   UNL     1      -0.264  10.098  21.546  0.00  0.00    +0.000 A 
ATOM      3  C   UNL     1       0.624  10.039  20.451  0.00  0.00    +0.000 A 
ATOM      4  C   UNL     1       1.112  11.254  19.896  0.00  0.00    +0.000 A 
ATOM      5  C   UNL     1       0.764  12.477  20.498  0.00  0.00    +0.000 A 
ATOM      6  C   UNL     1      -0.111  12.488  21.605  0.00  0.00    +0.000 A 
ATOM      7  C   UNL     1       1.994  11.180  18.677  0.00  0.00    +0.000 C 
ATOM      8  C   UNL     1       1.767   9.915  17.871  0.00  0.00    +0.000 C 
ATOM      9  N   UNL     1       1.895   8.749  18.718  0.00  0.00    +0.000 N 
ATOM     10  C   UNL     1       2.571   7.644  18.209  0.00  0.00    +0.000 C 
ATOM     11  O   UNL     1       3.208   7.705  17.155  0.00  0.00    +0.000 OA
ATOM     12  C   UNL     1       2.526   6.385  19.013  0.00  0.00    +0.000 A 
ATOM     13  C   UNL     1       2.057   6.431  20.340  0.00  0.00    +0.000 A 
ATOM     14  C   UNL     1       2.060   5.261  21.122  0.00  0.00    +0.000 A 
ATOM     15  C   UNL     1       2.513   4.050  20.592  0.00  0.00    +0.000 A 
ATOM     16  C   UNL     1       2.959   4.014  19.279  0.00  0.00    +0.000 A 
ATOM     17  C   UNL     1       2.967   5.167  18.488  0.00  0.00    +0.000 A 
ATOM     18  C   UNL     1       1.612   7.742  20.939  0.00  0.00    +0.000 C 
ATOM     19  C   UNL     1       0.996   8.662  19.870  0.00  0.00    +0.000 C 
ENDROOT
BRANCH   1  21
ATOM     20  C   UNL     1      -2.657  11.957  23.207  0.00  0.00    +0.000 C 
ATOM     21  O   UNL     1      -1.465  11.179  23.214  0.00  0.00    +0.000 OA
ENDBRANCH   1  21
BRANCH   5  22
ATOM     22  O   UNL     1       1.091  13.742  20.064  0.00  0.00    +0.000 OA
ATOM     23  C   UNL     1       0.359  14.309  18.985  0.00  0.00    +0.000 C 
ENDBRANCH   5  22
BRANCH   6  24
ATOM     24  O   UNL     1      -0.396  13.709  22.168  0.00  0.00    +0.000 OA
ATOM     25  H   UNL     1       0.320  14.301  21.868  0.00  0.00    +0.000 HD
ENDBRANCH   6  24
BRANCH  16  26
ATOM     26  O   UNL     1       3.413   2.854  18.703  0.00  0.00    +0.000 OA
ATOM     27  H   UNL     1       3.099   2.103  19.236  0.00  0.00    +0.000 HD
ENDBRANCH  16  26
BRANCH  17  28
ATOM     28  O   UNL     1       3.409   5.034  17.199  0.00  0.00    +0.000 OA
ATOM     29  H   UNL     1       2.949   4.253  16.840  0.00  0.00    +0.000 HD
ENDBRANCH  17  28
TORSDOF 5
ENDMDL
MODEL 4
REMARK VINA RESULT:      -6.2      3.131      9.252
REMARK  Name = 
REMARK  7 active torsions:
REMARK  status: ('A' for Active; 'I' for Inactive)
REMARK    1  A    between atoms: C_1  and  O_2
REMARK    2  A    between atoms: O_2  and  C_3
REMARK    3  A    between atoms: C_7  and  O_8
REMARK    4  A    between atoms: O_8  and  C_9
REMARK    5  A    between atoms: C_10  and  O_11
REMARK    6  A    between atoms: C_21  and  O_22
REMARK    7  A    between atoms: C_23  and  O_24
REMARK                            x       y       z     vdW  Elec       q    Type
REMARK                         _______ _______ _______ _____ _____    ______ ____
ROOT
ATOM      1  C   UNL     1      -1.505  15.406  20.366  0.00  0.00    +0.000 A 
ATOM      2  C   UNL     1      -0.710  14.261  20.267  0.00  0.00    +0.000 A 
ATOM      3  C   UNL     1      -0.964  13.106  21.038  0.00  0.00    +0.000 A 
ATOM      4  C   UNL     1      -2.032  13.129  21.978  0.00  0.00    +0.000 A 
ATOM      5  C   UNL     1      -2.855  14.267  22.060  0.00  0.00    +0.000 A 
ATOM      6  C   UNL     1      -2.577  15.392  21.254  0.00  0.00    +0.000 A 
ATOM      7  C   UNL     1      -2.240  11.920  22.853  0.00  0.00    +0.000 C 
ATOM      8  C   UNL     1      -0.972  11.109  23.035  0.00  0.00    +0.000 C 
ATOM      9  N   UNL     1      -0.402  10.770  21.748  0.00  0.00    +0.000 N 
ATOM     10  C   UNL     1       0.104   9.484  21.578  0.00  0.00    +0.000 C 
ATOM     11  O   UNL     1      -0.089   8.597  22.413  0.00  0.00    +0.000 OA
ATOM     12  C   UNL     1       0.862   9.209  20.320  0.00  0.00    +0.000 A 
ATOM     13  C   UNL     1       0.803  10.139  19.263  0.00  0.00    +0.000 A 
ATOM     14  C   UNL     1       1.470   9.864  18.055  0.00  0.00    +0.000 A 
ATOM     15  C   UNL     1       2.201   8.684  17.896  0.00  0.00    +0.000 A 
ATOM     16  C   UNL     1       2.264   7.783  18.949  0.00  0.00    +0.000 A 
ATOM     17  C   UNL     1       1.604   8.036  20.155  0.00  0.00    +0.000 A 
ATOM     18  C   UNL     1      -0.022  11.393  19.405  0.00  0.00    +0.000 C 
ATOM     19  C   UNL     1      -0.048  11.881  20.864  0.00  0.00    +0.000 C 
ENDROOT
BRANCH   1  21
ATOM     20  C   UNL     1      -0.030  16.160  18.662  0.00  0.00    +0.000 C 
ATOM     21  O   UNL     1      -1.147  16.411  19.507  0.00  0.00    +0.000 OA
ENDBRANCH   1  21
BRANCH   5  22
ATOM     22  O   UNL     1      -3.885  14.487  22.946  0.00  0.00    +0.000 OA
ATOM     23  C   UNL     1      -3.576  14.850  24.285  0.00  0.00    +0.000 C 
ENDBRANCH   5  22
BRANCH   6  24
ATOM     24  O   UNL     1      -3.429  16.465  21.359  0.00  0.00    +0.000 OA
ATOM     25  H   UNL     1      -3.422  16.704  22.305  0.00  0.00    +0.000 HD
ENDBRANCH   6  24
BRANCH  16  26
ATOM     26  O   UNL     1       2.967   6.608  18.853  0.00  0.00    +0.000 OA
ATOM     27  H   UNL     1       2.483   5.920  19.341  0.00  0.00    +0.000 HD
ENDBRANCH  16  26
BRANCH  17  28
ATOM     28  O   UNL     1       1.734   7.099  21.145  0.00  0.00    +0.000 OA
ATOM     29  H   UNL     1       1.603   6.235  20.712  0.00  0.00    +0.000 HD
ENDBRANCH  17  28
TORSDOF 5
ENDMDL
MODEL 5
REMARK VINA RESULT:      -6.1      2.147      3.997
REMARK  Name = 
REMARK  7 active torsions:
REMARK  status: ('A' for Active; 'I' for Inactive)
REMARK    1  A    between atoms: C_1  and  O_2
REMARK    2  A    between atoms: O_2  and  C_3
REMARK    3  A    between atoms: C_7  and  O_8
REMARK    4  A    between atoms: O_8  and  C_9
REMARK    5  A    between atoms: C_10  and  O_11
REMARK    6  A    between atoms: C_21  and  O_22
REMARK    7  A    between atoms: C_23  and  O_24
REMARK                            x       y       z     vdW  Elec       q    Type
REMARK                         _______ _______ _______ _____ _____    ______ ____
ROOT
ATOM      1  C   UNL     1       5.114   5.707  16.510  0.00  0.00    +0.000 A 
ATOM      2  C   UNL     1       4.121   6.626  16.856  0.00  0.00    +0.000 A 
ATOM      3  C   UNL     1       3.491   6.606  18.119  0.00  0.00    +0.000 A 
ATOM      4  C   UNL     1       3.845   5.589  19.048  0.00  0.00    +0.000 A 
ATOM      5  C   UNL     1       4.868   4.680  18.718  0.00  0.00    +0.000 A 
ATOM      6  C   UNL     1       5.486   4.750  17.451  0.00  0.00    +0.000 A 
ATOM      7  C   UNL     1       3.107   5.529  20.359  0.00  0.00    +0.000 C 
ATOM      8  C   UNL     1       1.729   6.156  20.280  0.00  0.00    +0.000 C 
ATOM      9  N   UNL     1       1.817   7.502  19.755  0.00  0.00    +0.000 N 
ATOM     10  C   UNL     1       1.030   8.486  20.348  0.00  0.00    +0.000 C 
ATOM     11  O   UNL     1       0.421   8.279  21.400  0.00  0.00    +0.000 OA
ATOM     12  C   UNL     1       0.984   9.819  19.676  0.00  0.00    +0.000 A 
ATOM     13  C   UNL     1       1.916  10.114  18.663  0.00  0.00    +0.000 A 
ATOM     14  C   UNL     1       1.914  11.386  18.062  0.00  0.00    +0.000 A 
ATOM     15  C   UNL     1       0.987  12.358  18.449  0.00  0.00    +0.000 A 
ATOM     16  C   UNL     1       0.064  12.050  19.438  0.00  0.00    +0.000 A 
ATOM     17  C   UNL     1       0.053  10.794  20.051  0.00  0.00    +0.000 A 
ATOM     18  C   UNL     1       2.953   9.092  18.270  0.00  0.00    +0.000 C 
ATOM     19  C   UNL     1       2.411   7.660  18.427  0.00  0.00    +0.000 C 
ENDROOT
BRANCH   1  21
ATOM     20  C   UNL     1       5.640   4.793  14.380  0.00  0.00    +0.000 C 
ATOM     21  O   UNL     1       5.653   5.906  15.267  0.00  0.00    +0.000 OA
ENDBRANCH   1  21
BRANCH   5  22
ATOM     22  O   UNL     1       5.295   3.603  19.461  0.00  0.00    +0.000 OA
ATOM     23  C   UNL     1       4.424   2.491  19.627  0.00  0.00    +0.000 C 
ENDBRANCH   5  22
BRANCH   6  24
ATOM     24  O   UNL     1       6.494   3.852  17.194  0.00  0.00    +0.000 OA
ATOM     25  H   UNL     1       7.285   4.228  17.625  0.00  0.00    +0.000 HD
ENDBRANCH   6  24
BRANCH  16  26
ATOM     26  O   UNL     1      -0.872  12.962  19.859  0.00  0.00    +0.000 OA
ATOM     27  H   UNL     1      -1.707  12.782  19.393  0.00  0.00    +0.000 HD
ENDBRANCH  16  26
BRANCH  17  28
ATOM     28  O   UNL     1      -0.904  10.574  21.004  0.00  0.00    +0.000 OA
ATOM     29  H   UNL     1      -1.221  11.456  21.271  0.00  0.00    +0.000 HD
ENDBRANCH  17  28
TORSDOF 5
ENDMDL
MODEL 6
REMARK VINA RESULT:      -6.1      2.973      9.043
REMARK  Name = 
REMARK  7 active torsions:
REMARK  status: ('A' for Active; 'I' for Inactive)
REMARK    1  A    between atoms: C_1  and  O_2
REMARK    2  A    between atoms: O_2  and  C_3
REMARK    3  A    between atoms: C_7  and  O_8
REMARK    4  A    between atoms: O_8  and  C_9
REMARK    5  A    between atoms: C_10  and  O_11
REMARK    6  A    between atoms: C_21  and  O_22
REMARK    7  A    between atoms: C_23  and  O_24
REMARK                            x       y       z     vdW  Elec       q    Type
REMARK                         _______ _______ _______ _____ _____    ______ ____
ROOT
ATOM      1  C   UNL     1      -0.381  15.267  19.308  0.00  0.00    +0.000 A 
ATOM      2  C   UNL     1       0.276  14.037  19.394  0.00  0.00    +0.000 A 
ATOM      3  C   UNL     1      -0.191  12.997  20.225  0.00  0.00    +0.000 A 
ATOM      4  C   UNL     1      -1.338  13.227  21.035  0.00  0.00    +0.000 A 
ATOM      5  C   UNL     1      -2.023  14.451  20.929  0.00  0.00    +0.000 A 
ATOM      6  C   UNL     1      -1.532  15.456  20.069  0.00  0.00    +0.000 A 
ATOM      7  C   UNL     1      -1.777  12.138  21.978  0.00  0.00    +0.000 C 
ATOM      8  C   UNL     1      -0.641  11.212  22.368  0.00  0.00    +0.000 C 
ATOM      9  N   UNL     1       0.012  10.691  21.185  0.00  0.00    +0.000 N 
ATOM     10  C   UNL     1       0.375   9.347  21.181  0.00  0.00    +0.000 C 
ATOM     11  O   UNL     1      -0.006   8.571  22.060  0.00  0.00    +0.000 OA
ATOM     12  C   UNL     1       1.218   8.871  20.042  0.00  0.00    +0.000 A 
ATOM     13  C   UNL     1       1.379   9.696  18.912  0.00  0.00    +0.000 A 
ATOM     14  C   UNL     1       2.127   9.235  17.813  0.00  0.00    +0.000 A 
ATOM     15  C   UNL     1       2.724   7.972  17.835  0.00  0.00    +0.000 A 
ATOM     16  C   UNL     1       2.570   7.175  18.960  0.00  0.00    +0.000 A 
ATOM     17  C   UNL     1       1.827   7.613  20.060  0.00  0.00    +0.000 A 
ATOM     18  C   UNL     1       0.700  11.041  18.856  0.00  0.00    +0.000 C 
ATOM     19  C   UNL     1       0.584  11.667  20.257  0.00  0.00    +0.000 C 
ENDROOT
BRANCH   1  21
ATOM     20  C   UNL     1       1.578  16.373  18.541  0.00  0.00    +0.000 C 
ATOM     21  O   UNL     1       0.179  16.139  18.413  0.00  0.00    +0.000 OA
ENDBRANCH   1  21
BRANCH   5  22
ATOM     22  O   UNL     1      -3.104  14.867  21.673  0.00  0.00    +0.000 OA
ATOM     23  C   UNL     1      -2.886  15.353  22.991  0.00  0.00    +0.000 C 
ENDBRANCH   5  22
BRANCH   6  24
ATOM     24  O   UNL     1      -2.255  16.622  19.987  0.00  0.00    +0.000 OA
ATOM     25  H   UNL     1      -3.115  16.417  20.403  0.00  0.00    +0.000 HD
ENDBRANCH   6  24
BRANCH  16  26
ATOM     26  O   UNL     1       3.134   5.926  19.041  0.00  0.00    +0.000 OA
ATOM     27  H   UNL     1       3.997   5.949  18.593  0.00  0.00    +0.000 HD
ENDBRANCH  16  26
BRANCH  17  28
ATOM     28  O   UNL     1       1.743   6.767  21.132  0.00  0.00    +0.000 OA
ATOM     29  H   UNL     1       0.808   6.783  21.411  0.00  0.00    +0.000 HD
ENDBRANCH  17  28
TORSDOF 5
ENDMDL
MODEL 7
REMARK VINA RESULT:      -6.1      8.560     10.423
REMARK  Name = 
REMARK  7 active torsions:
REMARK  status: ('A' for Active; 'I' for Inactive)
REMARK    1  A    between atoms: C_1  and  O_2
REMARK    2  A    between atoms: O_2  and  C_3
REMARK    3  A    between atoms: C_7  and  O_8
REMARK    4  A    between atoms: O_8  and  C_9
REMARK    5  A    between atoms: C_10  and  O_11
REMARK    6  A    between atoms: C_21  and  O_22
REMARK    7  A    between atoms: C_23  and  O_24
REMARK                            x       y       z     vdW  Elec       q    Type
REMARK                         _______ _______ _______ _____ _____    ______ ____
ROOT
ATOM      1  C   UNL     1      10.031  12.197  17.890  0.00  0.00    +0.000 A 
ATOM      2  C   UNL     1       8.829  12.797  18.277  0.00  0.00    +0.000 A 
ATOM      3  C   UNL     1       8.713  14.193  18.452  0.00  0.00    +0.000 A 
ATOM      4  C   UNL     1       9.867  15.005  18.275  0.00  0.00    +0.000 A 
ATOM      5  C   UNL     1      11.071  14.411  17.855  0.00  0.00    +0.000 A 
ATOM      6  C   UNL     1      11.137  13.014  17.671  0.00  0.00    +0.000 A 
ATOM      7  C   UNL     1       9.750  16.483  18.545  0.00  0.00    +0.000 C 
ATOM      8  C   UNL     1       8.626  16.810  19.510  0.00  0.00    +0.000 C 
ATOM      9  N   UNL     1       7.382  16.230  19.050  0.00  0.00    +0.000 N 
ATOM     10  C   UNL     1       6.226  16.998  19.159  0.00  0.00    +0.000 C 
ATOM     11  O   UNL     1       6.269  18.194  19.453  0.00  0.00    +0.000 OA
ATOM     12  C   UNL     1       4.927  16.321  18.865  0.00  0.00    +0.000 A 
ATOM     13  C   UNL     1       4.933  15.057  18.243  0.00  0.00    +0.000 A 
ATOM     14  C   UNL     1       3.714  14.435  17.914  0.00  0.00    +0.000 A 
ATOM     15  C   UNL     1       2.496  15.052  18.210  0.00  0.00    +0.000 A 
ATOM     16  C   UNL     1       2.502  16.290  18.836  0.00  0.00    +0.000 A 
ATOM     17  C   UNL     1       3.703  16.926  19.166  0.00  0.00    +0.000 A 
ATOM     18  C   UNL     1       6.241  14.403  17.874  0.00  0.00    +0.000 C 
ATOM     19  C   UNL     1       7.352  14.778  18.870  0.00  0.00    +0.000 C 
ENDROOT
BRANCH   1  21
ATOM     20  C   UNL     1       8.862  10.181  18.358  0.00  0.00    +0.000 C 
ATOM     21  O   UNL     1       9.948  10.841  17.716  0.00  0.00    +0.000 OA
ENDBRANCH   1  21
BRANCH   5  22
ATOM     22  O   UNL     1      12.292  15.028  17.694  0.00  0.00    +0.000 OA
ATOM     23  C   UNL     1      12.333  16.338  17.141  0.00  0.00    +0.000 C 
ENDBRANCH   5  22
BRANCH   6  24
ATOM     24  O   UNL     1      12.331  12.493  17.236  0.00  0.00    +0.000 OA
ATOM     25  H   UNL     1      12.336  12.639  16.271  0.00  0.00    +0.000 HD
ENDBRANCH   6  24
BRANCH  16  26
ATOM     26  O   UNL     1       1.338  16.944  19.154  0.00  0.00    +0.000 OA
ATOM     27  H   UNL     1       1.088  16.703  20.063  0.00  0.00    +0.000 HD
ENDBRANCH  16  26
BRANCH  17  28
ATOM     28  O   UNL     1       3.614  18.137  19.797  0.00  0.00    +0.000 OA
ATOM     29  H   UNL     1       4.507  18.324  20.142  0.00  0.00    +0.000 HD
ENDBRANCH  17  28
TORSDOF 5
ENDMDL
MODEL 8
REMARK VINA RESULT:      -6.1      9.951     12.231
REMARK  Name = 
REMARK  7 active torsions:
REMARK  status: ('A' for Active; 'I' for Inactive)
REMARK    1  A    between atoms: C_1  and  O_2
REMARK    2  A    between atoms: O_2  and  C_3
REMARK    3  A    between atoms: C_7  and  O_8
REMARK    4  A    between atoms: O_8  and  C_9
REMARK    5  A    between atoms: C_10  and  O_11
REMARK    6  A    between atoms: C_21  and  O_22
REMARK    7  A    between atoms: C_23  and  O_24
REMARK                            x       y       z     vdW  Elec       q    Type
REMARK                         _______ _______ _______ _____ _____    ______ ____
ROOT
ATOM      1  C   UNL     1       7.675  12.306  24.757  0.00  0.00    +0.000 A 
ATOM      2  C   UNL     1       8.114  12.470  23.440  0.00  0.00    +0.000 A 
ATOM      3  C   UNL     1       8.801  13.630  23.020  0.00  0.00    +0.000 A 
ATOM      4  C   UNL     1       9.009  14.682  23.955  0.00  0.00    +0.000 A 
ATOM      5  C   UNL     1       8.598  14.509  25.290  0.00  0.00    +0.000 A 
ATOM      6  C   UNL     1       7.934  13.324  25.671  0.00  0.00    +0.000 A 
ATOM      7  C   UNL     1       9.669  15.947  23.474  0.00  0.00    +0.000 C 
ATOM      8  C   UNL     1       9.490  16.165  21.983  0.00  0.00    +0.000 C 
ATOM      9  N   UNL     1       9.926  14.997  21.247  0.00  0.00    +0.000 N 
ATOM     10  C   UNL     1      10.655  15.199  20.079  0.00  0.00    +0.000 C 
ATOM     11  O   UNL     1      11.087  16.312  19.769  0.00  0.00    +0.000 OA
ATOM     12  C   UNL     1      10.929  14.000  19.230  0.00  0.00    +0.000 A 
ATOM     13  C   UNL     1      10.693  12.715  19.755  0.00  0.00    +0.000 A 
ATOM     14  C   UNL     1      10.997  11.579  18.982  0.00  0.00    +0.000 A 
ATOM     15  C   UNL     1      11.520  11.712  17.693  0.00  0.00    +0.000 A 
ATOM     16  C   UNL     1      11.735  12.983  17.181  0.00  0.00    +0.000 A 
ATOM     17  C   UNL     1      11.443  14.123  17.935  0.00  0.00    +0.000 A 
ATOM     18  C   UNL     1      10.175  12.557  21.162  0.00  0.00    +0.000 C 
ATOM     19  C   UNL     1       9.260  13.731  21.554  0.00  0.00    +0.000 C 
ENDROOT
BRANCH   1  21
ATOM     20  C   UNL     1       5.656  11.100  25.098  0.00  0.00    +0.000 C 
ATOM     21  O   UNL     1       7.076  11.099  25.000  0.00  0.00    +0.000 OA
ENDBRANCH   1  21
BRANCH   5  22
ATOM     22  O   UNL     1       8.662  15.435  26.307  0.00  0.00    +0.000 OA
ATOM     23  C   UNL     1       9.893  15.616  26.996  0.00  0.00    +0.000 C 
ENDBRANCH   5  22
BRANCH   6  24
ATOM     24  O   UNL     1       7.578  13.201  26.993  0.00  0.00    +0.000 OA
ATOM     25  H   UNL     1       8.395  12.927  27.451  0.00  0.00    +0.000 HD
ENDBRANCH   6  24
BRANCH  16  26
ATOM     26  O   UNL     1      12.244  13.177  15.922  0.00  0.00    +0.000 OA
ATOM     27  H   UNL     1      11.511  13.134  15.284  0.00  0.00    +0.000 HD
ENDBRANCH  16  26
BRANCH  17  28
ATOM     28  O   UNL     1      11.671  15.336  17.344  0.00  0.00    +0.000 OA
ATOM     29  H   UNL     1      12.639  15.410  17.253  0.00  0.00    +0.000 HD
ENDBRANCH  17  28
TORSDOF 5
ENDMDL
MODEL 9
REMARK VINA RESULT:      -6.0      3.375      9.030
REMARK  Name = 
REMARK  7 active torsions:
REMARK  status: ('A' for Active; 'I' for Inactive)
REMARK    1  A    between atoms: C_1  and  O_2
REMARK    2  A    between atoms: O_2  and  C_3
REMARK    3  A    between atoms: C_7  and  O_8
REMARK    4  A    between atoms: O_8  and  C_9
REMARK    5  A    between atoms: C_10  and  O_11
REMARK    6  A    between atoms: C_21  and  O_22
REMARK    7  A    between atoms: C_23  and  O_24
REMARK                            x       y       z     vdW  Elec       q    Type
REMARK                         _______ _______ _______ _____ _____    ______ ____
ROOT
ATOM      1  C   UNL     1      -3.696  12.971  23.920  0.00  0.00    +0.000 A 
ATOM      2  C   UNL     1      -2.983  12.211  22.988  0.00  0.00    +0.000 A 
ATOM      3  C   UNL     1      -2.116  12.804  22.046  0.00  0.00    +0.000 A 
ATOM      4  C   UNL     1      -2.002  14.222  22.015  0.00  0.00    +0.000 A 
ATOM      5  C   UNL     1      -2.691  14.991  22.971  0.00  0.00    +0.000 A 
ATOM      6  C   UNL     1      -3.532  14.354  23.908  0.00  0.00    +0.000 A 
ATOM      7  C   UNL     1      -1.137  14.846  20.951  0.00  0.00    +0.000 C 
ATOM      8  C   UNL     1      -0.987  13.960  19.730  0.00  0.00    +0.000 C 
ATOM      9  N   UNL     1      -0.525  12.643  20.117  0.00  0.00    +0.000 N 
ATOM     10  C   UNL     1       0.443  12.033  19.324  0.00  0.00    +0.000 C 
ATOM     11  O   UNL     1       1.035  12.650  18.436  0.00  0.00    +0.000 OA
ATOM     12  C   UNL     1       0.766  10.604  19.620  0.00  0.00    +0.000 A 
ATOM     13  C   UNL     1       0.304  10.026  20.818  0.00  0.00    +0.000 A 
ATOM     14  C   UNL     1       0.647   8.698  21.129  0.00  0.00    +0.000 A 
ATOM     15  C   UNL     1       1.432   7.940  20.256  0.00  0.00    +0.000 A 
ATOM     16  C   UNL     1       1.870   8.516  19.072  0.00  0.00    +0.000 A 
ATOM     17  C   UNL     1       1.543   9.835  18.747  0.00  0.00    +0.000 A 
ATOM     18  C   UNL     1      -0.503  10.849  21.791  0.00  0.00    +0.000 C 
ATOM     19  C   UNL     1      -1.360  11.896  21.059  0.00  0.00    +0.000 C 
ENDROOT
BRANCH   1  21
ATOM     20  C   UNL     1      -5.848  12.185  24.549  0.00  0.00    +0.000 C 
ATOM     21  O   UNL     1      -4.447  12.228  24.791  0.00  0.00    +0.000 OA
ENDBRANCH   1  21
BRANCH   5  22
ATOM     22  O   UNL     1      -2.746  16.364  23.051  0.00  0.00    +0.000 OA
ATOM     23  C   UNL     1      -3.615  17.070  22.175  0.00  0.00    +0.000 C 
ENDBRANCH   5  22
BRANCH   6  24
ATOM     24  O   UNL     1      -4.159  15.153  24.833  0.00  0.00    +0.000 OA
ATOM     25  H   UNL     1      -4.278  14.587  25.620  0.00  0.00    +0.000 HD
ENDBRANCH   6  24
BRANCH  16  26
ATOM     26  O   UNL     1       2.642   7.821  18.175  0.00  0.00    +0.000 OA
ATOM     27  H   UNL     1       3.281   7.282  18.672  0.00  0.00    +0.000 HD
ENDBRANCH  16  26
BRANCH  17  28
ATOM     28  O   UNL     1       2.004  10.315  17.551  0.00  0.00    +0.000 OA
ATOM     29  H   UNL     1       1.643  11.217  17.470  0.00  0.00    +0.000 HD
ENDBRANCH  17  28
TORSDOF 5
ENDMDL
