MODEL 1
REMARK VINA RESULT:      -7.7      0.000      0.000
REMARK  Name = 
REMARK  7 active torsions:
REMARK  status: ('A' for Active; 'I' for Inactive)
REMARK    1  A    between atoms: C_2  and  C_3
REMARK    2  A    between atoms: C_4  and  N_5
REMARK    3  A    between atoms: N_5  and  C_6
REMARK    4  A    between atoms: C_6  and  C_7
REMARK    5  A    between atoms: C_7  and  N_8
REMARK    6  A    between atoms: C_17  and  S_18
REMARK    7  A    between atoms: S_18  and  C_19
REMARK                            x       y       z     vdW  Elec       q    Type
REMARK                         _______ _______ _______ _____ _____    ______ ____
ROOT
ATOM      1  C   UNL     1      -2.038  12.223  20.607  0.00  0.00    +0.000 C 
ATOM      2  C   UNL     1      -1.705  11.777  19.357  0.00  0.00    +0.000 C 
ATOM      3  C   UNL     1      -0.673  10.685  19.245  0.00  0.00    +0.000 A 
ATOM      4  C   UNL     1      -0.272  10.173  17.996  0.00  0.00    +0.000 A 
ATOM      5  C   UNL     1       0.743   9.230  17.887  0.00  0.00    +0.000 A 
ATOM      6  C   UNL     1       1.381   8.750  19.026  0.00  0.00    +0.000 A 
ATOM      7  C   UNL     1       0.939   9.156  20.311  0.00  0.00    +0.000 A 
ATOM      8  C   UNL     1       1.471   8.615  21.504  0.00  0.00    +0.000 A 
ATOM      9  C   UNL     1       1.066   9.057  22.761  0.00  0.00    +0.000 A 
ATOM     10  C   UNL     1       0.116  10.063  22.854  0.00  0.00    +0.000 A 
ATOM     11  C   UNL     1      -0.447  10.605  21.698  0.00  0.00    +0.000 A 
ATOM     12  C   UNL     1      -0.072  10.159  20.413  0.00  0.00    +0.000 A 
ATOM     13  C   UNL     1      -1.451  11.681  21.843  0.00  0.00    +0.000 C 
ATOM     14  O   UNL     1      -1.768  12.103  22.949  0.00  0.00    +0.000 OA
ENDROOT
BRANCH   1  16
ATOM     15  N   UNL     1      -3.935  14.251  20.759  0.00  0.00    +0.000 NA
ATOM     16  C   UNL     1      -3.075  13.332  20.690  0.00  0.00    +0.000 C 
ENDBRANCH   1  16
BRANCH   2  17
ATOM     17  N   UNL     1      -2.243  12.257  18.137  0.00  0.00    +0.000 N 
ATOM     18  H   UNL     1      -2.170  13.251  17.972  0.00  0.00    +0.000 HD
BRANCH  17  19
ATOM     19  C   UNL     1      -3.392  11.679  17.445  0.00  0.00    +0.000 C 
BRANCH  19  20
ATOM     20  C   UNL     1      -4.529  11.141  18.310  0.00  0.00    +0.000 C 
BRANCH  20  21
ATOM     21  N   UNL     1      -5.830  11.263  17.602  0.00  0.00    +0.000 NA
ATOM     22  C   UNL     1      -6.196  12.654  17.215  0.00  0.00    +0.000 C 
ATOM     23  C   UNL     1      -6.491  13.563  18.418  0.00  0.00    +0.000 C 
ATOM     24  O   UNL     1      -7.552  13.019  19.215  0.00  0.00    +0.000 OA
ATOM     25  C   UNL     1      -7.269  11.676  19.625  0.00  0.00    +0.000 C 
ATOM     26  C   UNL     1      -6.941  10.759  18.432  0.00  0.00    +0.000 C 
ENDBRANCH  20  21
ENDBRANCH  19  20
ENDBRANCH  17  19
ENDBRANCH   2  17
BRANCH   6  27
ATOM     27  S   UNL     1       2.726   7.604  18.736  0.00  0.00    +0.000 S 
BRANCH  27  28
ATOM     28  C   UNL     1       1.892   5.975  18.952  0.00  0.00    +0.000 C 
ATOM     29  C   UNL     1       2.042   5.392  20.360  0.00  0.00    +0.000 C 
ATOM     30  C   UNL     1       1.129   4.178  20.528  0.00  0.00    +0.000 C 
ATOM     31  C   UNL     1       1.381   3.118  19.456  0.00  0.00    +0.000 C 
ATOM     32  C   UNL     1       1.367   3.696  18.040  0.00  0.00    +0.000 C 
ATOM     33  C   UNL     1       2.278   4.921  17.905  0.00  0.00    +0.000 C 
ENDBRANCH  27  28
ENDBRANCH   6  27
TORSDOF 7
ENDMDL
MODEL 2
REMARK VINA RESULT:      -7.4      5.006      9.383
REMARK  Name = 
REMARK  7 active torsions:
REMARK  status: ('A' for Active; 'I' for Inactive)
REMARK    1  A    between atoms: C_2  and  C_3
REMARK    2  A    between atoms: C_4  and  N_5
REMARK    3  A    between atoms: N_5  and  C_6
REMARK    4  A    between atoms: C_6  and  C_7
REMARK    5  A    between atoms: C_7  and  N_8
REMARK    6  A    between atoms: C_17  and  S_18
REMARK    7  A    between atoms: S_18  and  C_19
REMARK                            x       y       z     vdW  Elec       q    Type
REMARK                         _______ _______ _______ _____ _____    ______ ____
ROOT
ATOM      1  C   UNL     1       2.779   5.844  19.382  0.00  0.00    +0.000 C 
ATOM      2  C   UNL     1       3.016   6.803  18.434  0.00  0.00    +0.000 C 
ATOM      3  C   UNL     1       2.357   8.147  18.604  0.00  0.00    +0.000 A 
ATOM      4  C   UNL     1       2.547   9.186  17.673  0.00  0.00    +0.000 A 
ATOM      5  C   UNL     1       1.869  10.394  17.781  0.00  0.00    +0.000 A 
ATOM      6  C   UNL     1       0.992  10.616  18.837  0.00  0.00    +0.000 A 
ATOM      7  C   UNL     1       0.850   9.641  19.858  0.00  0.00    +0.000 A 
ATOM      8  C   UNL     1       0.064   9.858  21.012  0.00  0.00    +0.000 A 
ATOM      9  C   UNL     1      -0.110   8.874  21.983  0.00  0.00    +0.000 A 
ATOM     10  C   UNL     1       0.500   7.640  21.818  0.00  0.00    +0.000 A 
ATOM     11  C   UNL     1       1.302   7.399  20.701  0.00  0.00    +0.000 A 
ATOM     12  C   UNL     1       1.513   8.384  19.714  0.00  0.00    +0.000 A 
ATOM     13  C   UNL     1       1.927   6.066  20.561  0.00  0.00    +0.000 C 
ATOM     14  O   UNL     1       1.731   5.186  21.392  0.00  0.00    +0.000 OA
ENDROOT
BRANCH   1  16
ATOM     15  N   UNL     1       4.004   3.375  19.013  0.00  0.00    +0.000 NA
ATOM     16  C   UNL     1       3.449   4.494  19.180  0.00  0.00    +0.000 C 
ENDBRANCH   1  16
BRANCH   2  17
ATOM     17  N   UNL     1       3.831   6.646  17.285  0.00  0.00    +0.000 N 
ATOM     18  H   UNL     1       3.464   6.061  16.548  0.00  0.00    +0.000 HD
BRANCH  17  19
ATOM     19  C   UNL     1       5.292   6.656  17.289  0.00  0.00    +0.000 C 
BRANCH  19  20
ATOM     20  C   UNL     1       5.992   6.687  15.933  0.00  0.00    +0.000 C 
BRANCH  20  21
ATOM     21  N   UNL     1       7.116   5.715  15.900  0.00  0.00    +0.000 NA
ATOM     22  C   UNL     1       7.495   5.253  14.535  0.00  0.00    +0.000 C 
ATOM     23  C   UNL     1       6.416   4.395  13.860  0.00  0.00    +0.000 C 
ATOM     24  O   UNL     1       6.110   3.245  14.661  0.00  0.00    +0.000 OA
ATOM     25  C   UNL     1       5.736   3.613  15.993  0.00  0.00    +0.000 C 
ATOM     26  C   UNL     1       6.795   4.499  16.673  0.00  0.00    +0.000 C 
ENDBRANCH  20  21
ENDBRANCH  19  20
ENDBRANCH  17  19
ENDBRANCH   2  17
BRANCH   6  27
ATOM     27  S   UNL     1       0.123  12.180  18.808  0.00  0.00    +0.000 S 
BRANCH  27  28
ATOM     28  C   UNL     1      -1.520  11.692  18.134  0.00  0.00    +0.000 C 
ATOM     29  C   UNL     1      -2.672  11.891  19.124  0.00  0.00    +0.000 C 
ATOM     30  C   UNL     1      -4.014  11.700  18.416  0.00  0.00    +0.000 C 
ATOM     31  C   UNL     1      -4.106  10.343  17.718  0.00  0.00    +0.000 C 
ATOM     32  C   UNL     1      -2.902  10.059  16.820  0.00  0.00    +0.000 C 
ATOM     33  C   UNL     1      -1.571  10.274  17.550  0.00  0.00    +0.000 C 
ENDBRANCH  27  28
ENDBRANCH   6  27
TORSDOF 7
ENDMDL
MODEL 3
REMARK VINA RESULT:      -7.4      4.190      9.017
REMARK  Name = 
REMARK  7 active torsions:
REMARK  status: ('A' for Active; 'I' for Inactive)
REMARK    1  A    between atoms: C_2  and  C_3
REMARK    2  A    between atoms: C_4  and  N_5
REMARK    3  A    between atoms: N_5  and  C_6
REMARK    4  A    between atoms: C_6  and  C_7
REMARK    5  A    between atoms: C_7  and  N_8
REMARK    6  A    between atoms: C_17  and  S_18
REMARK    7  A    between atoms: S_18  and  C_19
REMARK                            x       y       z     vdW  Elec       q    Type
REMARK                         _______ _______ _______ _____ _____    ______ ____
ROOT
ATOM      1  C   UNL     1       1.772   8.766  19.170  0.00  0.00    +0.000 C 
ATOM      2  C   UNL     1       1.328   8.537  20.445  0.00  0.00    +0.000 C 
ATOM      3  C   UNL     1       0.513   9.613  21.116  0.00  0.00    +0.000 A 
ATOM      4  C   UNL     1       0.023   9.458  22.427  0.00  0.00    +0.000 A 
ATOM      5  C   UNL     1      -0.651  10.484  23.078  0.00  0.00    +0.000 A 
ATOM      6  C   UNL     1      -0.877  11.696  22.435  0.00  0.00    +0.000 A 
ATOM      7  C   UNL     1      -0.495  11.861  21.079  0.00  0.00    +0.000 A 
ATOM      8  C   UNL     1      -0.802  13.026  20.340  0.00  0.00    +0.000 A 
ATOM      9  C   UNL     1      -0.379  13.199  19.024  0.00  0.00    +0.000 A 
ATOM     10  C   UNL     1       0.370  12.204  18.414  0.00  0.00    +0.000 A 
ATOM     11  C   UNL     1       0.673  11.031  19.107  0.00  0.00    +0.000 A 
ATOM     12  C   UNL     1       0.238  10.820  20.432  0.00  0.00    +0.000 A 
ATOM     13  C   UNL     1       1.481  10.000  18.421  0.00  0.00    +0.000 C 
ATOM     14  O   UNL     1       1.894  10.176  17.281  0.00  0.00    +0.000 OA
ENDROOT
BRANCH   1  16
ATOM     15  N   UNL     1       3.285   6.758  17.981  0.00  0.00    +0.000 NA
ATOM     16  C   UNL     1       2.599   7.669  18.520  0.00  0.00    +0.000 C 
ENDBRANCH   1  16
BRANCH   2  17
ATOM     17  N   UNL     1       1.572   7.369  21.208  0.00  0.00    +0.000 N 
ATOM     18  H   UNL     1       2.396   7.376  21.792  0.00  0.00    +0.000 HD
BRANCH  17  19
ATOM     19  C   UNL     1       1.212   6.013  20.799  0.00  0.00    +0.000 C 
BRANCH  19  20
ATOM     20  C   UNL     1       2.283   4.935  20.940  0.00  0.00    +0.000 C 
BRANCH  20  21
ATOM     21  N   UNL     1       1.665   3.583  20.970  0.00  0.00    +0.000 NA
ATOM     22  C   UNL     1       2.637   2.461  21.100  0.00  0.00    +0.000 C 
ATOM     23  C   UNL     1       3.535   2.287  19.865  0.00  0.00    +0.000 C 
ATOM     24  O   UNL     1       2.742   2.069  18.690  0.00  0.00    +0.000 OA
ATOM     25  C   UNL     1       1.780   3.113  18.501  0.00  0.00    +0.000 C 
ATOM     26  C   UNL     1       0.891   3.320  19.742  0.00  0.00    +0.000 C 
ENDBRANCH  20  21
ENDBRANCH  19  20
ENDBRANCH  17  19
ENDBRANCH   2  17
BRANCH   6  27
ATOM     27  S   UNL     1      -1.680  12.957  23.419  0.00  0.00    +0.000 S 
BRANCH  27  28
ATOM     28  C   UNL     1      -3.462  12.592  23.127  0.00  0.00    +0.000 C 
ATOM     29  C   UNL     1      -3.985  13.122  21.788  0.00  0.00    +0.000 C 
ATOM     30  C   UNL     1      -5.385  12.572  21.514  0.00  0.00    +0.000 C 
ATOM     31  C   UNL     1      -6.355  12.879  22.653  0.00  0.00    +0.000 C 
ATOM     32  C   UNL     1      -5.804  12.478  24.022  0.00  0.00    +0.000 C 
ATOM     33  C   UNL     1      -4.395  13.029  24.263  0.00  0.00    +0.000 C 
ENDBRANCH  27  28
ENDBRANCH   6  27
TORSDOF 7
ENDMDL
MODEL 4
REMARK VINA RESULT:      -7.2      4.851      9.391
REMARK  Name = 
REMARK  7 active torsions:
REMARK  status: ('A' for Active; 'I' for Inactive)
REMARK    1  A    between atoms: C_2  and  C_3
REMARK    2  A    between atoms: C_4  and  N_5
REMARK    3  A    between atoms: N_5  and  C_6
REMARK    4  A    between atoms: C_6  and  C_7
REMARK    5  A    between atoms: C_7  and  N_8
REMARK    6  A    between atoms: C_17  and  S_18
REMARK    7  A    between atoms: S_18  and  C_19
REMARK                            x       y       z     vdW  Elec       q    Type
REMARK                         _______ _______ _______ _____ _____    ______ ____
ROOT
ATOM      1  C   UNL     1       2.633   5.629  19.220  0.00  0.00    +0.000 C 
ATOM      2  C   UNL     1       2.811   6.562  18.235  0.00  0.00    +0.000 C 
ATOM      3  C   UNL     1       2.244   7.941  18.453  0.00  0.00    +0.000 A 
ATOM      4  C   UNL     1       2.380   8.957  17.487  0.00  0.00    +0.000 A 
ATOM      5  C   UNL     1       1.780  10.200  17.649  0.00  0.00    +0.000 A 
ATOM      6  C   UNL     1       1.039  10.480  18.791  0.00  0.00    +0.000 A 
ATOM      7  C   UNL     1       0.963   9.526  19.839  0.00  0.00    +0.000 A 
ATOM      8  C   UNL     1       0.323   9.798  21.069  0.00  0.00    +0.000 A 
ATOM      9  C   UNL     1       0.210   8.837  22.071  0.00  0.00    +0.000 A 
ATOM     10  C   UNL     1       0.735   7.571  21.862  0.00  0.00    +0.000 A 
ATOM     11  C   UNL     1       1.393   7.274  20.668  0.00  0.00    +0.000 A 
ATOM     12  C   UNL     1       1.542   8.235  19.645  0.00  0.00    +0.000 A 
ATOM     13  C   UNL     1       1.931   5.909  20.483  0.00  0.00    +0.000 C 
ATOM     14  O   UNL     1       1.786   5.051  21.346  0.00  0.00    +0.000 OA
ENDROOT
BRANCH   1  16
ATOM     15  N   UNL     1       3.685   3.095  18.763  0.00  0.00    +0.000 NA
ATOM     16  C   UNL     1       3.208   4.244  18.970  0.00  0.00    +0.000 C 
ENDBRANCH   1  16
BRANCH   2  17
ATOM     17  N   UNL     1       3.483   6.349  17.006  0.00  0.00    +0.000 N 
ATOM     18  H   UNL     1       2.976   5.840  16.296  0.00  0.00    +0.000 HD
BRANCH  17  19
ATOM     19  C   UNL     1       4.928   6.181  16.861  0.00  0.00    +0.000 C 
BRANCH  19  20
ATOM     20  C   UNL     1       5.818   7.296  17.403  0.00  0.00    +0.000 C 
BRANCH  20  21
ATOM     21  N   UNL     1       7.247   7.015  17.111  0.00  0.00    +0.000 NA
ATOM     22  C   UNL     1       7.500   5.692  16.473  0.00  0.00    +0.000 C 
ATOM     23  C   UNL     1       7.205   4.502  17.398  0.00  0.00    +0.000 C 
ATOM     24  O   UNL     1       7.990   4.586  18.595  0.00  0.00    +0.000 OA
ATOM     25  C   UNL     1       7.798   5.837  19.266  0.00  0.00    +0.000 C 
ATOM     26  C   UNL     1       8.061   7.040  18.342  0.00  0.00    +0.000 C 
ENDBRANCH  20  21
ENDBRANCH  19  20
ENDBRANCH  17  19
ENDBRANCH   2  17
BRANCH   6  27
ATOM     27  S   UNL     1       0.252  12.087  18.831  0.00  0.00    +0.000 S 
BRANCH  27  28
ATOM     28  C   UNL     1      -1.441  11.698  18.216  0.00  0.00    +0.000 C 
ATOM     29  C   UNL     1      -2.542  11.957  19.248  0.00  0.00    +0.000 C 
ATOM     30  C   UNL     1      -3.917  11.848  18.591  0.00  0.00    +0.000 C 
ATOM     31  C   UNL     1      -4.113  10.504  17.890  0.00  0.00    +0.000 C 
ATOM     32  C   UNL     1      -2.961  10.157  16.947  0.00  0.00    +0.000 C 
ATOM     33  C   UNL     1      -1.595  10.290  17.627  0.00  0.00    +0.000 C 
ENDBRANCH  27  28
ENDBRANCH   6  27
TORSDOF 7
ENDMDL
MODEL 5
REMARK VINA RESULT:      -7.0      4.116      8.921
REMARK  Name = 
REMARK  7 active torsions:
REMARK  status: ('A' for Active; 'I' for Inactive)
REMARK    1  A    between atoms: C_2  and  C_3
REMARK    2  A    between atoms: C_4  and  N_5
REMARK    3  A    between atoms: N_5  and  C_6
REMARK    4  A    between atoms: C_6  and  C_7
REMARK    5  A    between atoms: C_7  and  N_8
REMARK    6  A    between atoms: C_17  and  S_18
REMARK    7  A    between atoms: S_18  and  C_19
REMARK                            x       y       z     vdW  Elec       q    Type
REMARK                         _______ _______ _______ _____ _____    ______ ____
ROOT
ATOM      1  C   UNL     1       1.808   8.992  19.118  0.00  0.00    +0.000 C 
ATOM      2  C   UNL     1       1.341   8.680  20.367  0.00  0.00    +0.000 C 
ATOM      3  C   UNL     1       0.499   9.703  21.085  0.00  0.00    +0.000 A 
ATOM      4  C   UNL     1      -0.017   9.461  22.373  0.00  0.00    +0.000 A 
ATOM      5  C   UNL     1      -0.717  10.438  23.072  0.00  0.00    +0.000 A 
ATOM      6  C   UNL     1      -0.943  11.685  22.500  0.00  0.00    +0.000 A 
ATOM      7  C   UNL     1      -0.536  11.938  21.165  0.00  0.00    +0.000 A 
ATOM      8  C   UNL     1      -0.841  13.143  20.493  0.00  0.00    +0.000 A 
ATOM      9  C   UNL     1      -0.392  13.402  19.200  0.00  0.00    +0.000 A 
ATOM     10  C   UNL     1       0.381  12.455  18.546  0.00  0.00    +0.000 A 
ATOM     11  C   UNL     1       0.683  11.244  19.171  0.00  0.00    +0.000 A 
ATOM     12  C   UNL     1       0.223  10.947  20.471  0.00  0.00    +0.000 A 
ATOM     13  C   UNL     1       1.518  10.266  18.441  0.00  0.00    +0.000 C 
ATOM     14  O   UNL     1       1.953  10.517  17.323  0.00  0.00    +0.000 OA
ENDROOT
BRANCH   1  16
ATOM     15  N   UNL     1       3.370   7.078  17.841  0.00  0.00    +0.000 NA
ATOM     16  C   UNL     1       2.662   7.945  18.420  0.00  0.00    +0.000 C 
ENDBRANCH   1  16
BRANCH   2  17
ATOM     17  N   UNL     1       1.583   7.469  21.061  0.00  0.00    +0.000 N 
ATOM     18  H   UNL     1       2.466   7.395  21.545  0.00  0.00    +0.000 HD
BRANCH  17  19
ATOM     19  C   UNL     1       1.078   6.158  20.658  0.00  0.00    +0.000 C 
BRANCH  19  20
ATOM     20  C   UNL     1       2.052   4.985  20.727  0.00  0.00    +0.000 C 
BRANCH  20  21
ATOM     21  N   UNL     1       2.507   4.600  19.366  0.00  0.00    +0.000 NA
ATOM     22  C   UNL     1       1.456   3.971  18.517  0.00  0.00    +0.000 C 
ATOM     23  C   UNL     1       1.012   2.589  19.021  0.00  0.00    +0.000 C 
ATOM     24  O   UNL     1       2.130   1.695  19.097  0.00  0.00    +0.000 OA
ATOM     25  C   UNL     1       3.186   2.236  19.901  0.00  0.00    +0.000 C 
ATOM     26  C   UNL     1       3.622   3.634  19.426  0.00  0.00    +0.000 C 
ENDBRANCH  20  21
ENDBRANCH  19  20
ENDBRANCH  17  19
ENDBRANCH   2  17
BRANCH   6  27
ATOM     27  S   UNL     1      -1.782  12.874  23.542  0.00  0.00    +0.000 S 
BRANCH  27  28
ATOM     28  C   UNL     1      -3.552  12.533  23.162  0.00  0.00    +0.000 C 
ATOM     29  C   UNL     1      -4.007  13.090  21.809  0.00  0.00    +0.000 C 
ATOM     30  C   UNL     1      -5.398  12.560  21.461  0.00  0.00    +0.000 C 
ATOM     31  C   UNL     1      -6.417  12.860  22.559  0.00  0.00    +0.000 C 
ATOM     32  C   UNL     1      -5.935  12.432  23.946  0.00  0.00    +0.000 C 
ATOM     33  C   UNL     1      -4.532  12.963  24.261  0.00  0.00    +0.000 C 
ENDBRANCH  27  28
ENDBRANCH   6  27
TORSDOF 7
ENDMDL
MODEL 6
REMARK VINA RESULT:      -6.9      3.865      5.763
REMARK  Name = 
REMARK  7 active torsions:
REMARK  status: ('A' for Active; 'I' for Inactive)
REMARK    1  A    between atoms: C_2  and  C_3
REMARK    2  A    between atoms: C_4  and  N_5
REMARK    3  A    between atoms: N_5  and  C_6
REMARK    4  A    between atoms: C_6  and  C_7
REMARK    5  A    between atoms: C_7  and  N_8
REMARK    6  A    between atoms: C_17  and  S_18
REMARK    7  A    between atoms: S_18  and  C_19
REMARK                            x       y       z     vdW  Elec       q    Type
REMARK                         _______ _______ _______ _____ _____    ______ ____
ROOT
ATOM      1  C   UNL     1       0.015  13.186  19.965  0.00  0.00    +0.000 C 
ATOM      2  C   UNL     1       0.688  12.346  19.119  0.00  0.00    +0.000 C 
ATOM      3  C   UNL     1       0.871  10.911  19.542  0.00  0.00    +0.000 A 
ATOM      4  C   UNL     1       1.554   9.984  18.731  0.00  0.00    +0.000 A 
ATOM      5  C   UNL     1       1.801   8.685  19.160  0.00  0.00    +0.000 A 
ATOM      6  C   UNL     1       1.355   8.259  20.406  0.00  0.00    +0.000 A 
ATOM      7  C   UNL     1       0.571   9.124  21.212  0.00  0.00    +0.000 A 
ATOM      8  C   UNL     1      -0.007   8.709  22.434  0.00  0.00    +0.000 A 
ATOM      9  C   UNL     1      -0.733   9.581  23.242  0.00  0.00    +0.000 A 
ATOM     10  C   UNL     1      -0.895  10.899  22.845  0.00  0.00    +0.000 A 
ATOM     11  C   UNL     1      -0.358  11.338  21.634  0.00  0.00    +0.000 A 
ATOM     12  C   UNL     1       0.362  10.471  20.786  0.00  0.00    +0.000 A 
ATOM     13  C   UNL     1      -0.549  12.754  21.255  0.00  0.00    +0.000 C 
ATOM     14  O   UNL     1      -1.145  13.531  21.991  0.00  0.00    +0.000 OA
ENDROOT
BRANCH   1  16
ATOM     15  N   UNL     1      -0.280  15.828  19.148  0.00  0.00    +0.000 NA
ATOM     16  C   UNL     1      -0.146  14.630  19.518  0.00  0.00    +0.000 C 
ENDBRANCH   1  16
BRANCH   2  17
ATOM     17  N   UNL     1       1.245  12.705  17.867  0.00  0.00    +0.000 N 
ATOM     18  H   UNL     1       0.808  12.306  17.048  0.00  0.00    +0.000 HD
BRANCH  17  19
ATOM     19  C   UNL     1       2.656  13.004  17.634  0.00  0.00    +0.000 C 
BRANCH  19  20
ATOM     20  C   UNL     1       3.312  14.032  18.552  0.00  0.00    +0.000 C 
BRANCH  20  21
ATOM     21  N   UNL     1       3.958  15.108  17.756  0.00  0.00    +0.000 NA
ATOM     22  C   UNL     1       5.284  15.549  18.274  0.00  0.00    +0.000 C 
ATOM     23  C   UNL     1       5.201  16.270  19.628  0.00  0.00    +0.000 C 
ATOM     24  O   UNL     1       4.342  17.415  19.539  0.00  0.00    +0.000 OA
ATOM     25  C   UNL     1       3.044  17.066  19.045  0.00  0.00    +0.000 C 
ATOM     26  C   UNL     1       3.113  16.317  17.702  0.00  0.00    +0.000 C 
ENDBRANCH  20  21
ENDBRANCH  19  20
ENDBRANCH  17  19
ENDBRANCH   2  17
BRANCH   6  27
ATOM     27  S   UNL     1       1.814   6.592  20.866  0.00  0.00    +0.000 S 
BRANCH  27  28
ATOM     28  C   UNL     1       2.347   5.883  19.250  0.00  0.00    +0.000 C 
ATOM     29  C   UNL     1       1.728   4.515  18.947  0.00  0.00    +0.000 C 
ATOM     30  C   UNL     1       2.020   4.113  17.502  0.00  0.00    +0.000 C 
ATOM     31  C   UNL     1       3.516   4.130  17.193  0.00  0.00    +0.000 C 
ATOM     32  C   UNL     1       4.190   5.439  17.605  0.00  0.00    +0.000 C 
ATOM     33  C   UNL     1       3.867   5.826  19.052  0.00  0.00    +0.000 C 
ENDBRANCH  27  28
ENDBRANCH   6  27
TORSDOF 7
ENDMDL
MODEL 7
REMARK VINA RESULT:      -6.9      2.849      4.022
REMARK  Name = 
REMARK  7 active torsions:
REMARK  status: ('A' for Active; 'I' for Inactive)
REMARK    1  A    between atoms: C_2  and  C_3
REMARK    2  A    between atoms: C_4  and  N_5
REMARK    3  A    between atoms: N_5  and  C_6
REMARK    4  A    between atoms: C_6  and  C_7
REMARK    5  A    between atoms: C_7  and  N_8
REMARK    6  A    between atoms: C_17  and  S_18
REMARK    7  A    between atoms: S_18  and  C_19
REMARK                            x       y       z     vdW  Elec       q    Type
REMARK                         _______ _______ _______ _____ _____    ______ ____
ROOT
ATOM      1  C   UNL     1       0.110  10.431  21.341  0.00  0.00    +0.000 C 
ATOM      2  C   UNL     1       0.600  10.837  20.128  0.00  0.00    +0.000 C 
ATOM      3  C   UNL     1       1.340   9.827  19.288  0.00  0.00    +0.000 A 
ATOM      4  C   UNL     1       1.877  10.165  18.031  0.00  0.00    +0.000 A 
ATOM      5  C   UNL     1       2.636   9.261  17.297  0.00  0.00    +0.000 A 
ATOM      6  C   UNL     1       2.869   7.980  17.785  0.00  0.00    +0.000 A 
ATOM      7  C   UNL     1       2.260   7.560  18.995  0.00  0.00    +0.000 A 
ATOM      8  C   UNL     1       2.365   6.236  19.480  0.00  0.00    +0.000 A 
ATOM      9  C   UNL     1       1.805   5.848  20.695  0.00  0.00    +0.000 A 
ATOM     10  C   UNL     1       1.126   6.783  21.461  0.00  0.00    +0.000 A 
ATOM     11  C   UNL     1       0.983   8.094  21.003  0.00  0.00    +0.000 A 
ATOM     12  C   UNL     1       1.520   8.508  19.766  0.00  0.00    +0.000 A 
ATOM     13  C   UNL     1       0.259   9.060  21.856  0.00  0.00    +0.000 C 
ATOM     14  O   UNL     1      -0.189   8.728  22.947  0.00  0.00    +0.000 OA
ENDROOT
BRANCH   1  16
ATOM     15  N   UNL     1      -1.233  12.335  22.859  0.00  0.00    +0.000 NA
ATOM     16  C   UNL     1      -0.624  11.472  22.171  0.00  0.00    +0.000 C 
ENDBRANCH   1  16
BRANCH   2  17
ATOM     17  N   UNL     1       0.480  12.138  19.581  0.00  0.00    +0.000 N 
ATOM     18  H   UNL     1       1.133  12.831  19.919  0.00  0.00    +0.000 HD
BRANCH  17  19
ATOM     19  C   UNL     1      -0.772  12.748  19.140  0.00  0.00    +0.000 C 
BRANCH  19  20
ATOM     20  C   UNL     1      -1.393  12.211  17.852  0.00  0.00    +0.000 C 
BRANCH  20  21
ATOM     21  N   UNL     1      -2.184  10.983  18.124  0.00  0.00    +0.000 NA
ATOM     22  C   UNL     1      -2.034   9.911  17.100  0.00  0.00    +0.000 C 
ATOM     23  C   UNL     1      -2.631  10.283  15.735  0.00  0.00    +0.000 C 
ATOM     24  O   UNL     1      -4.025  10.599  15.862  0.00  0.00    +0.000 OA
ATOM     25  C   UNL     1      -4.247  11.627  16.835  0.00  0.00    +0.000 C 
ATOM     26  C   UNL     1      -3.627  11.281  18.201  0.00  0.00    +0.000 C 
ENDBRANCH  20  21
ENDBRANCH  19  20
ENDBRANCH  17  19
ENDBRANCH   2  17
BRANCH   6  27
ATOM     27  S   UNL     1       3.932   6.949  16.780  0.00  0.00    +0.000 S 
BRANCH  27  28
ATOM     28  C   UNL     1       5.420   6.774  17.852  0.00  0.00    +0.000 C 
ATOM     29  C   UNL     1       6.719   7.218  17.174  0.00  0.00    +0.000 C 
ATOM     30  C   UNL     1       7.855   7.276  18.195  0.00  0.00    +0.000 C 
ATOM     31  C   UNL     1       8.034   5.947  18.929  0.00  0.00    +0.000 C 
ATOM     32  C   UNL     1       6.724   5.412  19.508  0.00  0.00    +0.000 C 
ATOM     33  C   UNL     1       5.600   5.381  18.467  0.00  0.00    +0.000 C 
ENDBRANCH  27  28
ENDBRANCH   6  27
TORSDOF 7
ENDMDL
MODEL 8
REMARK VINA RESULT:      -6.8      4.017      6.405
REMARK  Name = 
REMARK  7 active torsions:
REMARK  status: ('A' for Active; 'I' for Inactive)
REMARK    1  A    between atoms: C_2  and  C_3
REMARK    2  A    between atoms: C_4  and  N_5
REMARK    3  A    between atoms: N_5  and  C_6
REMARK    4  A    between atoms: C_6  and  C_7
REMARK    5  A    between atoms: C_7  and  N_8
REMARK    6  A    between atoms: C_17  and  S_18
REMARK    7  A    between atoms: S_18  and  C_19
REMARK                            x       y       z     vdW  Elec       q    Type
REMARK                         _______ _______ _______ _____ _____    ______ ____
ROOT
ATOM      1  C   UNL     1       0.794   9.311  19.684  0.00  0.00    +0.000 C 
ATOM      2  C   UNL     1       1.664   9.341  18.628  0.00  0.00    +0.000 C 
ATOM      3  C   UNL     1       2.550   8.142  18.404  0.00  0.00    +0.000 A 
ATOM      4  C   UNL     1       3.474   8.095  17.343  0.00  0.00    +0.000 A 
ATOM      5  C   UNL     1       4.353   7.029  17.189  0.00  0.00    +0.000 A 
ATOM      6  C   UNL     1       4.325   5.961  18.079  0.00  0.00    +0.000 A 
ATOM      7  C   UNL     1       3.340   5.914  19.099  0.00  0.00    +0.000 A 
ATOM      8  C   UNL     1       3.188   4.802  19.958  0.00  0.00    +0.000 A 
ATOM      9  C   UNL     1       2.251   4.787  20.989  0.00  0.00    +0.000 A 
ATOM     10  C   UNL     1       1.441   5.894  21.188  0.00  0.00    +0.000 A 
ATOM     11  C   UNL     1       1.548   7.001  20.345  0.00  0.00    +0.000 A 
ATOM     12  C   UNL     1       2.472   7.034  19.279  0.00  0.00    +0.000 A 
ATOM     13  C   UNL     1       0.670   8.163  20.598  0.00  0.00    +0.000 C 
ATOM     14  O   UNL     1      -0.118   8.167  21.537  0.00  0.00    +0.000 OA
ENDROOT
BRANCH   1  16
ATOM     15  N   UNL     1      -0.806  11.554  20.065  0.00  0.00    +0.000 NA
ATOM     16  C   UNL     1      -0.081  10.537  19.892  0.00  0.00    +0.000 C 
ENDBRANCH   1  16
BRANCH   2  17
ATOM     17  N   UNL     1       1.820  10.413  17.715  0.00  0.00    +0.000 N 
ATOM     18  H   UNL     1       1.740  10.185  16.734  0.00  0.00    +0.000 HD
BRANCH  17  19
ATOM     19  C   UNL     1       2.677  11.577  17.930  0.00  0.00    +0.000 C 
BRANCH  19  20
ATOM     20  C   UNL     1       1.988  12.927  18.108  0.00  0.00    +0.000 C 
BRANCH  20  21
ATOM     21  N   UNL     1       2.713  13.759  19.104  0.00  0.00    +0.000 NA
ATOM     22  C   UNL     1       1.900  14.851  19.709  0.00  0.00    +0.000 C 
ATOM     23  C   UNL     1       1.520  15.953  18.708  0.00  0.00    +0.000 C 
ATOM     24  O   UNL     1       2.694  16.531  18.122  0.00  0.00    +0.000 OA
ATOM     25  C   UNL     1       3.529  15.535  17.520  0.00  0.00    +0.000 C 
ATOM     26  C   UNL     1       3.894  14.407  18.502  0.00  0.00    +0.000 C 
ENDBRANCH  20  21
ENDBRANCH  19  20
ENDBRANCH  17  19
ENDBRANCH   2  17
BRANCH   6  27
ATOM     27  S   UNL     1       5.565   4.699  17.815  0.00  0.00    +0.000 S 
BRANCH  27  28
ATOM     28  C   UNL     1       5.828   4.798  15.993  0.00  0.00    +0.000 C 
ATOM     29  C   UNL     1       5.128   3.681  15.212  0.00  0.00    +0.000 C 
ATOM     30  C   UNL     1       5.188   3.970  13.712  0.00  0.00    +0.000 C 
ATOM     31  C   UNL     1       6.622   4.179  13.225  0.00  0.00    +0.000 C 
ATOM     32  C   UNL     1       7.390   5.196  14.069  0.00  0.00    +0.000 C 
ATOM     33  C   UNL     1       7.299   4.892  15.568  0.00  0.00    +0.000 C 
ENDBRANCH  27  28
ENDBRANCH   6  27
TORSDOF 7
ENDMDL
MODEL 9
REMARK VINA RESULT:      -6.8      0.656      1.133
REMARK  Name = 
REMARK  7 active torsions:
REMARK  status: ('A' for Active; 'I' for Inactive)
REMARK    1  A    between atoms: C_2  and  C_3
REMARK    2  A    between atoms: C_4  and  N_5
REMARK    3  A    between atoms: N_5  and  C_6
REMARK    4  A    between atoms: C_6  and  C_7
REMARK    5  A    between atoms: C_7  and  N_8
REMARK    6  A    between atoms: C_17  and  S_18
REMARK    7  A    between atoms: S_18  and  C_19
REMARK                            x       y       z     vdW  Elec       q    Type
REMARK                         _______ _______ _______ _____ _____    ______ ____
ROOT
ATOM      1  C   UNL     1      -1.648  12.246  20.622  0.00  0.00    +0.000 C 
ATOM      2  C   UNL     1      -1.330  11.791  19.371  0.00  0.00    +0.000 C 
ATOM      3  C   UNL     1      -0.371  10.634  19.258  0.00  0.00    +0.000 A 
ATOM      4  C   UNL     1       0.011  10.110  18.008  0.00  0.00    +0.000 A 
ATOM      5  C   UNL     1       0.963   9.103  17.901  0.00  0.00    +0.000 A 
ATOM      6  C   UNL     1       1.554   8.570  19.041  0.00  0.00    +0.000 A 
ATOM      7  C   UNL     1       1.124   8.991  20.326  0.00  0.00    +0.000 A 
ATOM      8  C   UNL     1       1.604   8.403  21.518  0.00  0.00    +0.000 A 
ATOM      9  C   UNL     1       1.214   8.859  22.776  0.00  0.00    +0.000 A 
ATOM     10  C   UNL     1       0.331   9.924  22.869  0.00  0.00    +0.000 A 
ATOM     11  C   UNL     1      -0.180  10.514  21.712  0.00  0.00    +0.000 A 
ATOM     12  C   UNL     1       0.180  10.058  20.427  0.00  0.00    +0.000 A 
ATOM     13  C   UNL     1      -1.112  11.652  21.859  0.00  0.00    +0.000 C 
ATOM     14  O   UNL     1      -1.415  12.083  22.966  0.00  0.00    +0.000 OA
ENDROOT
BRANCH   1  16
ATOM     15  N   UNL     1      -3.409  14.393  20.776  0.00  0.00    +0.000 NA
ATOM     16  C   UNL     1      -2.610  13.419  20.706  0.00  0.00    +0.000 C 
ENDBRANCH   1  16
BRANCH   2  17
ATOM     17  N   UNL     1      -1.820  12.319  18.150  0.00  0.00    +0.000 N 
ATOM     18  H   UNL     1      -1.760  13.320  18.036  0.00  0.00    +0.000 HD
BRANCH  17  19
ATOM     19  C   UNL     1      -2.923  11.752  17.378  0.00  0.00    +0.000 C 
BRANCH  19  20
ATOM     20  C   UNL     1      -3.957  10.928  18.141  0.00  0.00    +0.000 C 
BRANCH  20  21
ATOM     21  N   UNL     1      -4.810  11.806  18.983  0.00  0.00    +0.000 NA
ATOM     22  C   UNL     1      -5.939  11.108  19.660  0.00  0.00    +0.000 C 
ATOM     23  C   UNL     1      -7.010  10.596  18.686  0.00  0.00    +0.000 C 
ATOM     24  O   UNL     1      -7.544  11.677  17.908  0.00  0.00    +0.000 OA
ATOM     25  C   UNL     1      -6.511  12.398  17.226  0.00  0.00    +0.000 C 
ATOM     26  C   UNL     1      -5.413  12.892  18.186  0.00  0.00    +0.000 C 
ENDBRANCH  20  21
ENDBRANCH  19  20
ENDBRANCH  17  19
ENDBRANCH   2  17
BRANCH   6  27
ATOM     27  S   UNL     1       2.823   7.341  18.754  0.00  0.00    +0.000 S 
BRANCH  27  28
ATOM     28  C   UNL     1       1.887   5.768  18.967  0.00  0.00    +0.000 C 
ATOM     29  C   UNL     1       2.057   5.137  20.352  0.00  0.00    +0.000 C 
ATOM     30  C   UNL     1       1.069   3.985  20.532  0.00  0.00    +0.000 C 
ATOM     31  C   UNL     1       1.198   2.941  19.423  0.00  0.00    +0.000 C 
ATOM     32  C   UNL     1       1.162   3.558  18.024  0.00  0.00    +0.000 C 
ATOM     33  C   UNL     1       2.150   4.720  17.878  0.00  0.00    +0.000 C 
ENDBRANCH  27  28
ENDBRANCH   6  27
TORSDOF 7
ENDMDL
