MODEL 1
REMARK VINA RESULT:      -7.6      0.000      0.000
REMARK  Name = 
REMARK  5 active torsions:
REMARK  status: ('A' for Active; 'I' for Inactive)
REMARK    1  A    between atoms: C_1  and  C_2
REMARK    2  A    between atoms: C_13  and  C_14
REMARK    3  A    between atoms: C_21  and  N_22
REMARK    4  A    between atoms: N_25  and  C_26
REMARK    5  A    between atoms: C_26  and  C_27
REMARK                            x       y       z     vdW  Elec       q    Type
REMARK                         _______ _______ _______ _____ _____    ______ ____
ROOT
ATOM      1  C   UNL     1      -0.251   9.668  23.111  0.00  0.00    +0.000 C 
ATOM      2  C   UNL     1      -0.262   9.963  21.661  0.00  0.00    +0.000 A 
ATOM      3  N   UNL     1       0.195   9.141  20.737  0.00  0.00    +0.000 NA
ATOM      4  N   UNL     1       0.128   9.773  19.527  0.00  0.00    +0.000 NA
ATOM      5  C   UNL     1      -0.385  10.970  19.725  0.00  0.00    +0.000 A 
ATOM      6  N   UNL     1      -0.609  11.169  21.066  0.00  0.00    +0.000 N 
ATOM      7  C   UNL     1      -1.113  12.359  21.646  0.00  0.00    +0.000 A 
ATOM      8  C   UNL     1      -2.019  12.281  22.714  0.00  0.00    +0.000 A 
ATOM      9  C   UNL     1      -2.570  13.437  23.266  0.00  0.00    +0.000 A 
ATOM     10  C   UNL     1      -2.226  14.685  22.759  0.00  0.00    +0.000 A 
ATOM     11  C   UNL     1      -1.351  14.775  21.680  0.00  0.00    +0.000 A 
ATOM     12  C   UNL     1      -0.783  13.619  21.111  0.00  0.00    +0.000 A 
ATOM     13  C   UNL     1       0.134  13.829  19.937  0.00  0.00    +0.000 C 
ATOM     14  N   UNL     1       0.081  13.155  18.835  0.00  0.00    +0.000 NA
ATOM     15  C   UNL     1      -0.767  11.975  18.692  0.00  0.00    +0.000 C 
ENDROOT
BRANCH  13  16
ATOM     16  C   UNL     1       1.163  14.924  20.031  0.00  0.00    +0.000 A 
ATOM     17  C   UNL     1       2.222  14.851  20.946  0.00  0.00    +0.000 A 
ATOM     18  C   UNL     1       3.141  15.898  21.048  0.00  0.00    +0.000 A 
ATOM     19  C   UNL     1       3.024  17.011  20.219  0.00  0.00    +0.000 A 
ATOM     20  C   UNL     1       1.998  17.073  19.278  0.00  0.00    +0.000 A 
ATOM     21  C   UNL     1       1.071  16.032  19.178  0.00  0.00    +0.000 A 
ENDBRANCH  13  16
BRANCH  15  22
ATOM     22  N   UNL     1      -2.161  12.351  18.768  0.00  0.00    +0.000 N 
ATOM     23  C   UNL     1      -3.107  11.618  18.101  0.00  0.00    +0.000 C 
ATOM     24  O   UNL     1      -2.867  10.621  17.434  0.00  0.00    +0.000 OA
ATOM     25  N   UNL     1      -4.371  12.084  18.323  0.00  0.00    +0.000 N 
ATOM     26  H   UNL     1      -2.316  13.344  18.772  0.00  0.00    +0.000 HD
ATOM     27  H   UNL     1      -4.509  12.811  19.006  0.00  0.00    +0.000 HD
BRANCH  25  28
ATOM     28  C   UNL     1      -5.531  11.365  17.842  0.00  0.00    +0.000 C 
BRANCH  28  29
ATOM     29  C   UNL     1      -6.349  10.833  18.987  0.00  0.00    +0.000 A 
ATOM     30  C   UNL     1      -6.647   9.466  19.058  0.00  0.00    +0.000 A 
ATOM     31  C   UNL     1      -7.420   8.962  20.104  0.00  0.00    +0.000 A 
ATOM     32  C   UNL     1      -7.908   9.824  21.085  0.00  0.00    +0.000 A 
ATOM     33  C   UNL     1      -7.622  11.187  21.021  0.00  0.00    +0.000 A 
ATOM     34  C   UNL     1      -6.849  11.692  19.975  0.00  0.00    +0.000 A 
ENDBRANCH  28  29
ENDBRANCH  25  28
ENDBRANCH  15  22
TORSDOF 4
ENDMDL
MODEL 2
REMARK VINA RESULT:      -7.6      1.410      2.078
REMARK  Name = 
REMARK  5 active torsions:
REMARK  status: ('A' for Active; 'I' for Inactive)
REMARK    1  A    between atoms: C_1  and  C_2
REMARK    2  A    between atoms: C_13  and  C_14
REMARK    3  A    between atoms: C_21  and  N_22
REMARK    4  A    between atoms: N_25  and  C_26
REMARK    5  A    between atoms: C_26  and  C_27
REMARK                            x       y       z     vdW  Elec       q    Type
REMARK                         _______ _______ _______ _____ _____    ______ ____
ROOT
ATOM      1  C   UNL     1       0.173   9.426  23.212  0.00  0.00    +0.000 C 
ATOM      2  C   UNL     1       0.451   9.607  21.769  0.00  0.00    +0.000 A 
ATOM      3  N   UNL     1       0.890   8.649  20.977  0.00  0.00    +0.000 NA
ATOM      4  N   UNL     1       1.139   9.189  19.746  0.00  0.00    +0.000 NA
ATOM      5  C   UNL     1       0.833  10.469  19.798  0.00  0.00    +0.000 A 
ATOM      6  N   UNL     1       0.437  10.806  21.070  0.00  0.00    +0.000 N 
ATOM      7  C   UNL     1       0.076  12.107  21.499  0.00  0.00    +0.000 A 
ATOM      8  C   UNL     1      -0.989  12.271  22.398  0.00  0.00    +0.000 A 
ATOM      9  C   UNL     1      -1.396  13.545  22.793  0.00  0.00    +0.000 A 
ATOM     10  C   UNL     1      -0.748  14.671  22.297  0.00  0.00    +0.000 A 
ATOM     11  C   UNL     1       0.291  14.523  21.383  0.00  0.00    +0.000 A 
ATOM     12  C   UNL     1       0.718  13.245  20.973  0.00  0.00    +0.000 A 
ATOM     13  C   UNL     1       1.836  13.200  19.967  0.00  0.00    +0.000 C 
ATOM     14  N   UNL     1       1.837  12.464  18.905  0.00  0.00    +0.000 NA
ATOM     15  C   UNL     1       0.817  11.445  18.671  0.00  0.00    +0.000 C 
ENDROOT
BRANCH  13  16
ATOM     16  C   UNL     1       3.022  14.100  20.188  0.00  0.00    +0.000 A 
ATOM     17  C   UNL     1       3.368  15.089  19.257  0.00  0.00    +0.000 A 
ATOM     18  C   UNL     1       4.498  15.885  19.459  0.00  0.00    +0.000 A 
ATOM     19  C   UNL     1       5.274  15.715  20.603  0.00  0.00    +0.000 A 
ATOM     20  C   UNL     1       4.913  14.761  21.554  0.00  0.00    +0.000 A 
ATOM     21  C   UNL     1       3.788  13.958  21.353  0.00  0.00    +0.000 A 
ENDBRANCH  13  16
BRANCH  15  22
ATOM     22  N   UNL     1      -0.476  12.065  18.487  0.00  0.00    +0.000 N 
ATOM     23  C   UNL     1      -1.497  11.363  17.904  0.00  0.00    +0.000 C 
ATOM     24  O   UNL     1      -1.413  10.204  17.525  0.00  0.00    +0.000 OA
ATOM     25  N   UNL     1      -2.656  12.085  17.856  0.00  0.00    +0.000 N 
ATOM     26  H   UNL     1      -0.430  13.038  18.238  0.00  0.00    +0.000 HD
ATOM     27  H   UNL     1      -2.696  12.974  18.326  0.00  0.00    +0.000 HD
BRANCH  25  28
ATOM     28  C   UNL     1      -3.898  11.481  17.422  0.00  0.00    +0.000 C 
BRANCH  28  29
ATOM     29  C   UNL     1      -4.925  11.512  18.521  0.00  0.00    +0.000 A 
ATOM     30  C   UNL     1      -4.750  12.368  19.617  0.00  0.00    +0.000 A 
ATOM     31  C   UNL     1      -5.684  12.394  20.653  0.00  0.00    +0.000 A 
ATOM     32  C   UNL     1      -6.799  11.559  20.604  0.00  0.00    +0.000 A 
ATOM     33  C   UNL     1      -6.980  10.700  19.521  0.00  0.00    +0.000 A 
ATOM     34  C   UNL     1      -6.046  10.673  18.485  0.00  0.00    +0.000 A 
ENDBRANCH  28  29
ENDBRANCH  25  28
ENDBRANCH  15  22
TORSDOF 4
ENDMDL
MODEL 3
REMARK VINA RESULT:      -7.6      1.608      2.394
REMARK  Name = 
REMARK  5 active torsions:
REMARK  status: ('A' for Active; 'I' for Inactive)
REMARK    1  A    between atoms: C_1  and  C_2
REMARK    2  A    between atoms: C_13  and  C_14
REMARK    3  A    between atoms: C_21  and  N_22
REMARK    4  A    between atoms: N_25  and  C_26
REMARK    5  A    between atoms: C_26  and  C_27
REMARK                            x       y       z     vdW  Elec       q    Type
REMARK                         _______ _______ _______ _____ _____    ______ ____
ROOT
ATOM      1  C   UNL     1      -1.305  11.556  23.270  0.00  0.00    +0.000 C 
ATOM      2  C   UNL     1      -0.830  11.032  21.970  0.00  0.00    +0.000 A 
ATOM      3  N   UNL     1      -0.475   9.779  21.765  0.00  0.00    +0.000 NA
ATOM      4  N   UNL     1       0.009   9.671  20.492  0.00  0.00    +0.000 NA
ATOM      5  C   UNL     1      -0.071  10.859  19.928  0.00  0.00    +0.000 A 
ATOM      6  N   UNL     1      -0.550  11.776  20.832  0.00  0.00    +0.000 N 
ATOM      7  C   UNL     1      -0.724  13.160  20.583  0.00  0.00    +0.000 A 
ATOM      8  C   UNL     1      -1.842  13.824  21.107  0.00  0.00    +0.000 A 
ATOM      9  C   UNL     1      -2.063  15.174  20.831  0.00  0.00    +0.000 A 
ATOM     10  C   UNL     1      -1.172  15.876  20.027  0.00  0.00    +0.000 A 
ATOM     11  C   UNL     1      -0.075  15.222  19.477  0.00  0.00    +0.000 A 
ATOM     12  C   UNL     1       0.166  13.861  19.746  0.00  0.00    +0.000 A 
ATOM     13  C   UNL     1       1.370  13.247  19.084  0.00  0.00    +0.000 C 
ATOM     14  N   UNL     1       1.368  12.113  18.464  0.00  0.00    +0.000 NA
ATOM     15  C   UNL     1       0.220  11.211  18.509  0.00  0.00    +0.000 C 
ENDROOT
BRANCH  13  16
ATOM     16  C   UNL     1       2.662  14.020  19.110  0.00  0.00    +0.000 A 
ATOM     17  C   UNL     1       3.199  14.580  17.943  0.00  0.00    +0.000 A 
ATOM     18  C   UNL     1       4.420  15.256  17.980  0.00  0.00    +0.000 A 
ATOM     19  C   UNL     1       5.100  15.400  19.187  0.00  0.00    +0.000 A 
ATOM     20  C   UNL     1       4.552  14.882  20.360  0.00  0.00    +0.000 A 
ATOM     21  C   UNL     1       3.335  14.198  20.326  0.00  0.00    +0.000 A 
ENDBRANCH  13  16
BRANCH  15  22
ATOM     22  N   UNL     1      -0.913  11.811  17.840  0.00  0.00    +0.000 N 
ATOM     23  C   UNL     1      -1.924  11.022  17.360  0.00  0.00    +0.000 C 
ATOM     24  O   UNL     1      -1.963   9.804  17.469  0.00  0.00    +0.000 OA
ATOM     25  N   UNL     1      -2.932  11.757  16.803  0.00  0.00    +0.000 N 
ATOM     26  H   UNL     1      -0.674  12.598  17.260  0.00  0.00    +0.000 HD
ATOM     27  H   UNL     1      -2.906  12.760  16.888  0.00  0.00    +0.000 HD
BRANCH  25  28
ATOM     28  C   UNL     1      -4.166  11.134  16.376  0.00  0.00    +0.000 C 
BRANCH  28  29
ATOM     29  C   UNL     1      -5.301  11.503  17.292  0.00  0.00    +0.000 A 
ATOM     30  C   UNL     1      -6.019  12.687  17.074  0.00  0.00    +0.000 A 
ATOM     31  C   UNL     1      -7.061  13.052  17.927  0.00  0.00    +0.000 A 
ATOM     32  C   UNL     1      -7.389  12.239  19.010  0.00  0.00    +0.000 A 
ATOM     33  C   UNL     1      -6.678  11.061  19.239  0.00  0.00    +0.000 A 
ATOM     34  C   UNL     1      -5.636  10.695  18.387  0.00  0.00    +0.000 A 
ENDBRANCH  28  29
ENDBRANCH  25  28
ENDBRANCH  15  22
TORSDOF 4
ENDMDL
MODEL 4
REMARK VINA RESULT:      -7.5      2.772      5.567
REMARK  Name = 
REMARK  5 active torsions:
REMARK  status: ('A' for Active; 'I' for Inactive)
REMARK    1  A    between atoms: C_1  and  C_2
REMARK    2  A    between atoms: C_13  and  C_14
REMARK    3  A    between atoms: C_21  and  N_22
REMARK    4  A    between atoms: N_25  and  C_26
REMARK    5  A    between atoms: C_26  and  C_27
REMARK                            x       y       z     vdW  Elec       q    Type
REMARK                         _______ _______ _______ _____ _____    ______ ____
ROOT
ATOM      1  C   UNL     1       0.213  14.951  18.285  0.00  0.00    +0.000 C 
ATOM      2  C   UNL     1       0.481  14.283  19.579  0.00  0.00    +0.000 A 
ATOM      3  N   UNL     1       1.267  14.777  20.515  0.00  0.00    +0.000 NA
ATOM      4  N   UNL     1       1.370  13.857  21.520  0.00  0.00    +0.000 NA
ATOM      5  C   UNL     1       0.631  12.817  21.191  0.00  0.00    +0.000 A 
ATOM      6  N   UNL     1       0.080  13.007  19.947  0.00  0.00    +0.000 N 
ATOM      7  C   UNL     1      -0.735  12.074  19.260  0.00  0.00    +0.000 A 
ATOM      8  C   UNL     1      -1.833  12.529  18.514  0.00  0.00    +0.000 A 
ATOM      9  C   UNL     1      -2.681  11.626  17.873  0.00  0.00    +0.000 A 
ATOM     10  C   UNL     1      -2.447  10.259  17.969  0.00  0.00    +0.000 A 
ATOM     11  C   UNL     1      -1.378   9.793  18.731  0.00  0.00    +0.000 A 
ATOM     12  C   UNL     1      -0.510  10.689  19.383  0.00  0.00    +0.000 A 
ATOM     13  C   UNL     1       0.600  10.079  20.195  0.00  0.00    +0.000 C 
ATOM     14  N   UNL     1       0.912  10.436  21.397  0.00  0.00    +0.000 NA
ATOM     15  C   UNL     1       0.329  11.619  22.026  0.00  0.00    +0.000 C 
ENDROOT
BRANCH  13  16
ATOM     16  C   UNL     1       1.382   8.946  19.584  0.00  0.00    +0.000 A 
ATOM     17  C   UNL     1       1.619   7.761  20.292  0.00  0.00    +0.000 A 
ATOM     18  C   UNL     1       2.384   6.739  19.725  0.00  0.00    +0.000 A 
ATOM     19  C   UNL     1       2.895   6.885  18.437  0.00  0.00    +0.000 A 
ATOM     20  C   UNL     1       2.628   8.044  17.709  0.00  0.00    +0.000 A 
ATOM     21  C   UNL     1       1.871   9.072  18.277  0.00  0.00    +0.000 A 
ENDBRANCH  13  16
BRANCH  15  22
ATOM     22  N   UNL     1      -1.089  11.426  22.233  0.00  0.00    +0.000 N 
ATOM     23  C   UNL     1      -1.769  12.225  23.113  0.00  0.00    +0.000 C 
ATOM     24  O   UNL     1      -1.265  13.136  23.753  0.00  0.00    +0.000 OA
ATOM     25  N   UNL     1      -3.104  11.935  23.146  0.00  0.00    +0.000 N 
ATOM     26  H   UNL     1      -1.375  10.462  22.222  0.00  0.00    +0.000 HD
ATOM     27  H   UNL     1      -3.476  11.279  22.479  0.00  0.00    +0.000 HD
BRANCH  25  28
ATOM     28  C   UNL     1      -4.032  12.760  23.890  0.00  0.00    +0.000 C 
BRANCH  28  29
ATOM     29  C   UNL     1      -5.387  12.769  23.238  0.00  0.00    +0.000 A 
ATOM     30  C   UNL     1      -5.492  12.858  21.843  0.00  0.00    +0.000 A 
ATOM     31  C   UNL     1      -6.742  12.886  21.226  0.00  0.00    +0.000 A 
ATOM     32  C   UNL     1      -7.900  12.832  22.000  0.00  0.00    +0.000 A 
ATOM     33  C   UNL     1      -7.808  12.748  23.388  0.00  0.00    +0.000 A 
ATOM     34  C   UNL     1      -6.558  12.719  24.007  0.00  0.00    +0.000 A 
ENDBRANCH  28  29
ENDBRANCH  25  28
ENDBRANCH  15  22
TORSDOF 4
ENDMDL
MODEL 5
REMARK VINA RESULT:      -7.4      1.490      1.942
REMARK  Name = 
REMARK  5 active torsions:
REMARK  status: ('A' for Active; 'I' for Inactive)
REMARK    1  A    between atoms: C_1  and  C_2
REMARK    2  A    between atoms: C_13  and  C_14
REMARK    3  A    between atoms: C_21  and  N_22
REMARK    4  A    between atoms: N_25  and  C_26
REMARK    5  A    between atoms: C_26  and  C_27
REMARK                            x       y       z     vdW  Elec       q    Type
REMARK                         _______ _______ _______ _____ _____    ______ ____
ROOT
ATOM      1  C   UNL     1       0.069   9.465  23.325  0.00  0.00    +0.000 C 
ATOM      2  C   UNL     1       0.331   9.592  21.873  0.00  0.00    +0.000 A 
ATOM      3  N   UNL     1       0.800   8.616  21.120  0.00  0.00    +0.000 NA
ATOM      4  N   UNL     1       1.020   9.109  19.865  0.00  0.00    +0.000 NA
ATOM      5  C   UNL     1       0.667  10.378  19.863  0.00  0.00    +0.000 A 
ATOM      6  N   UNL     1       0.267  10.757  21.122  0.00  0.00    +0.000 N 
ATOM      7  C   UNL     1      -0.138  12.062  21.496  0.00  0.00    +0.000 A 
ATOM      8  C   UNL     1      -1.202  12.227  22.395  0.00  0.00    +0.000 A 
ATOM      9  C   UNL     1      -1.654  13.501  22.737  0.00  0.00    +0.000 A 
ATOM     10  C   UNL     1      -1.051  14.627  22.186  0.00  0.00    +0.000 A 
ATOM     11  C   UNL     1      -0.014  14.476  21.271  0.00  0.00    +0.000 A 
ATOM     12  C   UNL     1       0.457  13.198  20.915  0.00  0.00    +0.000 A 
ATOM     13  C   UNL     1       1.569  13.149  19.902  0.00  0.00    +0.000 C 
ATOM     14  N   UNL     1       1.590  12.367  18.873  0.00  0.00    +0.000 NA
ATOM     15  C   UNL     1       0.608  11.301  18.693  0.00  0.00    +0.000 C 
ENDROOT
BRANCH  13  16
ATOM     16  C   UNL     1       2.723  14.101  20.073  0.00  0.00    +0.000 A 
ATOM     17  C   UNL     1       3.586  14.009  21.173  0.00  0.00    +0.000 A 
ATOM     18  C   UNL     1       4.624  14.929  21.336  0.00  0.00    +0.000 A 
ATOM     19  C   UNL     1       4.822  15.930  20.388  0.00  0.00    +0.000 A 
ATOM     20  C   UNL     1       3.993  16.004  19.269  0.00  0.00    +0.000 A 
ATOM     21  C   UNL     1       2.949  15.091  19.106  0.00  0.00    +0.000 A 
ENDBRANCH  13  16
BRANCH  15  22
ATOM     22  N   UNL     1      -0.709  11.865  18.493  0.00  0.00    +0.000 N 
ATOM     23  C   UNL     1      -1.625  11.209  17.715  0.00  0.00    +0.000 C 
ATOM     24  O   UNL     1      -1.425  10.135  17.166  0.00  0.00    +0.000 OA
ATOM     25  N   UNL     1      -2.827  11.858  17.676  0.00  0.00    +0.000 N 
ATOM     26  H   UNL     1      -0.715  12.867  18.407  0.00  0.00    +0.000 HD
ATOM     27  H   UNL     1      -2.970  12.654  18.276  0.00  0.00    +0.000 HD
BRANCH  25  28
ATOM     28  C   UNL     1      -3.981  11.261  17.040  0.00  0.00    +0.000 C 
BRANCH  28  29
ATOM     29  C   UNL     1      -5.257  11.756  17.665  0.00  0.00    +0.000 A 
ATOM     30  C   UNL     1      -6.020  12.735  17.015  0.00  0.00    +0.000 A 
ATOM     31  C   UNL     1      -7.195  13.217  17.592  0.00  0.00    +0.000 A 
ATOM     32  C   UNL     1      -7.614  12.728  18.828  0.00  0.00    +0.000 A 
ATOM     33  C   UNL     1      -6.860  11.757  19.486  0.00  0.00    +0.000 A 
ATOM     34  C   UNL     1      -5.684  11.274  18.910  0.00  0.00    +0.000 A 
ENDBRANCH  28  29
ENDBRANCH  25  28
ENDBRANCH  15  22
TORSDOF 4
ENDMDL
MODEL 6
REMARK VINA RESULT:      -7.4      1.473      1.845
REMARK  Name = 
REMARK  5 active torsions:
REMARK  status: ('A' for Active; 'I' for Inactive)
REMARK    1  A    between atoms: C_1  and  C_2
REMARK    2  A    between atoms: C_13  and  C_14
REMARK    3  A    between atoms: C_21  and  N_22
REMARK    4  A    between atoms: N_25  and  C_26
REMARK    5  A    between atoms: C_26  and  C_27
REMARK                            x       y       z     vdW  Elec       q    Type
REMARK                         _______ _______ _______ _____ _____    ______ ____
ROOT
ATOM      1  C   UNL     1      -0.706  10.092  23.230  0.00  0.00    +0.000 C 
ATOM      2  C   UNL     1      -0.293   9.988  21.812  0.00  0.00    +0.000 A 
ATOM      3  N   UNL     1       0.166   8.883  21.257  0.00  0.00    +0.000 NA
ATOM      4  N   UNL     1       0.548   9.172  19.977  0.00  0.00    +0.000 NA
ATOM      5  C   UNL     1       0.302  10.448  19.761  0.00  0.00    +0.000 A 
ATOM      6  N   UNL     1      -0.187  11.032  20.904  0.00  0.00    +0.000 N 
ATOM      7  C   UNL     1      -0.519  12.402  21.047  0.00  0.00    +0.000 A 
ATOM      8  C   UNL     1      -1.650  12.768  21.793  0.00  0.00    +0.000 A 
ATOM      9  C   UNL     1      -2.027  14.106  21.904  0.00  0.00    +0.000 A 
ATOM     10  C   UNL     1      -1.283  15.095  21.272  0.00  0.00    +0.000 A 
ATOM     11  C   UNL     1      -0.176  14.744  20.505  0.00  0.00    +0.000 A 
ATOM     12  C   UNL     1       0.222  13.399  20.383  0.00  0.00    +0.000 A 
ATOM     13  C   UNL     1       1.420  13.128  19.514  0.00  0.00    +0.000 C 
ATOM     14  N   UNL     1       1.478  12.204  18.612  0.00  0.00    +0.000 NA
ATOM     15  C   UNL     1       0.434  11.192  18.475  0.00  0.00    +0.000 C 
ENDROOT
BRANCH  13  16
ATOM     16  C   UNL     1       2.625  14.015  19.676  0.00  0.00    +0.000 A 
ATOM     17  C   UNL     1       3.381  14.008  20.856  0.00  0.00    +0.000 A 
ATOM     18  C   UNL     1       4.469  14.870  21.004  0.00  0.00    +0.000 A 
ATOM     19  C   UNL     1       4.826  15.726  19.965  0.00  0.00    +0.000 A 
ATOM     20  C   UNL     1       4.104  15.710  18.771  0.00  0.00    +0.000 A 
ATOM     21  C   UNL     1       3.010  14.855  18.623  0.00  0.00    +0.000 A 
ENDBRANCH  13  16
BRANCH  15  22
ATOM     22  N   UNL     1      -0.806  11.807  18.057  0.00  0.00    +0.000 N 
ATOM     23  C   UNL     1      -1.756  11.064  17.408  0.00  0.00    +0.000 C 
ATOM     24  O   UNL     1      -1.650   9.872  17.157  0.00  0.00    +0.000 OA
ATOM     25  N   UNL     1      -2.879  11.792  17.132  0.00  0.00    +0.000 N 
ATOM     26  H   UNL     1      -0.701  12.750  17.724  0.00  0.00    +0.000 HD
ATOM     27  H   UNL     1      -2.959  12.723  17.504  0.00  0.00    +0.000 HD
BRANCH  25  28
ATOM     28  C   UNL     1      -4.065  11.163  16.591  0.00  0.00    +0.000 C 
BRANCH  28  29
ATOM     29  C   UNL     1      -5.284  11.538  17.388  0.00  0.00    +0.000 A 
ATOM     30  C   UNL     1      -5.706  10.722  18.446  0.00  0.00    +0.000 A 
ATOM     31  C   UNL     1      -6.845  11.048  19.182  0.00  0.00    +0.000 A 
ATOM     32  C   UNL     1      -7.578  12.189  18.860  0.00  0.00    +0.000 A 
ATOM     33  C   UNL     1      -7.170  13.005  17.805  0.00  0.00    +0.000 A 
ATOM     34  C   UNL     1      -6.030  12.681  17.069  0.00  0.00    +0.000 A 
ENDBRANCH  28  29
ENDBRANCH  25  28
ENDBRANCH  15  22
TORSDOF 4
ENDMDL
MODEL 7
REMARK VINA RESULT:      -7.4      3.079      6.181
REMARK  Name = 
REMARK  5 active torsions:
REMARK  status: ('A' for Active; 'I' for Inactive)
REMARK    1  A    between atoms: C_1  and  C_2
REMARK    2  A    between atoms: C_13  and  C_14
REMARK    3  A    between atoms: C_21  and  N_22
REMARK    4  A    between atoms: N_25  and  C_26
REMARK    5  A    between atoms: C_26  and  C_27
REMARK                            x       y       z     vdW  Elec       q    Type
REMARK                         _______ _______ _______ _____ _____    ______ ____
ROOT
ATOM      1  C   UNL     1      -5.365  12.884  21.134  0.00  0.00    +0.000 C 
ATOM      2  C   UNL     1      -4.061  12.653  21.796  0.00  0.00    +0.000 A 
ATOM      3  N   UNL     1      -3.859  12.780  23.093  0.00  0.00    +0.000 NA
ATOM      4  N   UNL     1      -2.528  12.599  23.341  0.00  0.00    +0.000 NA
ATOM      5  C   UNL     1      -1.934  12.348  22.192  0.00  0.00    +0.000 A 
ATOM      6  N   UNL     1      -2.846  12.417  21.167  0.00  0.00    +0.000 N 
ATOM      7  C   UNL     1      -2.549  12.245  19.793  0.00  0.00    +0.000 A 
ATOM      8  C   UNL     1      -3.452  11.555  18.969  0.00  0.00    +0.000 A 
ATOM      9  C   UNL     1      -3.158  11.327  17.625  0.00  0.00    +0.000 A 
ATOM     10  C   UNL     1      -1.959  11.781  17.086  0.00  0.00    +0.000 A 
ATOM     11  C   UNL     1      -1.043  12.441  17.899  0.00  0.00    +0.000 A 
ATOM     12  C   UNL     1      -1.323  12.683  19.257  0.00  0.00    +0.000 A 
ATOM     13  C   UNL     1      -0.255  13.387  20.049  0.00  0.00    +0.000 C 
ATOM     14  N   UNL     1       0.161  13.013  21.214  0.00  0.00    +0.000 NA
ATOM     15  C   UNL     1      -0.511  11.961  21.973  0.00  0.00    +0.000 C 
ENDROOT
BRANCH  13  16
ATOM     16  C   UNL     1       0.407  14.590  19.431  0.00  0.00    +0.000 A 
ATOM     17  C   UNL     1      -0.322  15.751  19.139  0.00  0.00    +0.000 A 
ATOM     18  C   UNL     1       0.300  16.841  18.525  0.00  0.00    +0.000 A 
ATOM     19  C   UNL     1       1.659  16.787  18.223  0.00  0.00    +0.000 A 
ATOM     20  C   UNL     1       2.400  15.651  18.548  0.00  0.00    +0.000 A 
ATOM     21  C   UNL     1       1.780  14.556  19.155  0.00  0.00    +0.000 A 
ENDBRANCH  13  16
BRANCH  15  22
ATOM     22  N   UNL     1      -0.377  10.692  21.292  0.00  0.00    +0.000 N 
ATOM     23  C   UNL     1       0.542   9.774  21.726  0.00  0.00    +0.000 C 
ATOM     24  O   UNL     1       1.277   9.932  22.690  0.00  0.00    +0.000 OA
ATOM     25  N   UNL     1       0.498   8.618  21.000  0.00  0.00    +0.000 N 
ATOM     26  H   UNL     1      -0.481  10.752  20.293  0.00  0.00    +0.000 HD
ATOM     27  H   UNL     1      -0.236   8.496  20.322  0.00  0.00    +0.000 HD
BRANCH  25  28
ATOM     28  C   UNL     1       1.274   7.459  21.387  0.00  0.00    +0.000 C 
BRANCH  28  29
ATOM     29  C   UNL     1       1.872   6.784  20.184  0.00  0.00    +0.000 A 
ATOM     30  C   UNL     1       2.360   7.556  19.120  0.00  0.00    +0.000 A 
ATOM     31  C   UNL     1       2.901   6.944  17.989  0.00  0.00    +0.000 A 
ATOM     32  C   UNL     1       2.951   5.553  17.909  0.00  0.00    +0.000 A 
ATOM     33  C   UNL     1       2.464   4.776  18.959  0.00  0.00    +0.000 A 
ATOM     34  C   UNL     1       1.923   5.387  20.091  0.00  0.00    +0.000 A 
ENDBRANCH  28  29
ENDBRANCH  25  28
ENDBRANCH  15  22
TORSDOF 4
ENDMDL
MODEL 8
REMARK VINA RESULT:      -7.3      2.813      5.694
REMARK  Name = 
REMARK  5 active torsions:
REMARK  status: ('A' for Active; 'I' for Inactive)
REMARK    1  A    between atoms: C_1  and  C_2
REMARK    2  A    between atoms: C_13  and  C_14
REMARK    3  A    between atoms: C_21  and  N_22
REMARK    4  A    between atoms: N_25  and  C_26
REMARK    5  A    between atoms: C_26  and  C_27
REMARK                            x       y       z     vdW  Elec       q    Type
REMARK                         _______ _______ _______ _____ _____    ______ ____
ROOT
ATOM      1  C   UNL     1       0.196  14.975  18.309  0.00  0.00    +0.000 C 
ATOM      2  C   UNL     1       0.466  14.302  19.600  0.00  0.00    +0.000 A 
ATOM      3  N   UNL     1       1.244  14.798  20.542  0.00  0.00    +0.000 NA
ATOM      4  N   UNL     1       1.354  13.872  21.541  0.00  0.00    +0.000 NA
ATOM      5  C   UNL     1       0.627  12.827  21.204  0.00  0.00    +0.000 A 
ATOM      6  N   UNL     1       0.078  13.019  19.959  0.00  0.00    +0.000 N 
ATOM      7  C   UNL     1      -0.725  12.081  19.264  0.00  0.00    +0.000 A 
ATOM      8  C   UNL     1      -1.825  12.529  18.517  0.00  0.00    +0.000 A 
ATOM      9  C   UNL     1      -2.661  11.621  17.867  0.00  0.00    +0.000 A 
ATOM     10  C   UNL     1      -2.412  10.256  17.956  0.00  0.00    +0.000 A 
ATOM     11  C   UNL     1      -1.341   9.797  18.718  0.00  0.00    +0.000 A 
ATOM     12  C   UNL     1      -0.485  10.698  19.378  0.00  0.00    +0.000 A 
ATOM     13  C   UNL     1       0.629  10.095  20.190  0.00  0.00    +0.000 C 
ATOM     14  N   UNL     1       0.933  10.448  21.395  0.00  0.00    +0.000 NA
ATOM     15  C   UNL     1       0.336  11.620  22.030  0.00  0.00    +0.000 C 
ENDROOT
BRANCH  13  16
ATOM     16  C   UNL     1       1.425   8.975  19.574  0.00  0.00    +0.000 A 
ATOM     17  C   UNL     1       1.964   9.087  18.286  0.00  0.00    +0.000 A 
ATOM     18  C   UNL     1       2.663   8.021  17.716  0.00  0.00    +0.000 A 
ATOM     19  C   UNL     1       2.849   6.844  18.438  0.00  0.00    +0.000 A 
ATOM     20  C   UNL     1       2.351   6.739  19.737  0.00  0.00    +0.000 A 
ATOM     21  C   UNL     1       1.645   7.801  20.308  0.00  0.00    +0.000 A 
ENDBRANCH  13  16
BRANCH  15  22
ATOM     22  N   UNL     1      -1.081  11.411  22.231  0.00  0.00    +0.000 N 
ATOM     23  C   UNL     1      -1.776  12.207  23.101  0.00  0.00    +0.000 C 
ATOM     24  O   UNL     1      -1.286  13.130  23.736  0.00  0.00    +0.000 OA
ATOM     25  N   UNL     1      -3.107  11.901  23.129  0.00  0.00    +0.000 N 
ATOM     26  H   UNL     1      -1.354  10.443  22.227  0.00  0.00    +0.000 HD
ATOM     27  H   UNL     1      -3.467  11.235  22.466  0.00  0.00    +0.000 HD
BRANCH  25  28
ATOM     28  C   UNL     1      -4.049  12.720  23.862  0.00  0.00    +0.000 C 
BRANCH  28  29
ATOM     29  C   UNL     1      -5.220  13.098  22.997  0.00  0.00    +0.000 A 
ATOM     30  C   UNL     1      -6.312  13.777  23.556  0.00  0.00    +0.000 A 
ATOM     31  C   UNL     1      -7.413  14.117  22.770  0.00  0.00    +0.000 A 
ATOM     32  C   UNL     1      -7.435  13.774  21.420  0.00  0.00    +0.000 A 
ATOM     33  C   UNL     1      -6.358  13.093  20.855  0.00  0.00    +0.000 A 
ATOM     34  C   UNL     1      -5.255  12.753  21.639  0.00  0.00    +0.000 A 
ENDBRANCH  28  29
ENDBRANCH  25  28
ENDBRANCH  15  22
TORSDOF 4
ENDMDL
MODEL 9
REMARK VINA RESULT:      -7.3      2.848      6.152
REMARK  Name = 
REMARK  5 active torsions:
REMARK  status: ('A' for Active; 'I' for Inactive)
REMARK    1  A    between atoms: C_1  and  C_2
REMARK    2  A    between atoms: C_13  and  C_14
REMARK    3  A    between atoms: C_21  and  N_22
REMARK    4  A    between atoms: N_25  and  C_26
REMARK    5  A    between atoms: C_26  and  C_27
REMARK                            x       y       z     vdW  Elec       q    Type
REMARK                         _______ _______ _______ _____ _____    ______ ____
ROOT
ATOM      1  C   UNL     1      -5.890  13.099  20.440  0.00  0.00    +0.000 C 
ATOM      2  C   UNL     1      -4.697  12.871  21.287  0.00  0.00    +0.000 A 
ATOM      3  N   UNL     1      -4.665  13.085  22.588  0.00  0.00    +0.000 NA
ATOM      4  N   UNL     1      -3.388  12.875  23.026  0.00  0.00    +0.000 NA
ATOM      5  C   UNL     1      -2.658  12.519  21.989  0.00  0.00    +0.000 A 
ATOM      6  N   UNL     1      -3.422  12.545  20.847  0.00  0.00    +0.000 N 
ATOM      7  C   UNL     1      -2.953  12.262  19.540  0.00  0.00    +0.000 A 
ATOM      8  C   UNL     1      -3.769  11.546  18.651  0.00  0.00    +0.000 A 
ATOM      9  C   UNL     1      -3.309  11.209  17.378  0.00  0.00    +0.000 A 
ATOM     10  C   UNL     1      -2.030  11.580  16.977  0.00  0.00    +0.000 A 
ATOM     11  C   UNL     1      -1.201  12.264  17.860  0.00  0.00    +0.000 A 
ATOM     12  C   UNL     1      -1.648  12.616  19.148  0.00  0.00    +0.000 A 
ATOM     13  C   UNL     1      -0.663  13.337  20.028  0.00  0.00    +0.000 C 
ATOM     14  N   UNL     1      -0.424  13.035  21.262  0.00  0.00    +0.000 NA
ATOM     15  C   UNL     1      -1.238  12.066  21.992  0.00  0.00    +0.000 C 
ENDROOT
BRANCH  13  16
ATOM     16  C   UNL     1       0.128  14.466  19.425  0.00  0.00    +0.000 A 
ATOM     17  C   UNL     1      -0.474  15.693  19.115  0.00  0.00    +0.000 A 
ATOM     18  C   UNL     1       0.267  16.713  18.515  0.00  0.00    +0.000 A 
ATOM     19  C   UNL     1       1.621  16.525  18.246  0.00  0.00    +0.000 A 
ATOM     20  C   UNL     1       2.238  15.322  18.590  0.00  0.00    +0.000 A 
ATOM     21  C   UNL     1       1.498  14.296  19.182  0.00  0.00    +0.000 A 
ENDBRANCH  13  16
BRANCH  15  22
ATOM     22  N   UNL     1      -1.072  10.746  21.423  0.00  0.00    +0.000 N 
ATOM     23  C   UNL     1       0.094  10.056  21.620  0.00  0.00    +0.000 C 
ATOM     24  O   UNL     1       1.039  10.467  22.278  0.00  0.00    +0.000 OA
ATOM     25  N   UNL     1       0.057   8.812  21.057  0.00  0.00    +0.000 N 
ATOM     26  H   UNL     1      -1.482  10.641  20.511  0.00  0.00    +0.000 HD
ATOM     27  H   UNL     1      -0.809   8.480  20.666  0.00  0.00    +0.000 HD
BRANCH  25  28
ATOM     28  C   UNL     1       1.122   7.857  21.278  0.00  0.00    +0.000 C 
BRANCH  28  29
ATOM     29  C   UNL     1       1.867   7.575  20.002  0.00  0.00    +0.000 A 
ATOM     30  C   UNL     1       2.489   6.333  19.814  0.00  0.00    +0.000 A 
ATOM     31  C   UNL     1       3.199   6.065  18.644  0.00  0.00    +0.000 A 
ATOM     32  C   UNL     1       3.298   7.040  17.653  0.00  0.00    +0.000 A 
ATOM     33  C   UNL     1       2.688   8.281  17.831  0.00  0.00    +0.000 A 
ATOM     34  C   UNL     1       1.977   8.550  19.001  0.00  0.00    +0.000 A 
ENDBRANCH  28  29
ENDBRANCH  25  28
ENDBRANCH  15  22
TORSDOF 4
ENDMDL
