MODEL 1
REMARK VINA RESULT:      -8.4      0.000      0.000
REMARK  Name = 
REMARK  5 active torsions:
REMARK  status: ('A' for Active; 'I' for Inactive)
REMARK    1  A    between atoms: C_1  and  C_2
REMARK    2  A    between atoms: C_2  and  C_3
REMARK    3  A    between atoms: C_3  and  C_4
REMARK    4  A    between atoms: C_7  and  C_8
REMARK    5  A    between atoms: C_8  and  N_9
REMARK                            x       y       z     vdW  Elec       q    Type
REMARK                         _______ _______ _______ _____ _____    ______ ____
ROOT
ATOM      1  N   UNL     1       5.398   4.264  15.117  0.00  0.00    +0.000 N 
ATOM      2  C   UNL     1       5.488   5.225  16.095  0.00  0.00    +0.000 C 
ATOM      3  O   UNL     1       6.419   6.022  16.147  0.00  0.00    +0.000 OA
ATOM      4  N   UNL     1       4.449   5.215  16.996  0.00  0.00    +0.000 N 
ATOM      5  C   UNL     1       3.517   4.107  17.193  0.00  0.00    +0.000 C 
ATOM      6  C   UNL     1       2.804   4.385  18.537  0.00  0.00    +0.000 C 
ATOM      7  C   UNL     1       3.568   3.805  19.761  0.00  0.00    +0.000 C 
ATOM      8  C   UNL     1       3.389   2.313  19.988  0.00  0.00    +0.000 C 
ATOM      9  O   UNL     1       2.017   1.948  19.950  0.00  0.00    +0.000 OA
ATOM     10  C   UNL     1       1.408   2.282  18.706  0.00  0.00    +0.000 C 
ATOM     11  C   UNL     1       1.381   3.803  18.519  0.00  0.00    +0.000 C 
ATOM     12  C   UNL     1       2.929   5.925  18.640  0.00  0.00    +0.000 C 
ATOM     13  C   UNL     1       2.051   6.811  17.752  0.00  0.00    +0.000 C 
ATOM     14  C   UNL     1       2.880   8.085  17.587  0.00  0.00    +0.000 C 
ATOM     15  C   UNL     1       4.344   7.666  17.719  0.00  0.00    +0.000 C 
ATOM     16  C   UNL     1       4.342   6.187  18.083  0.00  0.00    +0.000 C 
ATOM     17  H   UNL     1       4.459   4.010  14.854  0.00  0.00    +0.000 HD
ENDROOT
BRANCH   1  18
ATOM     18  C   UNL     1       6.352   4.280  14.032  0.00  0.00    +0.000 C 
BRANCH  18  22
ATOM     19  C   UNL     1       4.394   3.022  11.329  0.00  0.00    +0.000 A 
ATOM     20  N   UNL     1       5.379   2.173  11.133  0.00  0.00    +0.000 NA
ATOM     21  C   UNL     1       6.281   2.484  12.122  0.00  0.00    +0.000 A 
ATOM     22  C   UNL     1       5.807   3.526  12.882  0.00  0.00    +0.000 A 
ATOM     23  O   UNL     1       4.582   3.882  12.378  0.00  0.00    +0.000 OA
BRANCH  19  24
ATOM     24  C   UNL     1       3.136   3.171  10.545  0.00  0.00    +0.000 C 
BRANCH  24  26
ATOM     25  C   UNL     1       2.067   4.962   9.126  0.00  0.00    +0.000 C 
ATOM     26  C   UNL     1       3.324   4.149   9.387  0.00  0.00    +0.000 C 
ENDBRANCH  24  26
ENDBRANCH  19  24
ENDBRANCH  18  22
ENDBRANCH   1  18
TORSDOF 4
ENDMDL
MODEL 2
REMARK VINA RESULT:      -8.2      4.656      8.793
REMARK  Name = 
REMARK  5 active torsions:
REMARK  status: ('A' for Active; 'I' for Inactive)
REMARK    1  A    between atoms: C_1  and  C_2
REMARK    2  A    between atoms: C_2  and  C_3
REMARK    3  A    between atoms: C_3  and  C_4
REMARK    4  A    between atoms: C_7  and  C_8
REMARK    5  A    between atoms: C_8  and  N_9
REMARK                            x       y       z     vdW  Elec       q    Type
REMARK                         _______ _______ _______ _____ _____    ______ ____
ROOT
ATOM      1  N   UNL     1       1.687   8.199  19.567  0.00  0.00    +0.000 N 
ATOM      2  C   UNL     1       2.377   7.851  18.431  0.00  0.00    +0.000 C 
ATOM      3  O   UNL     1       2.473   8.603  17.467  0.00  0.00    +0.000 OA
ATOM      4  N   UNL     1       2.947   6.600  18.475  0.00  0.00    +0.000 N 
ATOM      5  C   UNL     1       2.591   5.547  19.423  0.00  0.00    +0.000 C 
ATOM      6  C   UNL     1       3.187   4.239  18.850  0.00  0.00    +0.000 C 
ATOM      7  C   UNL     1       2.226   3.515  17.865  0.00  0.00    +0.000 C 
ATOM      8  C   UNL     1       1.116   2.709  18.518  0.00  0.00    +0.000 C 
ATOM      9  O   UNL     1       1.628   1.862  19.539  0.00  0.00    +0.000 OA
ATOM     10  C   UNL     1       2.299   2.597  20.558  0.00  0.00    +0.000 C 
ATOM     11  C   UNL     1       3.552   3.273  19.989  0.00  0.00    +0.000 C 
ATOM     12  C   UNL     1       4.356   4.784  17.992  0.00  0.00    +0.000 C 
ATOM     13  C   UNL     1       5.619   5.301  18.685  0.00  0.00    +0.000 C 
ATOM     14  C   UNL     1       6.169   6.334  17.701  0.00  0.00    +0.000 C 
ATOM     15  C   UNL     1       4.966   6.876  16.930  0.00  0.00    +0.000 C 
ATOM     16  C   UNL     1       3.757   6.067  17.381  0.00  0.00    +0.000 C 
ATOM     17  H   UNL     1       2.042   7.799  20.421  0.00  0.00    +0.000 HD
ENDROOT
BRANCH   1  18
ATOM     18  C   UNL     1       1.178   9.545  19.691  0.00  0.00    +0.000 C 
BRANCH  18  22
ATOM     19  C   UNL     1      -0.543  10.567  22.643  0.00  0.00    +0.000 A 
ATOM     20  N   UNL     1       0.321   9.819  23.294  0.00  0.00    +0.000 NA
ATOM     21  C   UNL     1       1.130   9.316  22.303  0.00  0.00    +0.000 A 
ATOM     22  C   UNL     1       0.716   9.775  21.076  0.00  0.00    +0.000 A 
ATOM     23  O   UNL     1      -0.368  10.591  21.285  0.00  0.00    +0.000 OA
BRANCH  19  24
ATOM     24  C   UNL     1      -1.680  11.355  23.196  0.00  0.00    +0.000 C 
BRANCH  24  26
ATOM     25  C   UNL     1      -3.539  12.715  22.169  0.00  0.00    +0.000 C 
ATOM     26  C   UNL     1      -2.036  12.522  22.279  0.00  0.00    +0.000 C 
ENDBRANCH  24  26
ENDBRANCH  19  24
ENDBRANCH  18  22
ENDBRANCH   1  18
TORSDOF 4
ENDMDL
MODEL 3
REMARK VINA RESULT:      -8.0      4.422      7.049
REMARK  Name = 
REMARK  5 active torsions:
REMARK  status: ('A' for Active; 'I' for Inactive)
REMARK    1  A    between atoms: C_1  and  C_2
REMARK    2  A    between atoms: C_2  and  C_3
REMARK    3  A    between atoms: C_3  and  C_4
REMARK    4  A    between atoms: C_7  and  C_8
REMARK    5  A    between atoms: C_8  and  N_9
REMARK                            x       y       z     vdW  Elec       q    Type
REMARK                         _______ _______ _______ _____ _____    ______ ____
ROOT
ATOM      1  N   UNL     1       2.082   8.435  18.552  0.00  0.00    +0.000 N 
ATOM      2  C   UNL     1       2.912   7.701  17.741  0.00  0.00    +0.000 C 
ATOM      3  O   UNL     1       3.333   8.130  16.672  0.00  0.00    +0.000 OA
ATOM      4  N   UNL     1       3.229   6.456  18.234  0.00  0.00    +0.000 N 
ATOM      5  C   UNL     1       2.508   5.765  19.300  0.00  0.00    +0.000 C 
ATOM      6  C   UNL     1       2.963   4.288  19.235  0.00  0.00    +0.000 C 
ATOM      7  C   UNL     1       2.105   3.431  18.261  0.00  0.00    +0.000 C 
ATOM      8  C   UNL     1       0.761   2.980  18.807  0.00  0.00    +0.000 C 
ATOM      9  O   UNL     1       0.898   2.406  20.100  0.00  0.00    +0.000 OA
ATOM     10  C   UNL     1       1.471   3.316  21.033  0.00  0.00    +0.000 C 
ATOM     11  C   UNL     1       2.913   3.650  20.633  0.00  0.00    +0.000 C 
ATOM     12  C   UNL     1       4.358   4.425  18.577  0.00  0.00    +0.000 C 
ATOM     13  C   UNL     1       5.528   4.967  19.402  0.00  0.00    +0.000 C 
ATOM     14  C   UNL     1       6.440   5.605  18.354  0.00  0.00    +0.000 C 
ATOM     15  C   UNL     1       5.533   6.042  17.204  0.00  0.00    +0.000 C 
ATOM     16  C   UNL     1       4.134   5.542  17.538  0.00  0.00    +0.000 C 
ATOM     17  H   UNL     1       2.181   8.256  19.538  0.00  0.00    +0.000 HD
ENDROOT
BRANCH   1  18
ATOM     18  C   UNL     1       1.808   9.812  18.207  0.00  0.00    +0.000 C 
BRANCH  18  22
ATOM     19  C   UNL     1      -1.736  10.165  18.017  0.00  0.00    +0.000 A 
ATOM     20  N   UNL     1      -1.657  10.673  19.228  0.00  0.00    +0.000 NA
ATOM     21  C   UNL     1      -0.312  10.646  19.507  0.00  0.00    +0.000 A 
ATOM     22  C   UNL     1       0.379  10.108  18.449  0.00  0.00    +0.000 A 
ATOM     23  O   UNL     1      -0.534   9.795  17.474  0.00  0.00    +0.000 OA
BRANCH  19  24
ATOM     24  C   UNL     1      -2.956   9.928  17.195  0.00  0.00    +0.000 C 
BRANCH  24  26
ATOM     25  C   UNL     1      -3.088  10.084  14.681  0.00  0.00    +0.000 C 
ATOM     26  C   UNL     1      -2.991  10.859  15.985  0.00  0.00    +0.000 C 
ENDBRANCH  24  26
ENDBRANCH  19  24
ENDBRANCH  18  22
ENDBRANCH   1  18
TORSDOF 4
ENDMDL
MODEL 4
REMARK VINA RESULT:      -7.9      4.279      7.611
REMARK  Name = 
REMARK  5 active torsions:
REMARK  status: ('A' for Active; 'I' for Inactive)
REMARK    1  A    between atoms: C_1  and  C_2
REMARK    2  A    between atoms: C_2  and  C_3
REMARK    3  A    between atoms: C_3  and  C_4
REMARK    4  A    between atoms: C_7  and  C_8
REMARK    5  A    between atoms: C_8  and  N_9
REMARK                            x       y       z     vdW  Elec       q    Type
REMARK                         _______ _______ _______ _____ _____    ______ ____
ROOT
ATOM      1  N   UNL     1       1.736   8.937  19.259  0.00  0.00    +0.000 N 
ATOM      2  C   UNL     1       1.860   7.826  20.057  0.00  0.00    +0.000 C 
ATOM      3  O   UNL     1       1.488   7.812  21.225  0.00  0.00    +0.000 OA
ATOM      4  N   UNL     1       2.430   6.740  19.432  0.00  0.00    +0.000 N 
ATOM      5  C   UNL     1       3.190   6.791  18.185  0.00  0.00    +0.000 C 
ATOM      6  C   UNL     1       3.943   5.443  18.091  0.00  0.00    +0.000 C 
ATOM      7  C   UNL     1       5.328   5.470  18.800  0.00  0.00    +0.000 C 
ATOM      8  C   UNL     1       6.444   6.136  18.014  0.00  0.00    +0.000 C 
ATOM      9  O   UNL     1       6.498   5.646  16.681  0.00  0.00    +0.000 OA
ATOM     10  C   UNL     1       5.276   5.861  15.981  0.00  0.00    +0.000 C 
ATOM     11  C   UNL     1       4.147   5.045  16.620  0.00  0.00    +0.000 C 
ATOM     12  C   UNL     1       3.037   4.524  18.947  0.00  0.00    +0.000 C 
ATOM     13  C   UNL     1       1.696   4.052  18.380  0.00  0.00    +0.000 C 
ATOM     14  C   UNL     1       0.840   3.827  19.626  0.00  0.00    +0.000 C 
ATOM     15  C   UNL     1       1.375   4.781  20.693  0.00  0.00    +0.000 C 
ATOM     16  C   UNL     1       2.607   5.452  20.100  0.00  0.00    +0.000 C 
ATOM     17  H   UNL     1       1.596   8.746  18.280  0.00  0.00    +0.000 HD
ENDROOT
BRANCH   1  18
ATOM     18  C   UNL     1       1.015  10.082  19.764  0.00  0.00    +0.000 C 
BRANCH  18  22
ATOM     19  C   UNL     1      -1.648   9.996  17.392  0.00  0.00    +0.000 A 
ATOM     20  N   UNL     1      -2.362  10.606  18.312  0.00  0.00    +0.000 NA
ATOM     21  C   UNL     1      -1.486  10.762  19.359  0.00  0.00    +0.000 A 
ATOM     22  C   UNL     1      -0.263  10.226  19.034  0.00  0.00    +0.000 A 
ATOM     23  O   UNL     1      -0.355   9.728  17.758  0.00  0.00    +0.000 OA
BRANCH  19  24
ATOM     24  C   UNL     1      -2.076   9.550  16.037  0.00  0.00    +0.000 C 
BRANCH  24  26
ATOM     25  C   UNL     1      -3.691  10.096  14.178  0.00  0.00    +0.000 C 
ATOM     26  C   UNL     1      -2.853  10.651  15.317  0.00  0.00    +0.000 C 
ENDBRANCH  24  26
ENDBRANCH  19  24
ENDBRANCH  18  22
ENDBRANCH   1  18
TORSDOF 4
ENDMDL
MODEL 5
REMARK VINA RESULT:      -7.9      3.995      7.889
REMARK  Name = 
REMARK  5 active torsions:
REMARK  status: ('A' for Active; 'I' for Inactive)
REMARK    1  A    between atoms: C_1  and  C_2
REMARK    2  A    between atoms: C_2  and  C_3
REMARK    3  A    between atoms: C_3  and  C_4
REMARK    4  A    between atoms: C_7  and  C_8
REMARK    5  A    between atoms: C_8  and  N_9
REMARK                            x       y       z     vdW  Elec       q    Type
REMARK                         _______ _______ _______ _____ _____    ______ ____
ROOT
ATOM      1  N   UNL     1       2.232   7.430  19.823  0.00  0.00    +0.000 N 
ATOM      2  C   UNL     1       2.372   6.107  20.164  0.00  0.00    +0.000 C 
ATOM      3  O   UNL     1       1.916   5.646  21.205  0.00  0.00    +0.000 OA
ATOM      4  N   UNL     1       3.059   5.354  19.240  0.00  0.00    +0.000 N 
ATOM      5  C   UNL     1       3.905   5.892  18.178  0.00  0.00    +0.000 C 
ATOM      6  C   UNL     1       4.753   4.705  17.666  0.00  0.00    +0.000 C 
ATOM      7  C   UNL     1       6.076   4.515  18.462  0.00  0.00    +0.000 C 
ATOM      8  C   UNL     1       7.200   5.465  18.085  0.00  0.00    +0.000 C 
ATOM      9  O   UNL     1       7.386   5.509  16.677  0.00  0.00    +0.000 OA
ATOM     10  C   UNL     1       6.208   5.926  15.993  0.00  0.00    +0.000 C 
ATOM     11  C   UNL     1       5.092   4.890  16.177  0.00  0.00    +0.000 C 
ATOM     12  C   UNL     1       3.851   3.501  18.034  0.00  0.00    +0.000 C 
ATOM     13  C   UNL     1       2.591   3.227  17.209  0.00  0.00    +0.000 C 
ATOM     14  C   UNL     1       1.662   2.523  18.198  0.00  0.00    +0.000 C 
ATOM     15  C   UNL     1       2.050   3.030  19.587  0.00  0.00    +0.000 C 
ATOM     16  C   UNL     1       3.274   3.916  19.401  0.00  0.00    +0.000 C 
ATOM     17  H   UNL     1       2.179   7.613  18.834  0.00  0.00    +0.000 HD
ENDROOT
BRANCH   1  18
ATOM     18  C   UNL     1       1.399   8.278  20.644  0.00  0.00    +0.000 C 
BRANCH  18  22
ATOM     19  C   UNL     1      -0.609  10.784  19.091  0.00  0.00    +0.000 A 
ATOM     20  N   UNL     1       0.492  11.150  18.471  0.00  0.00    +0.000 NA
ATOM     21  C   UNL     1       1.437  10.264  18.931  0.00  0.00    +0.000 A 
ATOM     22  C   UNL     1       0.870   9.392  19.829  0.00  0.00    +0.000 A 
ATOM     23  O   UNL     1      -0.459   9.718  19.938  0.00  0.00    +0.000 OA
BRANCH  19  24
ATOM     24  C   UNL     1      -1.964  11.395  18.999  0.00  0.00    +0.000 C 
BRANCH  24  26
ATOM     25  C   UNL     1      -3.183   9.738  17.540  0.00  0.00    +0.000 C 
ATOM     26  C   UNL     1      -2.591  11.135  17.632  0.00  0.00    +0.000 C 
ENDBRANCH  24  26
ENDBRANCH  19  24
ENDBRANCH  18  22
ENDBRANCH   1  18
TORSDOF 4
ENDMDL
MODEL 6
REMARK VINA RESULT:      -7.8      3.989      8.649
REMARK  Name = 
REMARK  5 active torsions:
REMARK  status: ('A' for Active; 'I' for Inactive)
REMARK    1  A    between atoms: C_1  and  C_2
REMARK    2  A    between atoms: C_2  and  C_3
REMARK    3  A    between atoms: C_3  and  C_4
REMARK    4  A    between atoms: C_7  and  C_8
REMARK    5  A    between atoms: C_8  and  N_9
REMARK                            x       y       z     vdW  Elec       q    Type
REMARK                         _______ _______ _______ _____ _____    ______ ____
ROOT
ATOM      1  N   UNL     1       2.254   7.037  20.094  0.00  0.00    +0.000 N 
ATOM      2  C   UNL     1       2.511   5.705  20.310  0.00  0.00    +0.000 C 
ATOM      3  O   UNL     1       2.136   5.120  21.321  0.00  0.00    +0.000 OA
ATOM      4  N   UNL     1       3.216   5.093  19.300  0.00  0.00    +0.000 N 
ATOM      5  C   UNL     1       3.973   5.789  18.261  0.00  0.00    +0.000 C 
ATOM      6  C   UNL     1       4.889   4.723  17.616  0.00  0.00    +0.000 C 
ATOM      7  C   UNL     1       6.254   4.573  18.346  0.00  0.00    +0.000 C 
ATOM      8  C   UNL     1       7.284   5.641  18.018  0.00  0.00    +0.000 C 
ATOM      9  O   UNL     1       7.408   5.821  16.614  0.00  0.00    +0.000 OA
ATOM     10  C   UNL     1       6.174   6.198  16.011  0.00  0.00    +0.000 C 
ATOM     11  C   UNL     1       5.151   5.064  16.140  0.00  0.00    +0.000 C 
ATOM     12  C   UNL     1       4.100   3.422  17.905  0.00  0.00    +0.000 C 
ATOM     13  C   UNL     1       2.832   3.119  17.103  0.00  0.00    +0.000 C 
ATOM     14  C   UNL     1       2.002   2.259  18.056  0.00  0.00    +0.000 C 
ATOM     15  C   UNL     1       2.407   2.673  19.471  0.00  0.00    +0.000 C 
ATOM     16  C   UNL     1       3.549   3.669  19.324  0.00  0.00    +0.000 C 
ATOM     17  H   UNL     1       2.146   7.299  19.128  0.00  0.00    +0.000 HD
ENDROOT
BRANCH   1  18
ATOM     18  C   UNL     1       1.392   7.740  21.016  0.00  0.00    +0.000 C 
BRANCH  18  22
ATOM     19  C   UNL     1      -0.222  10.823  20.234  0.00  0.00    +0.000 A 
ATOM     20  N   UNL     1       0.439  10.773  19.098  0.00  0.00    +0.000 NA
ATOM     21  C   UNL     1       1.149   9.600  19.183  0.00  0.00    +0.000 A 
ATOM     22  C   UNL     1       0.896   8.981  20.383  0.00  0.00    +0.000 A 
ATOM     23  O   UNL     1       0.005   9.764  21.073  0.00  0.00    +0.000 OA
BRANCH  19  24
ATOM     24  C   UNL     1      -1.150  11.885  20.714  0.00  0.00    +0.000 C 
BRANCH  24  26
ATOM     25  C   UNL     1      -2.057  11.777  23.065  0.00  0.00    +0.000 C 
ATOM     26  C   UNL     1      -0.897  12.210  22.185  0.00  0.00    +0.000 C 
ENDBRANCH  24  26
ENDBRANCH  19  24
ENDBRANCH  18  22
ENDBRANCH   1  18
TORSDOF 4
ENDMDL
MODEL 7
REMARK VINA RESULT:      -7.8      4.059      8.100
REMARK  Name = 
REMARK  5 active torsions:
REMARK  status: ('A' for Active; 'I' for Inactive)
REMARK    1  A    between atoms: C_1  and  C_2
REMARK    2  A    between atoms: C_2  and  C_3
REMARK    3  A    between atoms: C_3  and  C_4
REMARK    4  A    between atoms: C_7  and  C_8
REMARK    5  A    between atoms: C_8  and  N_9
REMARK                            x       y       z     vdW  Elec       q    Type
REMARK                         _______ _______ _______ _____ _____    ______ ____
ROOT
ATOM      1  N   UNL     1       2.149   6.713  20.323  0.00  0.00    +0.000 N 
ATOM      2  C   UNL     1       2.540   5.399  20.404  0.00  0.00    +0.000 C 
ATOM      3  O   UNL     1       2.236   4.681  21.350  0.00  0.00    +0.000 OA
ATOM      4  N   UNL     1       3.292   4.965  19.337  0.00  0.00    +0.000 N 
ATOM      5  C   UNL     1       3.965   5.834  18.373  0.00  0.00    +0.000 C 
ATOM      6  C   UNL     1       4.976   4.935  17.624  0.00  0.00    +0.000 C 
ATOM      7  C   UNL     1       6.357   4.852  18.335  0.00  0.00    +0.000 C 
ATOM      8  C   UNL     1       7.272   6.045  18.115  0.00  0.00    +0.000 C 
ATOM      9  O   UNL     1       7.362   6.376  16.736  0.00  0.00    +0.000 OA
ATOM     10  C   UNL     1       6.090   6.686  16.175  0.00  0.00    +0.000 C 
ATOM     11  C   UNL     1       5.187   5.447  16.189  0.00  0.00    +0.000 C 
ATOM     12  C   UNL     1       4.324   3.539  17.781  0.00  0.00    +0.000 C 
ATOM     13  C   UNL     1       3.085   3.192  16.952  0.00  0.00    +0.000 C 
ATOM     14  C   UNL     1       2.355   2.162  17.814  0.00  0.00    +0.000 C 
ATOM     15  C   UNL     1       2.731   2.471  19.263  0.00  0.00    +0.000 C 
ATOM     16  C   UNL     1       3.766   3.587  19.217  0.00  0.00    +0.000 C 
ATOM     17  H   UNL     1       2.005   7.059  19.388  0.00  0.00    +0.000 HD
ENDROOT
BRANCH   1  18
ATOM     18  C   UNL     1       1.230   7.230  21.311  0.00  0.00    +0.000 C 
BRANCH  18  22
ATOM     19  C   UNL     1       0.580  10.505  20.055  0.00  0.00    +0.000 A 
ATOM     20  N   UNL     1       0.883  10.927  21.264  0.00  0.00    +0.000 NA
ATOM     21  C   UNL     1       1.197   9.775  21.944  0.00  0.00    +0.000 A 
ATOM     22  C   UNL     1       1.061   8.686  21.117  0.00  0.00    +0.000 A 
ATOM     23  O   UNL     1       0.665   9.148  19.887  0.00  0.00    +0.000 OA
BRANCH  19  24
ATOM     24  C   UNL     1       0.143  11.309  18.881  0.00  0.00    +0.000 C 
BRANCH  24  26
ATOM     25  C   UNL     1      -1.560  10.123  17.448  0.00  0.00    +0.000 C 
ATOM     26  C   UNL     1      -1.342  11.097  18.593  0.00  0.00    +0.000 C 
ENDBRANCH  24  26
ENDBRANCH  19  24
ENDBRANCH  18  22
ENDBRANCH   1  18
TORSDOF 4
ENDMDL
MODEL 8
REMARK VINA RESULT:      -7.8      4.066      8.174
REMARK  Name = 
REMARK  5 active torsions:
REMARK  status: ('A' for Active; 'I' for Inactive)
REMARK    1  A    between atoms: C_1  and  C_2
REMARK    2  A    between atoms: C_2  and  C_3
REMARK    3  A    between atoms: C_3  and  C_4
REMARK    4  A    between atoms: C_7  and  C_8
REMARK    5  A    between atoms: C_8  and  N_9
REMARK                            x       y       z     vdW  Elec       q    Type
REMARK                         _______ _______ _______ _____ _____    ______ ____
ROOT
ATOM      1  N   UNL     1       2.117   6.760  20.275  0.00  0.00    +0.000 N 
ATOM      2  C   UNL     1       2.514   5.449  20.379  0.00  0.00    +0.000 C 
ATOM      3  O   UNL     1       2.200   4.743  21.331  0.00  0.00    +0.000 OA
ATOM      4  N   UNL     1       3.281   5.005  19.328  0.00  0.00    +0.000 N 
ATOM      5  C   UNL     1       3.962   5.864  18.362  0.00  0.00    +0.000 C 
ATOM      6  C   UNL     1       4.988   4.961  17.637  0.00  0.00    +0.000 C 
ATOM      7  C   UNL     1       6.360   4.894  18.367  0.00  0.00    +0.000 C 
ATOM      8  C   UNL     1       7.271   6.088  18.143  0.00  0.00    +0.000 C 
ATOM      9  O   UNL     1       7.378   6.402  16.761  0.00  0.00    +0.000 OA
ATOM     10  C   UNL     1       6.112   6.697  16.180  0.00  0.00    +0.000 C 
ATOM     11  C   UNL     1       5.215   5.454  16.198  0.00  0.00    +0.000 C 
ATOM     12  C   UNL     1       4.340   3.564  17.805  0.00  0.00    +0.000 C 
ATOM     13  C   UNL     1       3.113   3.199  16.965  0.00  0.00    +0.000 C 
ATOM     14  C   UNL     1       2.378   2.177  17.831  0.00  0.00    +0.000 C 
ATOM     15  C   UNL     1       2.733   2.508  19.281  0.00  0.00    +0.000 C 
ATOM     16  C   UNL     1       3.764   3.628  19.233  0.00  0.00    +0.000 C 
ATOM     17  H   UNL     1       1.984   7.093  19.334  0.00  0.00    +0.000 HD
ENDROOT
BRANCH   1  18
ATOM     18  C   UNL     1       1.183   7.286  21.245  0.00  0.00    +0.000 C 
BRANCH  18  22
ATOM     19  C   UNL     1       0.926  10.640  20.058  0.00  0.00    +0.000 A 
ATOM     20  N   UNL     1       0.918  10.989  21.326  0.00  0.00    +0.000 NA
ATOM     21  C   UNL     1       1.030   9.794  21.996  0.00  0.00    +0.000 A 
ATOM     22  C   UNL     1       1.092   8.755  21.100  0.00  0.00    +0.000 A 
ATOM     23  O   UNL     1       1.029   9.292  19.838  0.00  0.00    +0.000 OA
BRANCH  19  24
ATOM     24  C   UNL     1       0.815  11.518  18.860  0.00  0.00    +0.000 C 
BRANCH  24  26
ATOM     25  C   UNL     1       2.464  13.314  18.215  0.00  0.00    +0.000 C 
ATOM     26  C   UNL     1       2.192  11.821  18.272  0.00  0.00    +0.000 C 
ENDBRANCH  24  26
ENDBRANCH  19  24
ENDBRANCH  18  22
ENDBRANCH   1  18
TORSDOF 4
ENDMDL
MODEL 9
REMARK VINA RESULT:      -7.7      4.583      8.162
REMARK  Name = 
REMARK  5 active torsions:
REMARK  status: ('A' for Active; 'I' for Inactive)
REMARK    1  A    between atoms: C_1  and  C_2
REMARK    2  A    between atoms: C_2  and  C_3
REMARK    3  A    between atoms: C_3  and  C_4
REMARK    4  A    between atoms: C_7  and  C_8
REMARK    5  A    between atoms: C_8  and  N_9
REMARK                            x       y       z     vdW  Elec       q    Type
REMARK                         _______ _______ _______ _____ _____    ______ ____
ROOT
ATOM      1  N   UNL     1       1.743   8.738  19.290  0.00  0.00    +0.000 N 
ATOM      2  C   UNL     1       1.842   7.612  20.071  0.00  0.00    +0.000 C 
ATOM      3  O   UNL     1       1.403   7.566  21.215  0.00  0.00    +0.000 OA
ATOM      4  N   UNL     1       2.466   6.551  19.456  0.00  0.00    +0.000 N 
ATOM      5  C   UNL     1       3.297   6.643  18.258  0.00  0.00    +0.000 C 
ATOM      6  C   UNL     1       4.079   5.311  18.178  0.00  0.00    +0.000 C 
ATOM      7  C   UNL     1       5.419   5.347  18.967  0.00  0.00    +0.000 C 
ATOM      8  C   UNL     1       6.567   6.049  18.261  0.00  0.00    +0.000 C 
ATOM      9  O   UNL     1       6.706   5.590  16.924  0.00  0.00    +0.000 OA
ATOM     10  C   UNL     1       5.523   5.799  16.159  0.00  0.00    +0.000 C 
ATOM     11  C   UNL     1       4.374   4.949  16.713  0.00  0.00    +0.000 C 
ATOM     12  C   UNL     1       3.143   4.357  18.960  0.00  0.00    +0.000 C 
ATOM     13  C   UNL     1       1.845   3.875  18.306  0.00  0.00    +0.000 C 
ATOM     14  C   UNL     1       0.923   3.607  19.496  0.00  0.00    +0.000 C 
ATOM     15  C   UNL     1       1.378   4.546  20.612  0.00  0.00    +0.000 C 
ATOM     16  C   UNL     1       2.629   5.251  20.106  0.00  0.00    +0.000 C 
ATOM     17  H   UNL     1       1.663   8.567  18.301  0.00  0.00    +0.000 HD
ENDROOT
BRANCH   1  18
ATOM     18  C   UNL     1       0.972   9.860  19.777  0.00  0.00    +0.000 C 
BRANCH  18  22
ATOM     19  C   UNL     1      -2.128  10.857  18.323  0.00  0.00    +0.000 A 
ATOM     20  N   UNL     1      -1.739  10.184  17.262  0.00  0.00    +0.000 NA
ATOM     21  C   UNL     1      -0.515   9.677  17.625  0.00  0.00    +0.000 A 
ATOM     22  C   UNL     1      -0.200  10.073  18.902  0.00  0.00    +0.000 A 
ATOM     23  O   UNL     1      -1.241  10.838  19.367  0.00  0.00    +0.000 OA
BRANCH  19  24
ATOM     24  C   UNL     1      -3.381  11.641  18.509  0.00  0.00    +0.000 C 
BRANCH  24  26
ATOM     25  C   UNL     1      -5.514  12.150  17.263  0.00  0.00    +0.000 C 
ATOM     26  C   UNL     1      -4.513  11.076  17.654  0.00  0.00    +0.000 C 
ENDBRANCH  24  26
ENDBRANCH  19  24
ENDBRANCH  18  22
ENDBRANCH   1  18
TORSDOF 4
ENDMDL
