MODEL 1
REMARK VINA RESULT:      -7.0      0.000      0.000
REMARK  Name = 
REMARK  5 active torsions:
REMARK  status: ('A' for Active; 'I' for Inactive)
REMARK    1  A    between atoms: C_1  and  C_2
REMARK    2  A    between atoms: N_4  and  C_5
REMARK    3  A    between atoms: C_9  and  C_11
REMARK    4  A    between atoms: C_11  and  N_12
REMARK    5  A    between atoms: N_15  and  C_16
REMARK                            x       y       z     vdW  Elec       q    Type
REMARK                         _______ _______ _______ _____ _____    ______ ____
ROOT
ATOM      1  C   UNL     1      -2.608  13.119  22.404  0.00  0.00    +0.000 C 
ATOM      2  C   UNL     1      -3.729  12.822  21.464  0.00  0.00    +0.000 A 
ATOM      3  N   UNL     1      -4.937  13.114  21.952  0.00  0.00    +0.000 NA
ATOM      4  N   UNL     1      -5.771  12.796  20.968  0.00  0.00    +0.000 N 
ATOM      5  C   UNL     1      -7.188  12.997  21.211  0.00  0.00    +0.000 C 
ATOM      6  C   UNL     1      -5.145  12.400  19.811  0.00  0.00    +0.000 A 
ATOM      7  C   UNL     1      -3.783  12.282  20.117  0.00  0.00    +0.000 A 
ATOM      8  N   UNL     1      -2.729  11.785  19.286  0.00  0.00    +0.000 N 
ATOM      9  C   UNL     1      -1.406  11.702  19.806  0.00  0.00    +0.000 C 
ATOM     10  O   UNL     1      -1.150  11.527  21.000  0.00  0.00    +0.000 OA
ATOM     11  C   UNL     1      -3.049  11.149  18.018  0.00  0.00    +0.000 A 
ATOM     12  C   UNL     1      -2.204  10.097  17.587  0.00  0.00    +0.000 A 
ATOM     13  C   UNL     1      -2.170   9.632  16.269  0.00  0.00    +0.000 A 
ATOM     14  C   UNL     1      -3.056  10.148  15.348  0.00  0.00    +0.000 A 
ATOM     15  C   UNL     1      -4.022  11.046  15.784  0.00  0.00    +0.000 A 
ATOM     16  C   UNL     1      -4.068  11.506  17.122  0.00  0.00    +0.000 A 
ATOM     17  N   UNL     1      -5.236  12.218  17.408  0.00  0.00    +0.000 N 
ATOM     18  C   UNL     1      -5.892  12.265  18.598  0.00  0.00    +0.000 C 
ATOM     19  O   UNL     1      -7.118  12.289  18.543  0.00  0.00    +0.000 OA
ATOM     20  H   UNL     1      -5.915  12.279  16.657  0.00  0.00    +0.000 HD
ENDROOT
BRANCH   9  21
ATOM     21  C   UNL     1      -0.199  11.738  18.829  0.00  0.00    +0.000 C 
BRANCH  21  22
ATOM     22  N   UNL     1       0.497  13.022  18.666  0.00  0.00    +0.000 NA
ATOM     23  C   UNL     1       1.917  13.065  19.030  0.00  0.00    +0.000 C 
ATOM     24  C   UNL     1       2.576  14.398  18.577  0.00  0.00    +0.000 C 
ATOM     25  N   UNL     1       1.846  15.642  18.912  0.00  0.00    +0.000 NA
ATOM     26  C   UNL     1       2.141  16.098  20.264  0.00  0.00    +0.000 C 
ATOM     27  C   UNL     1       0.393  15.477  18.711  0.00  0.00    +0.000 C 
ATOM     28  C   UNL     1      -0.209  14.159  19.249  0.00  0.00    +0.000 C 
ENDBRANCH  21  22
ENDBRANCH   9  21
TORSDOF 2
ENDMDL
MODEL 2
REMARK VINA RESULT:      -6.9      1.408      1.982
REMARK  Name = 
REMARK  5 active torsions:
REMARK  status: ('A' for Active; 'I' for Inactive)
REMARK    1  A    between atoms: C_1  and  C_2
REMARK    2  A    between atoms: N_4  and  C_5
REMARK    3  A    between atoms: C_9  and  C_11
REMARK    4  A    between atoms: C_11  and  N_12
REMARK    5  A    between atoms: N_15  and  C_16
REMARK                            x       y       z     vdW  Elec       q    Type
REMARK                         _______ _______ _______ _____ _____    ______ ____
ROOT
ATOM      1  C   UNL     1      -1.084  13.793  23.331  0.00  0.00    +0.000 C 
ATOM      2  C   UNL     1      -2.304  13.365  22.584  0.00  0.00    +0.000 A 
ATOM      3  N   UNL     1      -3.448  13.625  23.221  0.00  0.00    +0.000 NA
ATOM      4  N   UNL     1      -4.389  13.188  22.391  0.00  0.00    +0.000 N 
ATOM      5  C   UNL     1      -5.768  13.327  22.823  0.00  0.00    +0.000 C 
ATOM      6  C   UNL     1      -3.906  12.742  21.185  0.00  0.00    +0.000 A 
ATOM      7  C   UNL     1      -2.510  12.723  21.298  0.00  0.00    +0.000 A 
ATOM      8  N   UNL     1      -1.552  12.225  20.358  0.00  0.00    +0.000 N 
ATOM      9  C   UNL     1      -0.167  12.255  20.685  0.00  0.00    +0.000 C 
ATOM     10  O   UNL     1       0.265  12.185  21.839  0.00  0.00    +0.000 OA
ATOM     11  C   UNL     1      -2.005  11.479  19.194  0.00  0.00    +0.000 A 
ATOM     12  C   UNL     1      -1.161  10.447  18.716  0.00  0.00    +0.000 A 
ATOM     13  C   UNL     1      -1.281   9.887  17.440  0.00  0.00    +0.000 A 
ATOM     14  C   UNL     1      -2.320  10.283  16.626  0.00  0.00    +0.000 A 
ATOM     15  C   UNL     1      -3.272  11.156  17.136  0.00  0.00    +0.000 A 
ATOM     16  C   UNL     1      -3.161  11.711  18.434  0.00  0.00    +0.000 A 
ATOM     17  N   UNL     1      -4.322  12.376  18.838  0.00  0.00    +0.000 N 
ATOM     18  C   UNL     1      -4.806  12.475  20.104  0.00  0.00    +0.000 C 
ATOM     19  O   UNL     1      -6.026  12.427  20.226  0.00  0.00    +0.000 OA
ATOM     20  H   UNL     1      -5.102  12.343  18.190  0.00  0.00    +0.000 HD
ENDROOT
BRANCH   9  21
ATOM     21  C   UNL     1       0.886  12.285  19.544  0.00  0.00    +0.000 C 
BRANCH  21  22
ATOM     22  N   UNL     1       1.774  13.455  19.478  0.00  0.00    +0.000 NA
ATOM     23  C   UNL     1       1.144  14.778  19.542  0.00  0.00    +0.000 C 
ATOM     24  C   UNL     1       2.207  15.900  19.711  0.00  0.00    +0.000 C 
ATOM     25  N   UNL     1       3.372  15.848  18.800  0.00  0.00    +0.000 NA
ATOM     26  C   UNL     1       3.088  16.479  17.517  0.00  0.00    +0.000 C 
ATOM     27  C   UNL     1       3.843  14.461  18.617  0.00  0.00    +0.000 C 
ATOM     28  C   UNL     1       2.738  13.407  18.383  0.00  0.00    +0.000 C 
ENDBRANCH  21  22
ENDBRANCH   9  21
TORSDOF 2
ENDMDL
MODEL 3
REMARK VINA RESULT:      -6.9      0.652      1.199
REMARK  Name = 
REMARK  5 active torsions:
REMARK  status: ('A' for Active; 'I' for Inactive)
REMARK    1  A    between atoms: C_1  and  C_2
REMARK    2  A    between atoms: N_4  and  C_5
REMARK    3  A    between atoms: C_9  and  C_11
REMARK    4  A    between atoms: C_11  and  N_12
REMARK    5  A    between atoms: N_15  and  C_16
REMARK                            x       y       z     vdW  Elec       q    Type
REMARK                         _______ _______ _______ _____ _____    ______ ____
ROOT
ATOM      1  C   UNL     1      -2.641  13.683  22.555  0.00  0.00    +0.000 C 
ATOM      2  C   UNL     1      -3.743  13.260  21.640  0.00  0.00    +0.000 A 
ATOM      3  N   UNL     1      -4.966  13.521  22.108  0.00  0.00    +0.000 NA
ATOM      4  N   UNL     1      -5.780  13.090  21.151  0.00  0.00    +0.000 N 
ATOM      5  C   UNL     1      -7.206  13.231  21.382  0.00  0.00    +0.000 C 
ATOM      6  C   UNL     1      -5.131  12.646  20.024  0.00  0.00    +0.000 A 
ATOM      7  C   UNL     1      -3.765  12.624  20.335  0.00  0.00    +0.000 A 
ATOM      8  N   UNL     1      -2.684  12.126  19.539  0.00  0.00    +0.000 N 
ATOM      9  C   UNL     1      -1.359  12.151  20.061  0.00  0.00    +0.000 C 
ATOM     10  O   UNL     1      -1.097  12.075  21.264  0.00  0.00    +0.000 OA
ATOM     11  C   UNL     1      -2.967  11.385  18.321  0.00  0.00    +0.000 A 
ATOM     12  C   UNL     1      -2.066  10.352  17.964  0.00  0.00    +0.000 A 
ATOM     13  C   UNL     1      -2.005   9.797  16.682  0.00  0.00    +0.000 A 
ATOM     14  C   UNL     1      -2.915  10.198  15.729  0.00  0.00    +0.000 A 
ATOM     15  C   UNL     1      -3.928  11.072  16.101  0.00  0.00    +0.000 A 
ATOM     16  C   UNL     1      -4.002  11.622  17.404  0.00  0.00    +0.000 A 
ATOM     17  N   UNL     1      -5.207  12.289  17.640  0.00  0.00    +0.000 N 
ATOM     18  C   UNL     1      -5.867  12.385  18.825  0.00  0.00    +0.000 C 
ATOM     19  O   UNL     1      -7.093  12.340  18.771  0.00  0.00    +0.000 OA
ATOM     20  H   UNL     1      -5.887  12.260  16.888  0.00  0.00    +0.000 HD
ENDROOT
BRANCH   9  21
ATOM     21  C   UNL     1      -0.154  12.182  19.082  0.00  0.00    +0.000 C 
BRANCH  21  22
ATOM     22  N   UNL     1       0.813  13.278  19.239  0.00  0.00    +0.000 NA
ATOM     23  C   UNL     1       0.392  14.611  18.794  0.00  0.00    +0.000 C 
ATOM     24  C   UNL     1       1.405  15.701  19.244  0.00  0.00    +0.000 C 
ATOM     25  N   UNL     1       2.836  15.420  18.986  0.00  0.00    +0.000 NA
ATOM     26  C   UNL     1       3.226  15.790  17.631  0.00  0.00    +0.000 C 
ATOM     27  C   UNL     1       3.159  14.007  19.265  0.00  0.00    +0.000 C 
ATOM     28  C   UNL     1       2.145  12.972  18.728  0.00  0.00    +0.000 C 
ENDBRANCH  21  22
ENDBRANCH   9  21
TORSDOF 2
ENDMDL
MODEL 4
REMARK VINA RESULT:      -6.9      0.989      1.162
REMARK  Name = 
REMARK  5 active torsions:
REMARK  status: ('A' for Active; 'I' for Inactive)
REMARK    1  A    between atoms: C_1  and  C_2
REMARK    2  A    between atoms: N_4  and  C_5
REMARK    3  A    between atoms: C_9  and  C_11
REMARK    4  A    between atoms: C_11  and  N_12
REMARK    5  A    between atoms: N_15  and  C_16
REMARK                            x       y       z     vdW  Elec       q    Type
REMARK                         _______ _______ _______ _____ _____    ______ ____
ROOT
ATOM      1  C   UNL     1      -1.163  13.167  22.926  0.00  0.00    +0.000 C 
ATOM      2  C   UNL     1      -2.475  12.914  22.258  0.00  0.00    +0.000 A 
ATOM      3  N   UNL     1      -3.534  13.192  23.021  0.00  0.00    +0.000 NA
ATOM      4  N   UNL     1      -4.576  12.918  22.244  0.00  0.00    +0.000 N 
ATOM      5  C   UNL     1      -5.896  13.115  22.814  0.00  0.00    +0.000 C 
ATOM      6  C   UNL     1      -4.237  12.567  20.959  0.00  0.00    +0.000 A 
ATOM      7  C   UNL     1      -2.844  12.431  20.939  0.00  0.00    +0.000 A 
ATOM      8  N   UNL     1      -2.015  11.965  19.869  0.00  0.00    +0.000 N 
ATOM      9  C   UNL     1      -0.609  11.854  20.067  0.00  0.00    +0.000 C 
ATOM     10  O   UNL     1      -0.089  11.628  21.163  0.00  0.00    +0.000 OA
ATOM     11  C   UNL     1      -2.627  11.383  18.685  0.00  0.00    +0.000 A 
ATOM     12  C   UNL     1      -1.917  10.347  18.030  0.00  0.00    +0.000 A 
ATOM     13  C   UNL     1      -2.193   9.937  16.721  0.00  0.00    +0.000 A 
ATOM     14  C   UNL     1      -3.260  10.495  16.051  0.00  0.00    +0.000 A 
ATOM     15  C   UNL     1      -4.087  11.378  16.731  0.00  0.00    +0.000 A 
ATOM     16  C   UNL     1      -3.819  11.782  18.062  0.00  0.00    +0.000 A 
ATOM     17  N   UNL     1      -4.880  12.487  18.636  0.00  0.00    +0.000 N 
ATOM     18  C   UNL     1      -5.245  12.487  19.946  0.00  0.00    +0.000 C 
ATOM     19  O   UNL     1      -6.450  12.519  20.176  0.00  0.00    +0.000 OA
ATOM     20  H   UNL     1      -5.712  12.582  18.064  0.00  0.00    +0.000 HD
ENDROOT
BRANCH   9  21
ATOM     21  C   UNL     1       0.342  11.926  18.841  0.00  0.00    +0.000 C 
BRANCH  21  22
ATOM     22  N   UNL     1       1.070  13.185  18.626  0.00  0.00    +0.000 NA
ATOM     23  C   UNL     1       2.518  13.168  18.856  0.00  0.00    +0.000 C 
ATOM     24  C   UNL     1       3.184  14.480  18.356  0.00  0.00    +0.000 C 
ATOM     25  N   UNL     1       2.539  15.747  18.771  0.00  0.00    +0.000 NA
ATOM     26  C   UNL     1       2.977  16.172  20.094  0.00  0.00    +0.000 C 
ATOM     27  C   UNL     1       1.068  15.640  18.707  0.00  0.00    +0.000 C 
ATOM     28  C   UNL     1       0.468  14.339  19.286  0.00  0.00    +0.000 C 
ENDBRANCH  21  22
ENDBRANCH   9  21
TORSDOF 2
ENDMDL
MODEL 5
REMARK VINA RESULT:      -6.6      2.811      6.035
REMARK  Name = 
REMARK  5 active torsions:
REMARK  status: ('A' for Active; 'I' for Inactive)
REMARK    1  A    between atoms: C_1  and  C_2
REMARK    2  A    between atoms: N_4  and  C_5
REMARK    3  A    between atoms: C_9  and  C_11
REMARK    4  A    between atoms: C_11  and  N_12
REMARK    5  A    between atoms: N_15  and  C_16
REMARK                            x       y       z     vdW  Elec       q    Type
REMARK                         _______ _______ _______ _____ _____    ______ ____
ROOT
ATOM      1  C   UNL     1       0.213  15.735  18.684  0.00  0.00    +0.000 C 
ATOM      2  C   UNL     1      -0.022  15.443  20.129  0.00  0.00    +0.000 A 
ATOM      3  N   UNL     1      -0.162  16.533  20.887  0.00  0.00    +0.000 NA
ATOM      4  N   UNL     1      -0.374  16.055  22.108  0.00  0.00    +0.000 N 
ATOM      5  C   UNL     1      -0.557  17.023  23.174  0.00  0.00    +0.000 C 
ATOM      6  C   UNL     1      -0.480  14.686  22.162  0.00  0.00    +0.000 A 
ATOM      7  C   UNL     1      -0.134  14.211  20.890  0.00  0.00    +0.000 A 
ATOM      8  N   UNL     1       0.027  12.853  20.466  0.00  0.00    +0.000 N 
ATOM      9  C   UNL     1       0.432  12.580  19.129  0.00  0.00    +0.000 C 
ATOM     10  O   UNL     1       1.133  13.341  18.457  0.00  0.00    +0.000 OA
ATOM     11  C   UNL     1       0.014  11.784  21.451  0.00  0.00    +0.000 A 
ATOM     12  C   UNL     1       0.832  10.656  21.196  0.00  0.00    +0.000 A 
ATOM     13  C   UNL     1       0.671   9.429  21.848  0.00  0.00    +0.000 A 
ATOM     14  C   UNL     1      -0.264   9.318  22.854  0.00  0.00    +0.000 A 
ATOM     15  C   UNL     1      -0.951  10.456  23.254  0.00  0.00    +0.000 A 
ATOM     16  C   UNL     1      -0.778  11.703  22.606  0.00  0.00    +0.000 A 
ATOM     17  N   UNL     1      -1.380  12.758  23.297  0.00  0.00    +0.000 N 
ATOM     18  C   UNL     1      -0.950  14.047  23.352  0.00  0.00    +0.000 C 
ATOM     19  O   UNL     1      -1.091  14.622  24.428  0.00  0.00    +0.000 OA
ATOM     20  H   UNL     1      -1.818  12.520  24.180  0.00  0.00    +0.000 HD
ENDROOT
BRANCH   9  21
ATOM     21  C   UNL     1       0.064  11.216  18.484  0.00  0.00    +0.000 C 
BRANCH  21  22
ATOM     22  N   UNL     1      -1.365  10.906  18.333  0.00  0.00    +0.000 NA
ATOM     23  C   UNL     1      -1.745  10.021  17.227  0.00  0.00    +0.000 C 
ATOM     24  C   UNL     1      -3.233   9.586  17.338  0.00  0.00    +0.000 C 
ATOM     25  N   UNL     1      -4.218  10.662  17.594  0.00  0.00    +0.000 NA
ATOM     26  C   UNL     1      -4.630  11.325  16.364  0.00  0.00    +0.000 C 
ATOM     27  C   UNL     1      -3.699  11.636  18.575  0.00  0.00    +0.000 C 
ATOM     28  C   UNL     1      -2.233  12.079  18.363  0.00  0.00    +0.000 C 
ENDBRANCH  21  22
ENDBRANCH   9  21
TORSDOF 2
ENDMDL
MODEL 6
REMARK VINA RESULT:      -6.5      2.056      3.331
REMARK  Name = 
REMARK  5 active torsions:
REMARK  status: ('A' for Active; 'I' for Inactive)
REMARK    1  A    between atoms: C_1  and  C_2
REMARK    2  A    between atoms: N_4  and  C_5
REMARK    3  A    between atoms: C_9  and  C_11
REMARK    4  A    between atoms: C_11  and  N_12
REMARK    5  A    between atoms: N_15  and  C_16
REMARK                            x       y       z     vdW  Elec       q    Type
REMARK                         _______ _______ _______ _____ _____    ______ ____
ROOT
ATOM      1  C   UNL     1      -4.457  13.597  21.301  0.00  0.00    +0.000 C 
ATOM      2  C   UNL     1      -4.203  12.778  20.078  0.00  0.00    +0.000 A 
ATOM      3  N   UNL     1      -5.211  12.785  19.204  0.00  0.00    +0.000 NA
ATOM      4  N   UNL     1      -4.779  12.025  18.203  0.00  0.00    +0.000 N 
ATOM      5  C   UNL     1      -5.681  11.830  17.083  0.00  0.00    +0.000 C 
ATOM      6  C   UNL     1      -3.479  11.601  18.345  0.00  0.00    +0.000 A 
ATOM      7  C   UNL     1      -3.079  11.974  19.635  0.00  0.00    +0.000 A 
ATOM      8  N   UNL     1      -1.855  11.657  20.308  0.00  0.00    +0.000 N 
ATOM      9  C   UNL     1      -1.659  12.095  21.648  0.00  0.00    +0.000 C 
ATOM     10  O   UNL     1      -2.577  12.266  22.454  0.00  0.00    +0.000 OA
ATOM     11  C   UNL     1      -0.935  10.698  19.717  0.00  0.00    +0.000 A 
ATOM     12  C   UNL     1      -0.184   9.889  20.604  0.00  0.00    +0.000 A 
ATOM     13  C   UNL     1       0.962   9.186  20.217  0.00  0.00    +0.000 A 
ATOM     14  C   UNL     1       1.345   9.198  18.893  0.00  0.00    +0.000 A 
ATOM     15  C   UNL     1       0.524   9.830  17.968  0.00  0.00    +0.000 A 
ATOM     16  C   UNL     1      -0.645  10.527  18.356  0.00  0.00    +0.000 A 
ATOM     17  N   UNL     1      -1.442  10.892  17.267  0.00  0.00    +0.000 N 
ATOM     18  C   UNL     1      -2.798  10.989  17.246  0.00  0.00    +0.000 C 
ATOM     19  O   UNL     1      -3.354  10.625  16.213  0.00  0.00    +0.000 OA
ATOM     20  H   UNL     1      -1.121  10.581  16.357  0.00  0.00    +0.000 HD
ENDROOT
BRANCH   9  21
ATOM     21  C   UNL     1      -0.214  12.289  22.183  0.00  0.00    +0.000 C 
BRANCH  21  22
ATOM     22  N   UNL     1       0.510  13.491  21.746  0.00  0.00    +0.000 NA
ATOM     23  C   UNL     1      -0.295  14.627  21.282  0.00  0.00    +0.000 C 
ATOM     24  C   UNL     1       0.580  15.897  21.091  0.00  0.00    +0.000 C 
ATOM     25  N   UNL     1       1.841  15.724  20.335  0.00  0.00    +0.000 NA
ATOM     26  C   UNL     1       1.625  15.804  18.895  0.00  0.00    +0.000 C 
ATOM     27  C   UNL     1       2.512  14.461  20.702  0.00  0.00    +0.000 C 
ATOM     28  C   UNL     1       1.594  13.223  20.805  0.00  0.00    +0.000 C 
ENDBRANCH  21  22
ENDBRANCH   9  21
TORSDOF 2
ENDMDL
MODEL 7
REMARK VINA RESULT:      -6.5      3.547      6.947
REMARK  Name = 
REMARK  5 active torsions:
REMARK  status: ('A' for Active; 'I' for Inactive)
REMARK    1  A    between atoms: C_1  and  C_2
REMARK    2  A    between atoms: N_4  and  C_5
REMARK    3  A    between atoms: C_9  and  C_11
REMARK    4  A    between atoms: C_11  and  N_12
REMARK    5  A    between atoms: N_15  and  C_16
REMARK                            x       y       z     vdW  Elec       q    Type
REMARK                         _______ _______ _______ _____ _____    ______ ____
ROOT
ATOM      1  C   UNL     1      -0.564   8.674  22.479  0.00  0.00    +0.000 C 
ATOM      2  C   UNL     1       0.200   9.185  21.301  0.00  0.00    +0.000 A 
ATOM      3  N   UNL     1       0.834   8.233  20.613  0.00  0.00    +0.000 NA
ATOM      4  N   UNL     1       1.424   8.888  19.619  0.00  0.00    +0.000 N 
ATOM      5  C   UNL     1       2.215   8.105  18.688  0.00  0.00    +0.000 C 
ATOM      6  C   UNL     1       1.115  10.227  19.572  0.00  0.00    +0.000 A 
ATOM      7  C   UNL     1       0.396  10.510  20.740  0.00  0.00    +0.000 A 
ATOM      8  N   UNL     1      -0.049  11.783  21.219  0.00  0.00    +0.000 N 
ATOM      9  C   UNL     1      -0.731  11.864  22.467  0.00  0.00    +0.000 C 
ATOM     10  O   UNL     1      -0.545  11.079  23.400  0.00  0.00    +0.000 OA
ATOM     11  C   UNL     1       0.403  12.999  20.562  0.00  0.00    +0.000 A 
ATOM     12  C   UNL     1       0.580  14.148  21.371  0.00  0.00    +0.000 A 
ATOM     13  C   UNL     1       0.669  15.444  20.853  0.00  0.00    +0.000 A 
ATOM     14  C   UNL     1       0.676  15.625  19.487  0.00  0.00    +0.000 A 
ATOM     15  C   UNL     1       0.691  14.506  18.666  0.00  0.00    +0.000 A 
ATOM     16  C   UNL     1       0.618  13.192  19.189  0.00  0.00    +0.000 A 
ATOM     17  N   UNL     1       0.875  12.212  18.225  0.00  0.00    +0.000 N 
ATOM     18  C   UNL     1       1.471  11.007  18.427  0.00  0.00    +0.000 C 
ATOM     19  O   UNL     1       2.220  10.615  17.537  0.00  0.00    +0.000 OA
ATOM     20  H   UNL     1       1.123  12.551  17.302  0.00  0.00    +0.000 HD
ENDROOT
BRANCH   9  21
ATOM     21  C   UNL     1      -1.700  13.049  22.730  0.00  0.00    +0.000 C 
BRANCH  21  22
ATOM     22  N   UNL     1      -3.120  12.725  22.934  0.00  0.00    +0.000 NA
ATOM     23  C   UNL     1      -4.070  13.222  21.933  0.00  0.00    +0.000 C 
ATOM     24  C   UNL     1      -5.480  12.602  22.138  0.00  0.00    +0.000 C 
ATOM     25  N   UNL     1      -6.016  12.623  23.518  0.00  0.00    +0.000 NA
ATOM     26  C   UNL     1      -6.662  13.892  23.830  0.00  0.00    +0.000 C 
ATOM     27  C   UNL     1      -4.963  12.306  24.503  0.00  0.00    +0.000 C 
ATOM     28  C   UNL     1      -3.607  13.012  24.279  0.00  0.00    +0.000 C 
ENDBRANCH  21  22
ENDBRANCH   9  21
TORSDOF 2
ENDMDL
MODEL 8
REMARK VINA RESULT:      -6.4      3.050      6.558
REMARK  Name = 
REMARK  5 active torsions:
REMARK  status: ('A' for Active; 'I' for Inactive)
REMARK    1  A    between atoms: C_1  and  C_2
REMARK    2  A    between atoms: N_4  and  C_5
REMARK    3  A    between atoms: C_9  and  C_11
REMARK    4  A    between atoms: C_11  and  N_12
REMARK    5  A    between atoms: N_15  and  C_16
REMARK                            x       y       z     vdW  Elec       q    Type
REMARK                         _______ _______ _______ _____ _____    ______ ____
ROOT
ATOM      1  C   UNL     1      -0.632   8.875  22.949  0.00  0.00    +0.000 C 
ATOM      2  C   UNL     1       0.091   9.215  21.688  0.00  0.00    +0.000 A 
ATOM      3  N   UNL     1       0.767   8.193  21.159  0.00  0.00    +0.000 NA
ATOM      4  N   UNL     1       1.312   8.698  20.057  0.00  0.00    +0.000 N 
ATOM      5  C   UNL     1       2.133   7.808  19.257  0.00  0.00    +0.000 C 
ATOM      6  C   UNL     1       0.933   9.992  19.790  0.00  0.00    +0.000 A 
ATOM      7  C   UNL     1       0.212  10.433  20.906  0.00  0.00    +0.000 A 
ATOM      8  N   UNL     1      -0.295  11.746  21.171  0.00  0.00    +0.000 N 
ATOM      9  C   UNL     1      -0.967  12.004  22.399  0.00  0.00    +0.000 C 
ATOM     10  O   UNL     1      -0.731  11.400  23.448  0.00  0.00    +0.000 OA
ATOM     11  C   UNL     1       0.086  12.853  20.308  0.00  0.00    +0.000 A 
ATOM     12  C   UNL     1       0.210  14.130  20.907  0.00  0.00    +0.000 A 
ATOM     13  C   UNL     1       0.226  15.322  20.175  0.00  0.00    +0.000 A 
ATOM     14  C   UNL     1       0.209  15.268  18.798  0.00  0.00    +0.000 A 
ATOM     15  C   UNL     1       0.275  14.027  18.179  0.00  0.00    +0.000 A 
ATOM     16  C   UNL     1       0.276  12.820  18.918  0.00  0.00    +0.000 A 
ATOM     17  N   UNL     1       0.574  11.704  18.130  0.00  0.00    +0.000 N 
ATOM     18  C   UNL     1       1.235  10.583  18.522  0.00  0.00    +0.000 C 
ATOM     19  O   UNL     1       1.994  10.082  17.697  0.00  0.00    +0.000 OA
ATOM     20  H   UNL     1       0.795  11.893  17.158  0.00  0.00    +0.000 HD
ENDROOT
BRANCH   9  21
ATOM     21  C   UNL     1      -1.995  13.166  22.476  0.00  0.00    +0.000 C 
BRANCH  21  22
ATOM     22  N   UNL     1      -3.374  12.874  22.061  0.00  0.00    +0.000 NA
ATOM     23  C   UNL     1      -3.682  12.991  20.631  0.00  0.00    +0.000 C 
ATOM     24  C   UNL     1      -5.091  12.420  20.309  0.00  0.00    +0.000 C 
ATOM     25  N   UNL     1      -6.199  12.862  21.186  0.00  0.00    +0.000 NA
ATOM     26  C   UNL     1      -6.753  14.140  20.758  0.00  0.00    +0.000 C 
ATOM     27  C   UNL     1      -5.771  12.914  22.598  0.00  0.00    +0.000 C 
ATOM     28  C   UNL     1      -4.390  13.559  22.853  0.00  0.00    +0.000 C 
ENDBRANCH  21  22
ENDBRANCH   9  21
TORSDOF 2
ENDMDL
MODEL 9
REMARK VINA RESULT:      -6.4      1.383      2.002
REMARK  Name = 
REMARK  5 active torsions:
REMARK  status: ('A' for Active; 'I' for Inactive)
REMARK    1  A    between atoms: C_1  and  C_2
REMARK    2  A    between atoms: N_4  and  C_5
REMARK    3  A    between atoms: C_9  and  C_11
REMARK    4  A    between atoms: C_11  and  N_12
REMARK    5  A    between atoms: N_15  and  C_16
REMARK                            x       y       z     vdW  Elec       q    Type
REMARK                         _______ _______ _______ _____ _____    ______ ____
ROOT
ATOM      1  C   UNL     1      -2.130  13.913  23.893  0.00  0.00    +0.000 C 
ATOM      2  C   UNL     1      -3.112  13.443  22.870  0.00  0.00    +0.000 A 
ATOM      3  N   UNL     1      -4.386  13.671  23.197  0.00  0.00    +0.000 NA
ATOM      4  N   UNL     1      -5.076  13.200  22.164  0.00  0.00    +0.000 N 
ATOM      5  C   UNL     1      -6.522  13.299  22.235  0.00  0.00    +0.000 C 
ATOM      6  C   UNL     1      -4.293  12.763  21.122  0.00  0.00    +0.000 A 
ATOM      7  C   UNL     1      -2.970  12.789  21.582  0.00  0.00    +0.000 A 
ATOM      8  N   UNL     1      -1.793  12.317  20.918  0.00  0.00    +0.000 N 
ATOM      9  C   UNL     1      -0.536  12.391  21.582  0.00  0.00    +0.000 C 
ATOM     10  O   UNL     1      -0.405  12.340  22.807  0.00  0.00    +0.000 OA
ATOM     11  C   UNL     1      -1.918  11.551  19.688  0.00  0.00    +0.000 A 
ATOM     12  C   UNL     1      -0.951  10.543  19.449  0.00  0.00    +0.000 A 
ATOM     13  C   UNL     1      -0.732   9.973  18.191  0.00  0.00    +0.000 A 
ATOM     14  C   UNL     1      -1.544  10.332  17.138  0.00  0.00    +0.000 A 
ATOM     15  C   UNL     1      -2.618  11.178  17.382  0.00  0.00    +0.000 A 
ATOM     16  C   UNL     1      -2.852  11.743  18.659  0.00  0.00    +0.000 A 
ATOM     17  N   UNL     1      -4.096  12.373  18.751  0.00  0.00    +0.000 N 
ATOM     18  C   UNL     1      -4.885  12.463  19.855  0.00  0.00    +0.000 C 
ATOM     19  O   UNL     1      -6.095  12.378  19.667  0.00  0.00    +0.000 OA
ATOM     20  H   UNL     1      -4.687  12.312  17.929  0.00  0.00    +0.000 HD
ENDROOT
BRANCH   9  21
ATOM     21  C   UNL     1       0.768  12.449  20.740  0.00  0.00    +0.000 C 
BRANCH  21  22
ATOM     22  N   UNL     1       1.250  13.777  20.334  0.00  0.00    +0.000 NA
ATOM     23  C   UNL     1       0.540  14.941  20.875  0.00  0.00    +0.000 C 
ATOM     24  C   UNL     1       1.303  16.260  20.566  0.00  0.00    +0.000 C 
ATOM     25  N   UNL     1       1.758  16.447  19.170  0.00  0.00    +0.000 NA
ATOM     26  C   UNL     1       0.707  16.999  18.325  0.00  0.00    +0.000 C 
ATOM     27  C   UNL     1       2.284  15.187  18.608  0.00  0.00    +0.000 C 
ATOM     28  C   UNL     1       1.439  13.925  18.894  0.00  0.00    +0.000 C 
ENDBRANCH  21  22
ENDBRANCH   9  21
TORSDOF 2
ENDMDL
