MODEL 1
REMARK VINA RESULT:      -8.5      0.000      0.000
REMARK  Name = 
REMARK  6 active torsions:
REMARK  status: ('A' for Active; 'I' for Inactive)
REMARK    1  A    between atoms: C_2  and  C_19
REMARK    2  A    between atoms: N_3  and  C_4
REMARK    3  A    between atoms: N_9  and  C_10
REMARK    4  A    between atoms: C_10  and  C_11
REMARK    5  A    between atoms: C_16  and  O_17
REMARK    6  A    between atoms: C_23  and  C_24
REMARK                            x       y       z     vdW  Elec       q    Type
REMARK                         _______ _______ _______ _____ _____    ______ ____
ROOT
ATOM      1  C   UNL     1       5.835   5.406  18.679  0.00  0.00    +0.000 C 
ATOM      2  C   UNL     1       7.145   6.025  18.179  0.00  0.00    +0.000 C 
ATOM      3  C   UNL     1       7.263   6.189  16.662  0.00  0.00    +0.000 C 
ATOM      4  C   UNL     1       7.336   4.849  15.939  0.00  0.00    +0.000 C 
ATOM      5  C   UNL     1       5.984   4.179  15.645  0.00  0.00    +0.000 C 
ATOM      6  N   UNL     1       4.950   4.168  16.694  0.00  0.00    +0.000 NA
ATOM      7  C   UNL     1       5.512   4.026  18.049  0.00  0.00    +0.000 C 
ENDROOT
BRANCH   1  10
ATOM      8  O   UNL     1       3.447   5.402  20.175  0.00  0.00    +0.000 OA
ATOM      9  C   UNL     1       3.604   6.272  19.313  0.00  0.00    +0.000 C 
ATOM     10  N   UNL     1       4.709   6.332  18.502  0.00  0.00    +0.000 N 
ATOM     11  H   UNL     1       4.889   7.135  17.916  0.00  0.00    +0.000 HD
BRANCH   9  12
ATOM     12  C   UNL     1       2.593   7.348  19.187  0.00  0.00    +0.000 A 
ATOM     13  C   UNL     1       2.407   8.080  18.010  0.00  0.00    +0.000 A 
ATOM     14  C   UNL     1       1.494   9.142  17.997  0.00  0.00    +0.000 A 
ATOM     15  C   UNL     1       0.776   9.469  19.149  0.00  0.00    +0.000 A 
ATOM     16  C   UNL     1       0.921   8.714  20.320  0.00  0.00    +0.000 A 
ATOM     17  C   UNL     1       1.819   7.636  20.317  0.00  0.00    +0.000 A 
BRANCH  16  18
ATOM     18  C   UNL     1       0.166   9.052  21.585  0.00  0.00    +0.000 C 
ATOM     19  F   UNL     1      -0.425  10.274  21.551  0.00  0.00    +0.000 F 
ATOM     20  F   UNL     1      -0.826   8.161  21.856  0.00  0.00    +0.000 F 
ATOM     21  F   UNL     1       0.974   9.059  22.679  0.00  0.00    +0.000 F 
ENDBRANCH  16  18
ENDBRANCH   9  12
ENDBRANCH   1  10
BRANCH   6  22
ATOM     22  C   UNL     1       3.932   3.114  16.430  0.00  0.00    +0.000 C 
BRANCH  22  23
ATOM     23  C   UNL     1       2.853   3.003  17.497  0.00  0.00    +0.000 A 
ATOM     24  C   UNL     1       1.845   3.979  17.586  0.00  0.00    +0.000 A 
ATOM     25  C   UNL     1       0.805   3.855  18.517  0.00  0.00    +0.000 A 
ATOM     26  C   UNL     1       0.750   2.750  19.364  0.00  0.00    +0.000 A 
ATOM     27  C   UNL     1       1.759   1.791  19.314  0.00  0.00    +0.000 A 
ATOM     28  C   UNL     1       2.811   1.934  18.399  0.00  0.00    +0.000 A 
BRANCH  28  29
ATOM     29  O   UNL     1       3.816   1.010  18.385  0.00  0.00    +0.000 OA
ATOM     30  H   UNL     1       3.512   0.225  18.870  0.00  0.00    +0.000 HD
ENDBRANCH  28  29
ENDBRANCH  22  23
ENDBRANCH   6  22
TORSDOF 6
ENDMDL
MODEL 2
REMARK VINA RESULT:      -8.5      1.073      1.476
REMARK  Name = 
REMARK  6 active torsions:
REMARK  status: ('A' for Active; 'I' for Inactive)
REMARK    1  A    between atoms: C_2  and  C_19
REMARK    2  A    between atoms: N_3  and  C_4
REMARK    3  A    between atoms: N_9  and  C_10
REMARK    4  A    between atoms: C_10  and  C_11
REMARK    5  A    between atoms: C_16  and  O_17
REMARK    6  A    between atoms: C_23  and  C_24
REMARK                            x       y       z     vdW  Elec       q    Type
REMARK                         _______ _______ _______ _____ _____    ______ ____
ROOT
ATOM      1  C   UNL     1       5.783   5.483  18.181  0.00  0.00    +0.000 C 
ATOM      2  C   UNL     1       6.861   5.926  17.185  0.00  0.00    +0.000 C 
ATOM      3  C   UNL     1       6.545   5.665  15.710  0.00  0.00    +0.000 C 
ATOM      4  C   UNL     1       6.506   4.176  15.382  0.00  0.00    +0.000 C 
ATOM      5  C   UNL     1       5.174   3.467  15.673  0.00  0.00    +0.000 C 
ATOM      6  N   UNL     1       4.472   3.757  16.934  0.00  0.00    +0.000 NA
ATOM      7  C   UNL     1       5.393   3.988  18.061  0.00  0.00    +0.000 C 
ENDROOT
BRANCH   1  10
ATOM      8  O   UNL     1       3.804   5.771  20.166  0.00  0.00    +0.000 OA
ATOM      9  C   UNL     1       3.707   6.440  19.132  0.00  0.00    +0.000 C 
ATOM     10  N   UNL     1       4.592   6.337  18.090  0.00  0.00    +0.000 N 
ATOM     11  H   UNL     1       4.585   7.000  17.326  0.00  0.00    +0.000 HD
BRANCH   9  12
ATOM     12  C   UNL     1       2.631   7.453  19.031  0.00  0.00    +0.000 A 
ATOM     13  C   UNL     1       2.380   8.178  17.862  0.00  0.00    +0.000 A 
ATOM     14  C   UNL     1       1.404   9.183  17.872  0.00  0.00    +0.000 A 
ATOM     15  C   UNL     1       0.688   9.460  19.039  0.00  0.00    +0.000 A 
ATOM     16  C   UNL     1       0.899   8.708  20.202  0.00  0.00    +0.000 A 
ATOM     17  C   UNL     1       1.861   7.687  20.177  0.00  0.00    +0.000 A 
BRANCH  16  18
ATOM     18  C   UNL     1       0.148   8.993  21.482  0.00  0.00    +0.000 C 
ATOM     19  F   UNL     1      -0.489  10.192  21.480  0.00  0.00    +0.000 F 
ATOM     20  F   UNL     1      -0.808   8.060  21.746  0.00  0.00    +0.000 F 
ATOM     21  F   UNL     1       0.968   9.008  22.567  0.00  0.00    +0.000 F 
ENDBRANCH  16  18
ENDBRANCH   9  12
ENDBRANCH   1  10
BRANCH   6  22
ATOM     22  C   UNL     1       3.493   2.683  17.260  0.00  0.00    +0.000 C 
BRANCH  22  23
ATOM     23  C   UNL     1       2.678   2.939  18.519  0.00  0.00    +0.000 A 
ATOM     24  C   UNL     1       3.062   2.355  19.739  0.00  0.00    +0.000 A 
ATOM     25  C   UNL     1       2.363   2.636  20.921  0.00  0.00    +0.000 A 
ATOM     26  C   UNL     1       1.281   3.513  20.905  0.00  0.00    +0.000 A 
ATOM     27  C   UNL     1       0.865   4.074  19.700  0.00  0.00    +0.000 A 
ATOM     28  C   UNL     1       1.551   3.769  18.516  0.00  0.00    +0.000 A 
BRANCH  28  29
ATOM     29  O   UNL     1       1.111   4.291  17.334  0.00  0.00    +0.000 OA
ATOM     30  H   UNL     1       0.241   4.694  17.487  0.00  0.00    +0.000 HD
ENDBRANCH  28  29
ENDBRANCH  22  23
ENDBRANCH   6  22
TORSDOF 6
ENDMDL
MODEL 3
REMARK VINA RESULT:      -8.4      4.751      7.738
REMARK  Name = 
REMARK  6 active torsions:
REMARK  status: ('A' for Active; 'I' for Inactive)
REMARK    1  A    between atoms: C_2  and  C_19
REMARK    2  A    between atoms: N_3  and  C_4
REMARK    3  A    between atoms: N_9  and  C_10
REMARK    4  A    between atoms: C_10  and  C_11
REMARK    5  A    between atoms: C_16  and  O_17
REMARK    6  A    between atoms: C_23  and  C_24
REMARK                            x       y       z     vdW  Elec       q    Type
REMARK                         _______ _______ _______ _____ _____    ______ ____
ROOT
ATOM      1  C   UNL     1       4.670   3.684  17.980  0.00  0.00    +0.000 C 
ATOM      2  C   UNL     1       3.692   2.518  18.163  0.00  0.00    +0.000 C 
ATOM      3  C   UNL     1       2.263   2.772  17.677  0.00  0.00    +0.000 C 
ATOM      4  C   UNL     1       1.546   3.826  18.513  0.00  0.00    +0.000 C 
ATOM      5  C   UNL     1       1.816   5.286  18.117  0.00  0.00    +0.000 C 
ATOM      6  N   UNL     1       3.195   5.696  17.803  0.00  0.00    +0.000 NA
ATOM      7  C   UNL     1       4.200   5.009  18.635  0.00  0.00    +0.000 C 
ENDROOT
BRANCH   1  10
ATOM      8  O   UNL     1       7.122   4.631  16.963  0.00  0.00    +0.000 OA
ATOM      9  C   UNL     1       6.231   4.320  16.166  0.00  0.00    +0.000 C 
ATOM     10  N   UNL     1       4.989   3.893  16.562  0.00  0.00    +0.000 N 
ATOM     11  H   UNL     1       4.333   3.497  15.902  0.00  0.00    +0.000 HD
BRANCH   9  12
ATOM     12  C   UNL     1       6.528   4.336  14.715  0.00  0.00    +0.000 A 
ATOM     13  C   UNL     1       7.657   4.964  14.179  0.00  0.00    +0.000 A 
ATOM     14  C   UNL     1       7.822   5.013  12.789  0.00  0.00    +0.000 A 
ATOM     15  C   UNL     1       6.868   4.442  11.945  0.00  0.00    +0.000 A 
ATOM     16  C   UNL     1       5.757   3.771  12.472  0.00  0.00    +0.000 A 
ATOM     17  C   UNL     1       5.612   3.704  13.866  0.00  0.00    +0.000 A 
BRANCH  16  18
ATOM     18  C   UNL     1       4.703   3.154  11.582  0.00  0.00    +0.000 C 
ATOM     19  F   UNL     1       4.403   3.909  10.494  0.00  0.00    +0.000 F 
ATOM     20  F   UNL     1       5.070   1.933  11.104  0.00  0.00    +0.000 F 
ATOM     21  F   UNL     1       3.526   2.962  12.237  0.00  0.00    +0.000 F 
ENDBRANCH  16  18
ENDBRANCH   9  12
ENDBRANCH   1  10
BRANCH   6  22
ATOM     22  C   UNL     1       3.349   7.174  17.901  0.00  0.00    +0.000 C 
BRANCH  22  23
ATOM     23  C   UNL     1       2.357   7.846  18.839  0.00  0.00    +0.000 A 
ATOM     24  C   UNL     1       2.124   7.314  20.119  0.00  0.00    +0.000 A 
ATOM     25  C   UNL     1       1.267   7.960  21.020  0.00  0.00    +0.000 A 
ATOM     26  C   UNL     1       0.641   9.152  20.663  0.00  0.00    +0.000 A 
ATOM     27  C   UNL     1       0.833   9.675  19.387  0.00  0.00    +0.000 A 
ATOM     28  C   UNL     1       1.670   9.012  18.480  0.00  0.00    +0.000 A 
BRANCH  28  29
ATOM     29  O   UNL     1       1.820   9.511  17.218  0.00  0.00    +0.000 OA
ATOM     30  H   UNL     1       1.898   8.763  16.604  0.00  0.00    +0.000 HD
ENDBRANCH  28  29
ENDBRANCH  22  23
ENDBRANCH   6  22
TORSDOF 6
ENDMDL
MODEL 4
REMARK VINA RESULT:      -8.3      0.897      1.220
REMARK  Name = 
REMARK  6 active torsions:
REMARK  status: ('A' for Active; 'I' for Inactive)
REMARK    1  A    between atoms: C_2  and  C_19
REMARK    2  A    between atoms: N_3  and  C_4
REMARK    3  A    between atoms: N_9  and  C_10
REMARK    4  A    between atoms: C_10  and  C_11
REMARK    5  A    between atoms: C_16  and  O_17
REMARK    6  A    between atoms: C_23  and  C_24
REMARK                            x       y       z     vdW  Elec       q    Type
REMARK                         _______ _______ _______ _____ _____    ______ ____
ROOT
ATOM      1  C   UNL     1       5.720   5.612  18.127  0.00  0.00    +0.000 C 
ATOM      2  C   UNL     1       6.779   6.043  17.105  0.00  0.00    +0.000 C 
ATOM      3  C   UNL     1       6.435   5.766  15.640  0.00  0.00    +0.000 C 
ATOM      4  C   UNL     1       6.390   4.275  15.328  0.00  0.00    +0.000 C 
ATOM      5  C   UNL     1       5.064   3.568  15.652  0.00  0.00    +0.000 C 
ATOM      6  N   UNL     1       4.386   3.873  16.923  0.00  0.00    +0.000 NA
ATOM      7  C   UNL     1       5.328   4.115  18.031  0.00  0.00    +0.000 C 
ENDROOT
BRANCH   1  10
ATOM      8  O   UNL     1       3.737   5.857  20.113  0.00  0.00    +0.000 OA
ATOM      9  C   UNL     1       3.640   6.545  19.091  0.00  0.00    +0.000 C 
ATOM     10  N   UNL     1       4.528   6.465  18.049  0.00  0.00    +0.000 N 
ATOM     11  H   UNL     1       4.522   7.142  17.299  0.00  0.00    +0.000 HD
BRANCH   9  12
ATOM     12  C   UNL     1       2.562   7.558  19.007  0.00  0.00    +0.000 A 
ATOM     13  C   UNL     1       2.300   8.291  17.846  0.00  0.00    +0.000 A 
ATOM     14  C   UNL     1       1.323   9.295  17.872  0.00  0.00    +0.000 A 
ATOM     15  C   UNL     1       0.618   9.563  19.047  0.00  0.00    +0.000 A 
ATOM     16  C   UNL     1       0.841   8.804  20.203  0.00  0.00    +0.000 A 
ATOM     17  C   UNL     1       1.803   7.783  20.162  0.00  0.00    +0.000 A 
BRANCH  16  18
ATOM     18  C   UNL     1       0.101   9.079  21.491  0.00  0.00    +0.000 C 
ATOM     19  F   UNL     1      -0.818   8.128  21.802  0.00  0.00    +0.000 F 
ATOM     20  F   UNL     1       0.933   9.163  22.566  0.00  0.00    +0.000 F 
ATOM     21  F   UNL     1      -0.580  10.256  21.451  0.00  0.00    +0.000 F 
ENDBRANCH  16  18
ENDBRANCH   9  12
ENDBRANCH   1  10
BRANCH   6  22
ATOM     22  C   UNL     1       3.414   2.802  17.280  0.00  0.00    +0.000 C 
BRANCH  22  23
ATOM     23  C   UNL     1       2.735   2.995  18.628  0.00  0.00    +0.000 A 
ATOM     24  C   UNL     1       1.534   3.718  18.716  0.00  0.00    +0.000 A 
ATOM     25  C   UNL     1       0.860   3.846  19.939  0.00  0.00    +0.000 A 
ATOM     26  C   UNL     1       1.369   3.243  21.087  0.00  0.00    +0.000 A 
ATOM     27  C   UNL     1       2.577   2.553  21.025  0.00  0.00    +0.000 A 
ATOM     28  C   UNL     1       3.260   2.450  19.806  0.00  0.00    +0.000 A 
BRANCH  28  29
ATOM     29  O   UNL     1       4.463   1.806  19.764  0.00  0.00    +0.000 OA
ATOM     30  H   UNL     1       4.294   0.860  19.617  0.00  0.00    +0.000 HD
ENDBRANCH  28  29
ENDBRANCH  22  23
ENDBRANCH   6  22
TORSDOF 6
ENDMDL
MODEL 5
REMARK VINA RESULT:      -7.8      4.682      7.698
REMARK  Name = 
REMARK  6 active torsions:
REMARK  status: ('A' for Active; 'I' for Inactive)
REMARK    1  A    between atoms: C_2  and  C_19
REMARK    2  A    between atoms: N_3  and  C_4
REMARK    3  A    between atoms: N_9  and  C_10
REMARK    4  A    between atoms: C_10  and  C_11
REMARK    5  A    between atoms: C_16  and  O_17
REMARK    6  A    between atoms: C_23  and  C_24
REMARK                            x       y       z     vdW  Elec       q    Type
REMARK                         _______ _______ _______ _____ _____    ______ ____
ROOT
ATOM      1  C   UNL     1       4.608   3.819  17.927  0.00  0.00    +0.000 C 
ATOM      2  C   UNL     1       3.555   2.717  18.093  0.00  0.00    +0.000 C 
ATOM      3  C   UNL     1       2.149   3.067  17.600  0.00  0.00    +0.000 C 
ATOM      4  C   UNL     1       1.496   4.158  18.442  0.00  0.00    +0.000 C 
ATOM      5  C   UNL     1       1.863   5.601  18.061  0.00  0.00    +0.000 C 
ATOM      6  N   UNL     1       3.267   5.923  17.760  0.00  0.00    +0.000 NA
ATOM      7  C   UNL     1       4.220   5.165  18.591  0.00  0.00    +0.000 C 
ENDROOT
BRANCH   1  10
ATOM      8  O   UNL     1       7.147   4.519  16.926  0.00  0.00    +0.000 OA
ATOM      9  C   UNL     1       6.229   4.320  16.124  0.00  0.00    +0.000 C 
ATOM     10  N   UNL     1       4.949   4.019  16.513  0.00  0.00    +0.000 N 
ATOM     11  H   UNL     1       4.256   3.708  15.846  0.00  0.00    +0.000 HD
BRANCH   9  12
ATOM     12  C   UNL     1       6.529   4.332  14.673  0.00  0.00    +0.000 A 
ATOM     13  C   UNL     1       7.655   4.962  14.136  0.00  0.00    +0.000 A 
ATOM     14  C   UNL     1       7.822   5.007  12.746  0.00  0.00    +0.000 A 
ATOM     15  C   UNL     1       6.871   4.429  11.903  0.00  0.00    +0.000 A 
ATOM     16  C   UNL     1       5.763   3.755  12.431  0.00  0.00    +0.000 A 
ATOM     17  C   UNL     1       5.616   3.693  13.825  0.00  0.00    +0.000 A 
BRANCH  16  18
ATOM     18  C   UNL     1       4.712   3.130  11.542  0.00  0.00    +0.000 C 
ATOM     19  F   UNL     1       5.075   1.920  11.044  0.00  0.00    +0.000 F 
ATOM     20  F   UNL     1       3.530   2.933  12.188  0.00  0.00    +0.000 F 
ATOM     21  F   UNL     1       4.426   3.907  10.463  0.00  0.00    +0.000 F 
ENDBRANCH  16  18
ENDBRANCH   9  12
ENDBRANCH   1  10
BRANCH   6  22
ATOM     22  C   UNL     1       3.515   7.388  17.873  0.00  0.00    +0.000 C 
BRANCH  22  23
ATOM     23  C   UNL     1       2.357   8.176  18.466  0.00  0.00    +0.000 A 
ATOM     24  C   UNL     1       1.661   9.109  17.678  0.00  0.00    +0.000 A 
ATOM     25  C   UNL     1       0.548   9.792  18.187  0.00  0.00    +0.000 A 
ATOM     26  C   UNL     1       0.107   9.544  19.485  0.00  0.00    +0.000 A 
ATOM     27  C   UNL     1       0.804   8.649  20.292  0.00  0.00    +0.000 A 
ATOM     28  C   UNL     1       1.932   7.988  19.786  0.00  0.00    +0.000 A 
BRANCH  28  29
ATOM     29  O   UNL     1       2.633   7.143  20.598  0.00  0.00    +0.000 OA
ATOM     30  H   UNL     1       3.100   6.503  20.036  0.00  0.00    +0.000 HD
ENDBRANCH  28  29
ENDBRANCH  22  23
ENDBRANCH   6  22
TORSDOF 6
ENDMDL
MODEL 6
REMARK VINA RESULT:      -7.7      4.096      6.967
REMARK  Name = 
REMARK  6 active torsions:
REMARK  status: ('A' for Active; 'I' for Inactive)
REMARK    1  A    between atoms: C_2  and  C_19
REMARK    2  A    between atoms: N_3  and  C_4
REMARK    3  A    between atoms: N_9  and  C_10
REMARK    4  A    between atoms: C_10  and  C_11
REMARK    5  A    between atoms: C_16  and  O_17
REMARK    6  A    between atoms: C_23  and  C_24
REMARK                            x       y       z     vdW  Elec       q    Type
REMARK                         _______ _______ _______ _____ _____    ______ ____
ROOT
ATOM      1  C   UNL     1       3.814   2.716  19.767  0.00  0.00    +0.000 C 
ATOM      2  C   UNL     1       3.060   1.531  19.152  0.00  0.00    +0.000 C 
ATOM      3  C   UNL     1       1.777   1.885  18.397  0.00  0.00    +0.000 C 
ATOM      4  C   UNL     1       0.687   2.414  19.323  0.00  0.00    +0.000 C 
ATOM      5  C   UNL     1       0.768   3.913  19.655  0.00  0.00    +0.000 C 
ATOM      6  N   UNL     1       2.078   4.503  19.974  0.00  0.00    +0.000 NA
ATOM      7  C   UNL     1       2.953   3.582  20.721  0.00  0.00    +0.000 C 
ENDROOT
BRANCH   1  10
ATOM      8  O   UNL     1       5.958   4.505  20.146  0.00  0.00    +0.000 OA
ATOM      9  C   UNL     1       5.502   4.360  19.007  0.00  0.00    +0.000 C 
ATOM     10  N   UNL     1       4.432   3.548  18.728  0.00  0.00    +0.000 N 
ATOM     11  H   UNL     1       4.177   3.323  17.776  0.00  0.00    +0.000 HD
BRANCH   9  12
ATOM     12  C   UNL     1       6.179   5.031  17.873  0.00  0.00    +0.000 A 
ATOM     13  C   UNL     1       6.900   6.220  18.016  0.00  0.00    +0.000 A 
ATOM     14  C   UNL     1       7.435   6.842  16.881  0.00  0.00    +0.000 A 
ATOM     15  C   UNL     1       7.249   6.280  15.616  0.00  0.00    +0.000 A 
ATOM     16  C   UNL     1       6.568   5.065  15.466  0.00  0.00    +0.000 A 
ATOM     17  C   UNL     1       6.057   4.436  16.611  0.00  0.00    +0.000 A 
BRANCH  16  18
ATOM     18  C   UNL     1       6.343   4.440  14.109  0.00  0.00    +0.000 C 
ATOM     19  F   UNL     1       6.505   3.092  14.100  0.00  0.00    +0.000 F 
ATOM     20  F   UNL     1       5.090   4.672  13.627  0.00  0.00    +0.000 F 
ATOM     21  F   UNL     1       7.201   4.925  13.171  0.00  0.00    +0.000 F 
ENDBRANCH  16  18
ENDBRANCH   9  12
ENDBRANCH   1  10
BRANCH   6  22
ATOM     22  C   UNL     1       1.920   5.792  20.703  0.00  0.00    +0.000 C 
BRANCH  22  23
ATOM     23  C   UNL     1       2.016   7.028  19.820  0.00  0.00    +0.000 A 
ATOM     24  C   UNL     1       2.718   6.973  18.604  0.00  0.00    +0.000 A 
ATOM     25  C   UNL     1       2.757   8.081  17.747  0.00  0.00    +0.000 A 
ATOM     26  C   UNL     1       2.087   9.254  18.085  0.00  0.00    +0.000 A 
ATOM     27  C   UNL     1       1.416   9.338  19.303  0.00  0.00    +0.000 A 
ATOM     28  C   UNL     1       1.402   8.236  20.168  0.00  0.00    +0.000 A 
BRANCH  28  29
ATOM     29  O   UNL     1       0.776   8.342  21.377  0.00  0.00    +0.000 OA
ATOM     30  H   UNL     1      -0.177   8.443  21.216  0.00  0.00    +0.000 HD
ENDBRANCH  28  29
ENDBRANCH  22  23
ENDBRANCH   6  22
TORSDOF 6
ENDMDL
MODEL 7
REMARK VINA RESULT:      -7.7      4.267      7.133
REMARK  Name = 
REMARK  6 active torsions:
REMARK  status: ('A' for Active; 'I' for Inactive)
REMARK    1  A    between atoms: C_2  and  C_19
REMARK    2  A    between atoms: N_3  and  C_4
REMARK    3  A    between atoms: N_9  and  C_10
REMARK    4  A    between atoms: C_10  and  C_11
REMARK    5  A    between atoms: C_16  and  O_17
REMARK    6  A    between atoms: C_23  and  C_24
REMARK                            x       y       z     vdW  Elec       q    Type
REMARK                         _______ _______ _______ _____ _____    ______ ____
ROOT
ATOM      1  C   UNL     1       3.889   2.529  19.194  0.00  0.00    +0.000 C 
ATOM      2  C   UNL     1       2.833   1.511  18.748  0.00  0.00    +0.000 C 
ATOM      3  C   UNL     1       1.516   2.103  18.243  0.00  0.00    +0.000 C 
ATOM      4  C   UNL     1       0.732   2.798  19.351  0.00  0.00    +0.000 C 
ATOM      5  C   UNL     1       1.139   4.251  19.642  0.00  0.00    +0.000 C 
ATOM      6  N   UNL     1       2.570   4.592  19.701  0.00  0.00    +0.000 NA
ATOM      7  C   UNL     1       3.392   3.515  20.282  0.00  0.00    +0.000 C 
ENDROOT
BRANCH   1  10
ATOM      8  O   UNL     1       6.179   4.171  19.230  0.00  0.00    +0.000 OA
ATOM      9  C   UNL     1       5.588   4.003  18.159  0.00  0.00    +0.000 C 
ATOM     10  N   UNL     1       4.440   3.260  18.046  0.00  0.00    +0.000 N 
ATOM     11  H   UNL     1       4.063   3.008  17.143  0.00  0.00    +0.000 HD
BRANCH   9  12
ATOM     12  C   UNL     1       6.174   4.565  16.919  0.00  0.00    +0.000 A 
ATOM     13  C   UNL     1       6.950   5.728  16.907  0.00  0.00    +0.000 A 
ATOM     14  C   UNL     1       7.394   6.246  15.684  0.00  0.00    +0.000 A 
ATOM     15  C   UNL     1       7.064   5.607  14.486  0.00  0.00    +0.000 A 
ATOM     16  C   UNL     1       6.327   4.416  14.490  0.00  0.00    +0.000 A 
ATOM     17  C   UNL     1       5.907   3.891  15.722  0.00  0.00    +0.000 A 
BRANCH  16  18
ATOM     18  C   UNL     1       5.947   3.711  13.209  0.00  0.00    +0.000 C 
ATOM     19  F   UNL     1       6.662   4.122  12.132  0.00  0.00    +0.000 F 
ATOM     20  F   UNL     1       6.119   2.362  13.284  0.00  0.00    +0.000 F 
ATOM     21  F   UNL     1       4.640   3.905  12.885  0.00  0.00    +0.000 F 
ENDBRANCH  16  18
ENDBRANCH   9  12
ENDBRANCH   1  10
BRANCH   6  22
ATOM     22  C   UNL     1       2.785   5.873  20.431  0.00  0.00    +0.000 C 
BRANCH  22  23
ATOM     23  C   UNL     1       2.294   7.107  19.688  0.00  0.00    +0.000 A 
ATOM     24  C   UNL     1       1.522   8.073  20.356  0.00  0.00    +0.000 A 
ATOM     25  C   UNL     1       1.121   9.248  19.706  0.00  0.00    +0.000 A 
ATOM     26  C   UNL     1       1.496   9.481  18.385  0.00  0.00    +0.000 A 
ATOM     27  C   UNL     1       2.231   8.520  17.696  0.00  0.00    +0.000 A 
ATOM     28  C   UNL     1       2.607   7.335  18.343  0.00  0.00    +0.000 A 
BRANCH  28  29
ATOM     29  O   UNL     1       3.293   6.381  17.647  0.00  0.00    +0.000 OA
ATOM     30  H   UNL     1       3.970   6.007  18.234  0.00  0.00    +0.000 HD
ENDBRANCH  28  29
ENDBRANCH  22  23
ENDBRANCH   6  22
TORSDOF 6
ENDMDL
MODEL 8
REMARK VINA RESULT:      -7.5      4.054      6.920
REMARK  Name = 
REMARK  6 active torsions:
REMARK  status: ('A' for Active; 'I' for Inactive)
REMARK    1  A    between atoms: C_2  and  C_19
REMARK    2  A    between atoms: N_3  and  C_4
REMARK    3  A    between atoms: N_9  and  C_10
REMARK    4  A    between atoms: C_10  and  C_11
REMARK    5  A    between atoms: C_16  and  O_17
REMARK    6  A    between atoms: C_23  and  C_24
REMARK                            x       y       z     vdW  Elec       q    Type
REMARK                         _______ _______ _______ _____ _____    ______ ____
ROOT
ATOM      1  C   UNL     1       3.709   2.869  19.822  0.00  0.00    +0.000 C 
ATOM      2  C   UNL     1       2.825   1.764  19.231  0.00  0.00    +0.000 C 
ATOM      3  C   UNL     1       1.538   2.239  18.554  0.00  0.00    +0.000 C 
ATOM      4  C   UNL     1       0.548   2.837  19.548  0.00  0.00    +0.000 C 
ATOM      5  C   UNL     1       0.772   4.316  19.899  0.00  0.00    +0.000 C 
ATOM      6  N   UNL     1       2.142   4.789  20.155  0.00  0.00    +0.000 NA
ATOM      7  C   UNL     1       2.977   3.784  20.837  0.00  0.00    +0.000 C 
ENDROOT
BRANCH   1  10
ATOM      8  O   UNL     1       6.036   4.434  20.099  0.00  0.00    +0.000 OA
ATOM      9  C   UNL     1       5.497   4.366  18.990  0.00  0.00    +0.000 C 
ATOM     10  N   UNL     1       4.337   3.669  18.763  0.00  0.00    +0.000 N 
ATOM     11  H   UNL     1       4.001   3.498  17.826  0.00  0.00    +0.000 HD
BRANCH   9  12
ATOM     12  C   UNL     1       6.161   5.003  17.829  0.00  0.00    +0.000 A 
ATOM     13  C   UNL     1       6.893   6.190  17.931  0.00  0.00    +0.000 A 
ATOM     14  C   UNL     1       7.416   6.778  16.773  0.00  0.00    +0.000 A 
ATOM     15  C   UNL     1       7.208   6.186  15.525  0.00  0.00    +0.000 A 
ATOM     16  C   UNL     1       6.515   4.973  15.417  0.00  0.00    +0.000 A 
ATOM     17  C   UNL     1       6.016   4.378  16.585  0.00  0.00    +0.000 A 
BRANCH  16  18
ATOM     18  C   UNL     1       6.264   4.316  14.079  0.00  0.00    +0.000 C 
ATOM     19  F   UNL     1       5.014   4.533  13.595  0.00  0.00    +0.000 F 
ATOM     20  F   UNL     1       7.123   4.748  13.115  0.00  0.00    +0.000 F 
ATOM     21  F   UNL     1       6.412   2.965  14.135  0.00  0.00    +0.000 F 
ENDBRANCH  16  18
ENDBRANCH   9  12
ENDBRANCH   1  10
BRANCH   6  22
ATOM     22  C   UNL     1       2.132   6.072  20.912  0.00  0.00    +0.000 C 
BRANCH  22  23
ATOM     23  C   UNL     1       1.851   7.301  20.061  0.00  0.00    +0.000 A 
ATOM     24  C   UNL     1       1.095   8.364  20.584  0.00  0.00    +0.000 A 
ATOM     25  C   UNL     1       0.885   9.532  19.839  0.00  0.00    +0.000 A 
ATOM     26  C   UNL     1       1.437   9.661  18.566  0.00  0.00    +0.000 A 
ATOM     27  C   UNL     1       2.160   8.604  18.018  0.00  0.00    +0.000 A 
ATOM     28  C   UNL     1       2.344   7.428  18.757  0.00  0.00    +0.000 A 
BRANCH  28  29
ATOM     29  O   UNL     1       3.019   6.383  18.196  0.00  0.00    +0.000 OA
ATOM     30  H   UNL     1       3.967   6.505  18.372  0.00  0.00    +0.000 HD
ENDBRANCH  28  29
ENDBRANCH  22  23
ENDBRANCH   6  22
TORSDOF 6
ENDMDL
MODEL 9
REMARK VINA RESULT:      -7.4      4.466      7.244
REMARK  Name = 
REMARK  6 active torsions:
REMARK  status: ('A' for Active; 'I' for Inactive)
REMARK    1  A    between atoms: C_2  and  C_19
REMARK    2  A    between atoms: N_3  and  C_4
REMARK    3  A    between atoms: N_9  and  C_10
REMARK    4  A    between atoms: C_10  and  C_11
REMARK    5  A    between atoms: C_16  and  O_17
REMARK    6  A    between atoms: C_23  and  C_24
REMARK                            x       y       z     vdW  Elec       q    Type
REMARK                         _______ _______ _______ _____ _____    ______ ____
ROOT
ATOM      1  C   UNL     1       3.756   3.163  19.603  0.00  0.00    +0.000 C 
ATOM      2  C   UNL     1       2.960   1.894  19.279  0.00  0.00    +0.000 C 
ATOM      3  C   UNL     1       1.491   2.111  18.911  0.00  0.00    +0.000 C 
ATOM      4  C   UNL     1       0.668   2.621  20.089  0.00  0.00    +0.000 C 
ATOM      5  C   UNL     1       0.714   4.139  20.323  0.00  0.00    +0.000 C 
ATOM      6  N   UNL     1       2.007   4.837  20.229  0.00  0.00    +0.000 NA
ATOM      7  C   UNL     1       3.132   4.027  20.729  0.00  0.00    +0.000 C 
ENDROOT
BRANCH   1  10
ATOM      8  O   UNL     1       6.255   4.076  18.674  0.00  0.00    +0.000 OA
ATOM      9  C   UNL     1       5.247   4.330  18.007  0.00  0.00    +0.000 C 
ATOM     10  N   UNL     1       3.982   3.970  18.397  0.00  0.00    +0.000 N 
ATOM     11  H   UNL     1       3.195   4.048  17.767  0.00  0.00    +0.000 HD
BRANCH   9  12
ATOM     12  C   UNL     1       5.405   4.990  16.690  0.00  0.00    +0.000 A 
ATOM     13  C   UNL     1       5.263   6.370  16.512  0.00  0.00    +0.000 A 
ATOM     14  C   UNL     1       5.338   6.907  15.221  0.00  0.00    +0.000 A 
ATOM     15  C   UNL     1       5.552   6.074  14.121  0.00  0.00    +0.000 A 
ATOM     16  C   UNL     1       5.742   4.697  14.293  0.00  0.00    +0.000 A 
ATOM     17  C   UNL     1       5.690   4.169  15.592  0.00  0.00    +0.000 A 
BRANCH  16  18
ATOM     18  C   UNL     1       5.963   3.770  13.121  0.00  0.00    +0.000 C 
ATOM     19  F   UNL     1       4.855   3.589  12.357  0.00  0.00    +0.000 F 
ATOM     20  F   UNL     1       6.934   4.216  12.277  0.00  0.00    +0.000 F 
ATOM     21  F   UNL     1       6.351   2.527  13.515  0.00  0.00    +0.000 F 
ENDBRANCH  16  18
ENDBRANCH   9  12
ENDBRANCH   1  10
BRANCH   6  22
ATOM     22  C   UNL     1       1.955   6.155  20.920  0.00  0.00    +0.000 C 
BRANCH  22  23
ATOM     23  C   UNL     1       1.906   7.353  19.983  0.00  0.00    +0.000 A 
ATOM     24  C   UNL     1       2.477   7.270  18.701  0.00  0.00    +0.000 A 
ATOM     25  C   UNL     1       2.380   8.340  17.801  0.00  0.00    +0.000 A 
ATOM     26  C   UNL     1       1.702   9.502  18.163  0.00  0.00    +0.000 A 
ATOM     27  C   UNL     1       1.161   9.615  19.441  0.00  0.00    +0.000 A 
ATOM     28  C   UNL     1       1.283   8.553  20.346  0.00  0.00    +0.000 A 
BRANCH  28  29
ATOM     29  O   UNL     1       0.785   8.689  21.610  0.00  0.00    +0.000 OA
ATOM     30  H   UNL     1       0.992   9.586  21.921  0.00  0.00    +0.000 HD
ENDBRANCH  28  29
ENDBRANCH  22  23
ENDBRANCH   6  22
TORSDOF 6
ENDMDL
