MODEL 1
REMARK VINA RESULT:      -9.2      0.000      0.000
REMARK  Name = 
REMARK  4 active torsions:
REMARK  status: ('A' for Active; 'I' for Inactive)
REMARK    1  A    between atoms: C_1  and  O_2
REMARK    2  A    between atoms: O_2  and  C_3
REMARK    3  A    between atoms: N_9  and  C_10
REMARK    4  A    between atoms: C_17  and  C_18
REMARK                            x       y       z     vdW  Elec       q    Type
REMARK                         _______ _______ _______ _____ _____    ______ ____
ROOT
ATOM      1  C   UNL     1       1.989   3.714  19.377  0.00  0.00    +0.000 A 
ATOM      2  C   UNL     1       1.886   3.345  18.033  0.00  0.00    +0.000 A 
ATOM      3  C   UNL     1       2.932   3.614  17.157  0.00  0.00    +0.000 A 
ATOM      4  C   UNL     1       4.072   4.243  17.642  0.00  0.00    +0.000 A 
ATOM      5  O   UNL     1       5.073   4.535  16.711  0.00  0.00    +0.000 OA
ATOM      6  C   UNL     1       6.327   5.000  17.080  0.00  0.00    +0.000 A 
ATOM      7  N   UNL     1       7.272   5.094  16.190  0.00  0.00    +0.000 NA
ATOM      8  C   UNL     1       6.491   5.378  18.511  0.00  0.00    +0.000 A 
ATOM      9  C   UNL     1       5.488   5.184  19.390  0.00  0.00    +0.000 A 
ATOM     10  C   UNL     1       4.227   4.581  18.977  0.00  0.00    +0.000 A 
ATOM     11  C   UNL     1       3.167   4.319  19.850  0.00  0.00    +0.000 A 
ENDROOT
BRANCH   7  12
ATOM     12  C   UNL     1       7.030   4.736  14.845  0.00  0.00    +0.000 A 
ATOM     13  C   UNL     1       6.218   3.655  14.464  0.00  0.00    +0.000 A 
ATOM     14  C   UNL     1       5.969   3.371  13.118  0.00  0.00    +0.000 A 
ATOM     15  C   UNL     1       6.591   4.127  12.131  0.00  0.00    +0.000 A 
ATOM     16  C   UNL     1       7.449   5.155  12.502  0.00  0.00    +0.000 A 
ATOM     17  F   UNL     1       8.076   5.859  11.551  0.00  0.00    +0.000 F 
ATOM     18  C   UNL     1       7.668   5.467  13.842  0.00  0.00    +0.000 A 
ENDBRANCH   7  12
BRANCH   8  19
ATOM     19  C   UNL     1       7.740   5.994  19.059  0.00  0.00    +0.000 C 
ATOM     20  N   UNL     1       8.356   5.330  20.071  0.00  0.00    +0.000 N 
ATOM     21  O   UNL     1       8.209   7.045  18.636  0.00  0.00    +0.000 OA
ATOM     22  H   UNL     1       7.976   4.470  20.461  0.00  0.00    +0.000 HD
ATOM     23  H   UNL     1       9.194   5.727  20.475  0.00  0.00    +0.000 HD
ENDBRANCH   8  19
BRANCH   1  25
ATOM     24  C   UNL     1       1.370   2.786  21.474  0.00  0.00    +0.000 C 
ATOM     25  O   UNL     1       1.008   3.535  20.317  0.00  0.00    +0.000 OA
ENDBRANCH   1  25
TORSDOF 3
ENDMDL
MODEL 2
REMARK VINA RESULT:      -8.7      1.177      1.543
REMARK  Name = 
REMARK  4 active torsions:
REMARK  status: ('A' for Active; 'I' for Inactive)
REMARK    1  A    between atoms: C_1  and  O_2
REMARK    2  A    between atoms: O_2  and  C_3
REMARK    3  A    between atoms: N_9  and  C_10
REMARK    4  A    between atoms: C_17  and  C_18
REMARK                            x       y       z     vdW  Elec       q    Type
REMARK                         _______ _______ _______ _____ _____    ______ ____
ROOT
ATOM      1  C   UNL     1       1.940   3.866  19.049  0.00  0.00    +0.000 A 
ATOM      2  C   UNL     1       1.878   3.580  17.682  0.00  0.00    +0.000 A 
ATOM      3  C   UNL     1       2.975   3.835  16.868  0.00  0.00    +0.000 A 
ATOM      4  C   UNL     1       4.126   4.368  17.436  0.00  0.00    +0.000 A 
ATOM      5  O   UNL     1       5.183   4.652  16.566  0.00  0.00    +0.000 OA
ATOM      6  C   UNL     1       6.443   5.020  17.013  0.00  0.00    +0.000 A 
ATOM      7  N   UNL     1       7.431   5.108  16.170  0.00  0.00    +0.000 NA
ATOM      8  C   UNL     1       6.564   5.306  18.469  0.00  0.00    +0.000 A 
ATOM      9  C   UNL     1       5.513   5.122  19.293  0.00  0.00    +0.000 A 
ATOM     10  C   UNL     1       4.240   4.620  18.793  0.00  0.00    +0.000 A 
ATOM     11  C   UNL     1       3.129   4.372  19.604  0.00  0.00    +0.000 A 
ENDROOT
BRANCH   7  12
ATOM     12  C   UNL     1       7.230   4.841  14.798  0.00  0.00    +0.000 A 
ATOM     13  C   UNL     1       7.893   5.529  13.769  0.00  0.00    +0.000 A 
ATOM     14  C   UNL     1       7.698   5.195  12.426  0.00  0.00    +0.000 A 
ATOM     15  C   UNL     1       6.777   4.209  12.091  0.00  0.00    +0.000 A 
ATOM     16  C   UNL     1       6.067   3.571  13.102  0.00  0.00    +0.000 A 
ATOM     17  F   UNL     1       5.154   2.647  12.777  0.00  0.00    +0.000 F 
ATOM     18  C   UNL     1       6.289   3.873  14.443  0.00  0.00    +0.000 A 
ENDBRANCH   7  12
BRANCH   8  19
ATOM     19  C   UNL     1       7.820   5.816  19.105  0.00  0.00    +0.000 C 
ATOM     20  N   UNL     1       8.252   7.041  18.709  0.00  0.00    +0.000 N 
ATOM     21  O   UNL     1       8.449   5.183  19.947  0.00  0.00    +0.000 OA
ATOM     22  H   UNL     1       7.767   7.578  17.993  0.00  0.00    +0.000 HD
ATOM     23  H   UNL     1       9.105   7.409  19.107  0.00  0.00    +0.000 HD
ENDBRANCH   8  19
BRANCH   1  25
ATOM     24  C   UNL     1       1.210   2.956  21.117  0.00  0.00    +0.000 C 
ATOM     25  O   UNL     1       0.910   3.692  19.935  0.00  0.00    +0.000 OA
ENDBRANCH   1  25
TORSDOF 3
ENDMDL
MODEL 3
REMARK VINA RESULT:      -8.6      3.715      4.869
REMARK  Name = 
REMARK  4 active torsions:
REMARK  status: ('A' for Active; 'I' for Inactive)
REMARK    1  A    between atoms: C_1  and  O_2
REMARK    2  A    between atoms: O_2  and  C_3
REMARK    3  A    between atoms: N_9  and  C_10
REMARK    4  A    between atoms: C_17  and  C_18
REMARK                            x       y       z     vdW  Elec       q    Type
REMARK                         _______ _______ _______ _____ _____    ______ ____
ROOT
ATOM      1  C   UNL     1       1.113   9.420  19.295  0.00  0.00    +0.000 A 
ATOM      2  C   UNL     1       1.992   9.488  18.210  0.00  0.00    +0.000 A 
ATOM      3  C   UNL     1       2.822   8.410  17.921  0.00  0.00    +0.000 A 
ATOM      4  C   UNL     1       2.754   7.274  18.718  0.00  0.00    +0.000 A 
ATOM      5  O   UNL     1       3.643   6.240  18.414  0.00  0.00    +0.000 OA
ATOM      6  C   UNL     1       3.570   4.989  19.010  0.00  0.00    +0.000 A 
ATOM      7  N   UNL     1       4.312   4.015  18.569  0.00  0.00    +0.000 NA
ATOM      8  C   UNL     1       2.623   4.862  20.152  0.00  0.00    +0.000 A 
ATOM      9  C   UNL     1       1.832   5.895  20.505  0.00  0.00    +0.000 A 
ATOM     10  C   UNL     1       1.862   7.154  19.771  0.00  0.00    +0.000 A 
ATOM     11  C   UNL     1       1.039   8.245  20.065  0.00  0.00    +0.000 A 
ENDROOT
BRANCH   7  12
ATOM     12  C   UNL     1       5.203   4.222  17.493  0.00  0.00    +0.000 A 
ATOM     13  C   UNL     1       6.548   4.593  17.660  0.00  0.00    +0.000 A 
ATOM     14  C   UNL     1       7.404   4.737  16.564  0.00  0.00    +0.000 A 
ATOM     15  C   UNL     1       6.904   4.579  15.277  0.00  0.00    +0.000 A 
ATOM     16  C   UNL     1       5.558   4.278  15.103  0.00  0.00    +0.000 A 
ATOM     17  F   UNL     1       5.069   4.162  13.862  0.00  0.00    +0.000 F 
ATOM     18  C   UNL     1       4.712   4.094  16.193  0.00  0.00    +0.000 A 
ENDBRANCH   7  12
BRANCH   8  19
ATOM     19  C   UNL     1       2.492   3.619  20.976  0.00  0.00    +0.000 C 
ATOM     20  N   UNL     1       2.617   2.435  20.322  0.00  0.00    +0.000 N 
ATOM     21  O   UNL     1       2.285   3.636  22.185  0.00  0.00    +0.000 OA
ATOM     22  H   UNL     1       2.763   2.389  19.316  0.00  0.00    +0.000 HD
ATOM     23  H   UNL     1       2.520   1.577  20.847  0.00  0.00    +0.000 HD
ENDBRANCH   8  19
BRANCH   1  25
ATOM     24  C   UNL     1      -0.307  10.295  20.985  0.00  0.00    +0.000 C 
ATOM     25  O   UNL     1       0.281  10.432  19.695  0.00  0.00    +0.000 OA
ENDBRANCH   1  25
TORSDOF 3
ENDMDL
MODEL 4
REMARK VINA RESULT:      -8.5      4.168      5.397
REMARK  Name = 
REMARK  4 active torsions:
REMARK  status: ('A' for Active; 'I' for Inactive)
REMARK    1  A    between atoms: C_1  and  O_2
REMARK    2  A    between atoms: O_2  and  C_3
REMARK    3  A    between atoms: N_9  and  C_10
REMARK    4  A    between atoms: C_17  and  C_18
REMARK                            x       y       z     vdW  Elec       q    Type
REMARK                         _______ _______ _______ _____ _____    ______ ____
ROOT
ATOM      1  C   UNL     1       0.993   9.672  19.513  0.00  0.00    +0.000 A 
ATOM      2  C   UNL     1       1.889   9.650  18.441  0.00  0.00    +0.000 A 
ATOM      3  C   UNL     1       2.631   8.504  18.179  0.00  0.00    +0.000 A 
ATOM      4  C   UNL     1       2.458   7.390  18.992  0.00  0.00    +0.000 A 
ATOM      5  O   UNL     1       3.263   6.281  18.716  0.00  0.00    +0.000 OA
ATOM      6  C   UNL     1       3.078   5.050  19.329  0.00  0.00    +0.000 A 
ATOM      7  N   UNL     1       3.744   4.012  18.913  0.00  0.00    +0.000 NA
ATOM      8  C   UNL     1       2.109   5.019  20.458  0.00  0.00    +0.000 A 
ATOM      9  C   UNL     1       1.402   6.120  20.785  0.00  0.00    +0.000 A 
ATOM     10  C   UNL     1       1.546   7.360  20.033  0.00  0.00    +0.000 A 
ATOM     11  C   UNL     1       0.812   8.520  20.299  0.00  0.00    +0.000 A 
ENDROOT
BRANCH   7  12
ATOM     12  C   UNL     1       4.663   4.127  17.848  0.00  0.00    +0.000 A 
ATOM     13  C   UNL     1       4.294   4.063  16.494  0.00  0.00    +0.000 A 
ATOM     14  C   UNL     1       5.235   4.232  15.474  0.00  0.00    +0.000 A 
ATOM     15  C   UNL     1       6.576   4.399  15.799  0.00  0.00    +0.000 A 
ATOM     16  C   UNL     1       6.957   4.396  17.135  0.00  0.00    +0.000 A 
ATOM     17  F   UNL     1       8.254   4.520  17.446  0.00  0.00    +0.000 F 
ATOM     18  C   UNL     1       6.018   4.268  18.155  0.00  0.00    +0.000 A 
ENDBRANCH   7  12
BRANCH   8  19
ATOM     19  C   UNL     1       1.865   3.805  21.299  0.00  0.00    +0.000 C 
ATOM     20  N   UNL     1       0.855   2.985  20.909  0.00  0.00    +0.000 N 
ATOM     21  O   UNL     1       2.529   3.535  22.294  0.00  0.00    +0.000 OA
ATOM     22  H   UNL     1       0.270   3.196  20.104  0.00  0.00    +0.000 HD
ATOM     23  H   UNL     1       0.653   2.163  21.463  0.00  0.00    +0.000 HD
ENDBRANCH   8  19
BRANCH   1  25
ATOM     24  C   UNL     1       0.936  11.805  20.556  0.00  0.00    +0.000 C 
ATOM     25  O   UNL     1       0.243  10.756  19.886  0.00  0.00    +0.000 OA
ENDBRANCH   1  25
TORSDOF 3
ENDMDL
MODEL 5
REMARK VINA RESULT:      -8.4      3.243      4.317
REMARK  Name = 
REMARK  4 active torsions:
REMARK  status: ('A' for Active; 'I' for Inactive)
REMARK    1  A    between atoms: C_1  and  O_2
REMARK    2  A    between atoms: O_2  and  C_3
REMARK    3  A    between atoms: N_9  and  C_10
REMARK    4  A    between atoms: C_17  and  C_18
REMARK                            x       y       z     vdW  Elec       q    Type
REMARK                         _______ _______ _______ _____ _____    ______ ____
ROOT
ATOM      1  C   UNL     1       1.374   8.688  19.633  0.00  0.00    +0.000 A 
ATOM      2  C   UNL     1       2.036   8.926  18.425  0.00  0.00    +0.000 A 
ATOM      3  C   UNL     1       2.894   7.966  17.901  0.00  0.00    +0.000 A 
ATOM      4  C   UNL     1       3.073   6.774  18.592  0.00  0.00    +0.000 A 
ATOM      5  O   UNL     1       3.984   5.864  18.049  0.00  0.00    +0.000 OA
ATOM      6  C   UNL     1       4.132   4.572  18.533  0.00  0.00    +0.000 A 
ATOM      7  N   UNL     1       4.868   3.716  17.885  0.00  0.00    +0.000 NA
ATOM      8  C   UNL     1       3.420   4.263  19.803  0.00  0.00    +0.000 A 
ATOM      9  C   UNL     1       2.615   5.179  20.378  0.00  0.00    +0.000 A 
ATOM     10  C   UNL     1       2.399   6.484  19.767  0.00  0.00    +0.000 A 
ATOM     11  C   UNL     1       1.547   7.459  20.295  0.00  0.00    +0.000 A 
ENDROOT
BRANCH   7  12
ATOM     12  C   UNL     1       5.530   4.094  16.696  0.00  0.00    +0.000 A 
ATOM     13  C   UNL     1       6.783   4.728  16.673  0.00  0.00    +0.000 A 
ATOM     14  C   UNL     1       7.421   5.037  15.468  0.00  0.00    +0.000 A 
ATOM     15  C   UNL     1       6.776   4.776  14.264  0.00  0.00    +0.000 A 
ATOM     16  C   UNL     1       5.507   4.210  14.282  0.00  0.00    +0.000 A 
ATOM     17  F   UNL     1       4.872   3.993  13.123  0.00  0.00    +0.000 F 
ATOM     18  C   UNL     1       4.886   3.864  15.479  0.00  0.00    +0.000 A 
ENDBRANCH   7  12
BRANCH   8  19
ATOM     19  C   UNL     1       3.552   2.957  20.522  0.00  0.00    +0.000 C 
ATOM     20  N   UNL     1       4.702   2.263  20.324  0.00  0.00    +0.000 N 
ATOM     21  O   UNL     1       2.683   2.509  21.263  0.00  0.00    +0.000 OA
ATOM     22  H   UNL     1       5.430   2.595  19.695  0.00  0.00    +0.000 HD
ATOM     23  H   UNL     1       4.818   1.369  20.782  0.00  0.00    +0.000 HD
ENDBRANCH   8  19
BRANCH   1  25
ATOM     24  C   UNL     1       0.258  10.782  19.556  0.00  0.00    +0.000 C 
ATOM     25  O   UNL     1       0.540   9.575  20.259  0.00  0.00    +0.000 OA
ENDBRANCH   1  25
TORSDOF 3
ENDMDL
MODEL 6
REMARK VINA RESULT:      -8.2      2.942      6.407
REMARK  Name = 
REMARK  4 active torsions:
REMARK  status: ('A' for Active; 'I' for Inactive)
REMARK    1  A    between atoms: C_1  and  O_2
REMARK    2  A    between atoms: O_2  and  C_3
REMARK    3  A    between atoms: N_9  and  C_10
REMARK    4  A    between atoms: C_17  and  C_18
REMARK                            x       y       z     vdW  Elec       q    Type
REMARK                         _______ _______ _______ _____ _____    ______ ____
ROOT
ATOM      1  C   UNL     1       6.481   4.270  13.581  0.00  0.00    +0.000 A 
ATOM      2  C   UNL     1       5.156   3.887  13.810  0.00  0.00    +0.000 A 
ATOM      3  C   UNL     1       4.639   3.915  15.100  0.00  0.00    +0.000 A 
ATOM      4  C   UNL     1       5.455   4.333  16.145  0.00  0.00    +0.000 A 
ATOM      5  O   UNL     1       4.902   4.295  17.428  0.00  0.00    +0.000 OA
ATOM      6  C   UNL     1       5.536   4.843  18.533  0.00  0.00    +0.000 A 
ATOM      7  N   UNL     1       4.904   4.930  19.668  0.00  0.00    +0.000 NA
ATOM      8  C   UNL     1       6.940   5.293  18.327  0.00  0.00    +0.000 A 
ATOM      9  C   UNL     1       7.505   5.238  17.104  0.00  0.00    +0.000 A 
ATOM     10  C   UNL     1       6.757   4.764  15.947  0.00  0.00    +0.000 A 
ATOM     11  C   UNL     1       7.274   4.722  14.650  0.00  0.00    +0.000 A 
ENDROOT
BRANCH   7  12
ATOM     12  C   UNL     1       3.577   4.460  19.788  0.00  0.00    +0.000 A 
ATOM     13  C   UNL     1       2.505   5.264  20.208  0.00  0.00    +0.000 A 
ATOM     14  C   UNL     1       1.200   4.766  20.264  0.00  0.00    +0.000 A 
ATOM     15  C   UNL     1       0.962   3.429  19.965  0.00  0.00    +0.000 A 
ATOM     16  C   UNL     1       2.030   2.611  19.614  0.00  0.00    +0.000 A 
ATOM     17  F   UNL     1       1.806   1.315  19.363  0.00  0.00    +0.000 F 
ATOM     18  C   UNL     1       3.325   3.114  19.519  0.00  0.00    +0.000 A 
ENDBRANCH   7  12
BRANCH   8  19
ATOM     19  C   UNL     1       7.808   5.809  19.432  0.00  0.00    +0.000 C 
ATOM     20  N   UNL     1       8.446   6.987  19.209  0.00  0.00    +0.000 N 
ATOM     21  O   UNL     1       7.953   5.223  20.499  0.00  0.00    +0.000 OA
ATOM     22  H   UNL     1       8.366   7.484  18.324  0.00  0.00    +0.000 HD
ATOM     23  H   UNL     1       9.052   7.357  19.929  0.00  0.00    +0.000 HD
ENDBRANCH   8  19
BRANCH   1  25
ATOM     24  C   UNL     1       6.992   3.034  11.619  0.00  0.00    +0.000 C 
ATOM     25  O   UNL     1       7.104   4.245  12.361  0.00  0.00    +0.000 OA
ENDBRANCH   1  25
TORSDOF 3
ENDMDL
MODEL 7
REMARK VINA RESULT:      -8.2      3.015      3.796
REMARK  Name = 
REMARK  4 active torsions:
REMARK  status: ('A' for Active; 'I' for Inactive)
REMARK    1  A    between atoms: C_1  and  O_2
REMARK    2  A    between atoms: O_2  and  C_3
REMARK    3  A    between atoms: N_9  and  C_10
REMARK    4  A    between atoms: C_17  and  C_18
REMARK                            x       y       z     vdW  Elec       q    Type
REMARK                         _______ _______ _______ _____ _____    ______ ____
ROOT
ATOM      1  C   UNL     1       2.011   8.104  19.231  0.00  0.00    +0.000 A 
ATOM      2  C   UNL     1       2.566   8.464  18.000  0.00  0.00    +0.000 A 
ATOM      3  C   UNL     1       3.388   7.572  17.321  0.00  0.00    +0.000 A 
ATOM      4  C   UNL     1       3.638   6.325  17.883  0.00  0.00    +0.000 A 
ATOM      5  O   UNL     1       4.510   5.485  17.184  0.00  0.00    +0.000 OA
ATOM      6  C   UNL     1       4.713   4.158  17.534  0.00  0.00    +0.000 A 
ATOM      7  N   UNL     1       5.402   3.379  16.752  0.00  0.00    +0.000 NA
ATOM      8  C   UNL     1       4.114   3.722  18.825  0.00  0.00    +0.000 A 
ATOM      9  C   UNL     1       3.349   4.567  19.546  0.00  0.00    +0.000 A 
ATOM     10  C   UNL     1       3.068   5.917  19.077  0.00  0.00    +0.000 A 
ATOM     11  C   UNL     1       2.252   6.824  19.761  0.00  0.00    +0.000 A 
ENDROOT
BRANCH   7  12
ATOM     12  C   UNL     1       5.958   3.875  15.552  0.00  0.00    +0.000 A 
ATOM     13  C   UNL     1       7.029   4.783  15.510  0.00  0.00    +0.000 A 
ATOM     14  C   UNL     1       7.577   5.206  14.295  0.00  0.00    +0.000 A 
ATOM     15  C   UNL     1       7.010   4.778  13.100  0.00  0.00    +0.000 A 
ATOM     16  C   UNL     1       5.907   3.933  13.136  0.00  0.00    +0.000 A 
ATOM     17  F   UNL     1       5.339   3.551  11.985  0.00  0.00    +0.000 F 
ATOM     18  C   UNL     1       5.384   3.477  14.343  0.00  0.00    +0.000 A 
ENDBRANCH   7  12
BRANCH   8  19
ATOM     19  C   UNL     1       4.320   2.358  19.407  0.00  0.00    +0.000 C 
ATOM     20  N   UNL     1       3.946   1.302  18.639  0.00  0.00    +0.000 N 
ATOM     21  O   UNL     1       4.803   2.171  20.518  0.00  0.00    +0.000 OA
ATOM     22  H   UNL     1       3.518   1.426  17.724  0.00  0.00    +0.000 HD
ATOM     23  H   UNL     1       4.058   0.368  19.007  0.00  0.00    +0.000 HD
ENDBRANCH   8  19
BRANCH   1  25
ATOM     24  C   UNL     1       0.656  10.050  19.354  0.00  0.00    +0.000 C 
ATOM     25  O   UNL     1       1.222   8.915  20.003  0.00  0.00    +0.000 OA
ENDBRANCH   1  25
TORSDOF 3
ENDMDL
MODEL 8
REMARK VINA RESULT:      -8.2      3.886      5.077
REMARK  Name = 
REMARK  4 active torsions:
REMARK  status: ('A' for Active; 'I' for Inactive)
REMARK    1  A    between atoms: C_1  and  O_2
REMARK    2  A    between atoms: O_2  and  C_3
REMARK    3  A    between atoms: N_9  and  C_10
REMARK    4  A    between atoms: C_17  and  C_18
REMARK                            x       y       z     vdW  Elec       q    Type
REMARK                         _______ _______ _______ _____ _____    ______ ____
ROOT
ATOM      1  C   UNL     1       0.704   9.242  20.295  0.00  0.00    +0.000 A 
ATOM      2  C   UNL     1       1.515   9.477  19.181  0.00  0.00    +0.000 A 
ATOM      3  C   UNL     1       2.347   8.472  18.703  0.00  0.00    +0.000 A 
ATOM      4  C   UNL     1       2.350   7.238  19.343  0.00  0.00    +0.000 A 
ATOM      5  O   UNL     1       3.240   6.278  18.853  0.00  0.00    +0.000 OA
ATOM      6  C   UNL     1       3.227   4.958  19.280  0.00  0.00    +0.000 A 
ATOM      7  N   UNL     1       3.961   4.072  18.671  0.00  0.00    +0.000 NA
ATOM      8  C   UNL     1       2.354   4.655  20.447  0.00  0.00    +0.000 A 
ATOM      9  C   UNL     1       1.566   5.610  20.979  0.00  0.00    +0.000 A 
ATOM     10  C   UNL     1       1.526   6.955  20.420  0.00  0.00    +0.000 A 
ATOM     11  C   UNL     1       0.701   7.975  20.904  0.00  0.00    +0.000 A 
ENDROOT
BRANCH   7  12
ATOM     12  C   UNL     1       4.781   4.444  17.583  0.00  0.00    +0.000 A 
ATOM     13  C   UNL     1       4.597   3.968  16.275  0.00  0.00    +0.000 A 
ATOM     14  C   UNL     1       5.405   4.405  15.221  0.00  0.00    +0.000 A 
ATOM     15  C   UNL     1       6.459   5.275  15.479  0.00  0.00    +0.000 A 
ATOM     16  C   UNL     1       6.688   5.696  16.783  0.00  0.00    +0.000 A 
ATOM     17  F   UNL     1       7.725   6.504  17.037  0.00  0.00    +0.000 F 
ATOM     18  C   UNL     1       5.860   5.295  17.829  0.00  0.00    +0.000 A 
ENDBRANCH   7  12
BRANCH   8  19
ATOM     19  C   UNL     1       2.298   3.311  21.104  0.00  0.00    +0.000 C 
ATOM     20  N   UNL     1       2.025   2.249  20.301  0.00  0.00    +0.000 N 
ATOM     21  O   UNL     1       2.486   3.144  22.303  0.00  0.00    +0.000 OA
ATOM     22  H   UNL     1       1.838   2.359  19.307  0.00  0.00    +0.000 HD
ATOM     23  H   UNL     1       1.966   1.329  20.715  0.00  0.00    +0.000 HD
ENDBRANCH   8  19
BRANCH   1  25
ATOM     24  C   UNL     1      -0.216  10.132  22.295  0.00  0.00    +0.000 C 
ATOM     25  O   UNL     1      -0.122  10.169  20.874  0.00  0.00    +0.000 OA
ENDBRANCH   1  25
TORSDOF 3
ENDMDL
MODEL 9
REMARK VINA RESULT:      -8.1      3.032      6.421
REMARK  Name = 
REMARK  4 active torsions:
REMARK  status: ('A' for Active; 'I' for Inactive)
REMARK    1  A    between atoms: C_1  and  O_2
REMARK    2  A    between atoms: O_2  and  C_3
REMARK    3  A    between atoms: N_9  and  C_10
REMARK    4  A    between atoms: C_17  and  C_18
REMARK                            x       y       z     vdW  Elec       q    Type
REMARK                         _______ _______ _______ _____ _____    ______ ____
ROOT
ATOM      1  C   UNL     1       6.465   4.128  13.282  0.00  0.00    +0.000 A 
ATOM      2  C   UNL     1       5.207   3.612  13.608  0.00  0.00    +0.000 A 
ATOM      3  C   UNL     1       4.757   3.658  14.923  0.00  0.00    +0.000 A 
ATOM      4  C   UNL     1       5.571   4.229  15.894  0.00  0.00    +0.000 A 
ATOM      5  O   UNL     1       5.093   4.205  17.207  0.00  0.00    +0.000 OA
ATOM      6  C   UNL     1       5.714   4.888  18.243  0.00  0.00    +0.000 A 
ATOM      7  N   UNL     1       5.135   4.970  19.406  0.00  0.00    +0.000 NA
ATOM      8  C   UNL     1       7.044   5.480  17.932  0.00  0.00    +0.000 A 
ATOM      9  C   UNL     1       7.548   5.417  16.683  0.00  0.00    +0.000 A 
ATOM     10  C   UNL     1       6.802   4.792  15.599  0.00  0.00    +0.000 A 
ATOM     11  C   UNL     1       7.254   4.731  14.278  0.00  0.00    +0.000 A 
ENDROOT
BRANCH   7  12
ATOM     12  C   UNL     1       3.881   4.361  19.628  0.00  0.00    +0.000 A 
ATOM     13  C   UNL     1       3.630   2.996  19.407  0.00  0.00    +0.000 A 
ATOM     14  C   UNL     1       2.384   2.430  19.689  0.00  0.00    +0.000 A 
ATOM     15  C   UNL     1       1.346   3.241  20.133  0.00  0.00    +0.000 A 
ATOM     16  C   UNL     1       1.569   4.604  20.289  0.00  0.00    +0.000 A 
ATOM     17  F   UNL     1       0.558   5.390  20.681  0.00  0.00    +0.000 F 
ATOM     18  C   UNL     1       2.820   5.165  20.047  0.00  0.00    +0.000 A 
ENDBRANCH   7  12
BRANCH   8  19
ATOM     19  C   UNL     1       7.901   6.158  18.956  0.00  0.00    +0.000 C 
ATOM     20  N   UNL     1       8.151   5.467  20.099  0.00  0.00    +0.000 N 
ATOM     21  O   UNL     1       8.372   7.279  18.799  0.00  0.00    +0.000 OA
ATOM     22  H   UNL     1       7.753   4.546  20.269  0.00  0.00    +0.000 HD
ATOM     23  H   UNL     1       8.714   5.902  20.817  0.00  0.00    +0.000 HD
ENDBRANCH   8  19
BRANCH   1  25
ATOM     24  C   UNL     1       7.123   2.822  11.412  0.00  0.00    +0.000 C 
ATOM     25  O   UNL     1       7.024   4.100  12.032  0.00  0.00    +0.000 OA
ENDBRANCH   1  25
TORSDOF 3
ENDMDL
