MODEL 1
REMARK VINA RESULT:      -8.4      0.000      0.000
REMARK  Name = 
REMARK  12 active torsions:
REMARK  status: ('A' for Active; 'I' for Inactive)
REMARK    1  A    between atoms: C_1  and  C_2
REMARK    2  A    between atoms: C_2  and  C_3
REMARK    3  A    between atoms: C_3  and  C_4
REMARK    4  A    between atoms: C_4  and  N_5
REMARK    5  A    between atoms: C_4  and  C_16
REMARK    6  A    between atoms: N_5  and  C_6
REMARK    7  A    between atoms: N_18  and  C_19
REMARK    8  A    between atoms: N_21  and  C_22
REMARK    9  A    between atoms: C_22  and  C_23
REMARK   10  A    between atoms: C_22  and  C_24
REMARK   11  A    between atoms: C_22  and  C_25
REMARK   12  A    between atoms: C_25  and  N_26
REMARK                            x       y       z     vdW  Elec       q    Type
REMARK                         _______ _______ _______ _____ _____    ______ ____
ROOT
ATOM      1  C   UNL     1       1.874   7.448  19.671  0.00  0.00    +0.000 C 
ATOM      2  O   UNL     1       2.423   8.185  18.836  0.00  0.00    +0.000 OA
ATOM      3  N   UNL     1       1.087   7.915  20.710  0.00  0.00    +0.000 N 
ATOM      4  H   UNL     1       0.305   7.296  20.931  0.00  0.00    +0.000 HD
ENDROOT
BRANCH   3   5
ATOM      5  C   UNL     1       0.784   9.256  20.720  0.00  0.00    +0.000 A 
ATOM      6  C   UNL     1       0.155   9.885  19.689  0.00  0.00    +0.000 A 
ATOM      7  N   UNL     1      -0.029  11.178  20.097  0.00  0.00    +0.000 N 
ATOM      8  C   UNL     1       0.501  11.262  21.359  0.00  0.00    +0.000 A 
ATOM      9  N   UNL     1       1.060  10.124  21.725  0.00  0.00    +0.000 NA
BRANCH   7  10
ATOM     10  C   UNL     1      -0.705  12.241  19.302  0.00  0.00    +0.000 C 
ATOM     11  C   UNL     1      -1.681  12.976  20.255  0.00  0.00    +0.000 C 
ATOM     12  C   UNL     1       0.347  13.254  18.814  0.00  0.00    +0.000 C 
BRANCH  10  13
ATOM     13  C   UNL     1      -1.447  11.571  18.084  0.00  0.00    +0.000 C 
BRANCH  13  14
ATOM     14  N   UNL     1      -2.778  10.917  18.258  0.00  0.00    +0.000 NA
ATOM     15  C   UNL     1      -2.938   9.586  17.654  0.00  0.00    +0.000 C 
ATOM     16  C   UNL     1      -3.078   9.857  16.174  0.00  0.00    +0.000 C 
ATOM     17  C   UNL     1      -4.065  11.008  16.192  0.00  0.00    +0.000 C 
ATOM     18  C   UNL     1      -3.823  11.702  17.541  0.00  0.00    +0.000 C 
ENDBRANCH  13  14
ENDBRANCH  10  13
ENDBRANCH   7  10
ENDBRANCH   3   5
BRANCH   1  19
ATOM     19  C   UNL     1       2.043   5.913  19.648  0.00  0.00    +0.000 C 
BRANCH  19  20
ATOM     20  N   UNL     1       3.475   5.484  19.584  0.00  0.00    +0.000 NA
ATOM     21  H   UNL     1       4.058   6.331  19.656  0.00  0.00    +0.000 HD
BRANCH  20  22
ATOM     22  C   UNL     1       3.940   4.701  18.418  0.00  0.00    +0.000 C 
ATOM     23  C   UNL     1       5.084   3.715  18.707  0.00  0.00    +0.000 C 
ATOM     24  O   UNL     1       6.206   4.374  19.305  0.00  0.00    +0.000 OA
ATOM     25  C   UNL     1       6.612   5.534  18.714  0.00  0.00    +0.000 A 
ATOM     26  C   UNL     1       7.811   6.069  19.183  0.00  0.00    +0.000 A 
ATOM     27  C   UNL     1       8.352   7.199  18.576  0.00  0.00    +0.000 A 
ATOM     28  C   UNL     1       7.685   7.781  17.496  0.00  0.00    +0.000 A 
ATOM     29  C   UNL     1       6.447   7.279  17.074  0.00  0.00    +0.000 A 
ATOM     30  C   UNL     1       5.879   6.172  17.713  0.00  0.00    +0.000 A 
ATOM     31  C   UNL     1       4.513   5.653  17.333  0.00  0.00    +0.000 C 
ENDBRANCH  20  22
ENDBRANCH  19  20
BRANCH  19  32
ATOM     32  C   UNL     1       1.224   5.190  20.746  0.00  0.00    +0.000 C 
BRANCH  32  34
ATOM     33  C   UNL     1       1.750   2.813  21.587  0.00  0.00    +0.000 C 
ATOM     34  C   UNL     1       1.043   3.669  20.550  0.00  0.00    +0.000 C 
ENDBRANCH  32  34
ENDBRANCH  19  32
ENDBRANCH   1  19
TORSDOF 9
ENDMDL
MODEL 2
REMARK VINA RESULT:      -8.2      1.318      1.804
REMARK  Name = 
REMARK  12 active torsions:
REMARK  status: ('A' for Active; 'I' for Inactive)
REMARK    1  A    between atoms: C_1  and  C_2
REMARK    2  A    between atoms: C_2  and  C_3
REMARK    3  A    between atoms: C_3  and  C_4
REMARK    4  A    between atoms: C_4  and  N_5
REMARK    5  A    between atoms: C_4  and  C_16
REMARK    6  A    between atoms: N_5  and  C_6
REMARK    7  A    between atoms: N_18  and  C_19
REMARK    8  A    between atoms: N_21  and  C_22
REMARK    9  A    between atoms: C_22  and  C_23
REMARK   10  A    between atoms: C_22  and  C_24
REMARK   11  A    between atoms: C_22  and  C_25
REMARK   12  A    between atoms: C_25  and  N_26
REMARK                            x       y       z     vdW  Elec       q    Type
REMARK                         _______ _______ _______ _____ _____    ______ ____
ROOT
ATOM      1  C   UNL     1       1.940   7.975  19.306  0.00  0.00    +0.000 C 
ATOM      2  O   UNL     1       2.220   8.791  18.412  0.00  0.00    +0.000 OA
ATOM      3  N   UNL     1       1.279   8.313  20.474  0.00  0.00    +0.000 N 
ATOM      4  H   UNL     1       0.650   7.580  20.806  0.00  0.00    +0.000 HD
ENDROOT
BRANCH   3   5
ATOM      5  C   UNL     1       0.781   9.591  20.573  0.00  0.00    +0.000 A 
ATOM      6  C   UNL     1      -0.135  10.102  19.706  0.00  0.00    +0.000 A 
ATOM      7  N   UNL     1      -0.429  11.355  20.168  0.00  0.00    +0.000 N 
ATOM      8  C   UNL     1       0.330  11.537  21.296  0.00  0.00    +0.000 A 
ATOM      9  N   UNL     1       1.121  10.504  21.517  0.00  0.00    +0.000 NA
BRANCH   7  10
ATOM     10  C   UNL     1      -1.409  12.291  19.550  0.00  0.00    +0.000 C 
ATOM     11  C   UNL     1      -2.583  12.451  20.548  0.00  0.00    +0.000 C 
ATOM     12  C   UNL     1      -0.746  13.667  19.361  0.00  0.00    +0.000 C 
BRANCH  10  13
ATOM     13  C   UNL     1      -1.876  11.697  18.166  0.00  0.00    +0.000 C 
BRANCH  13  14
ATOM     14  N   UNL     1      -3.178  10.980  18.035  0.00  0.00    +0.000 NA
ATOM     15  C   UNL     1      -3.113   9.579  17.597  0.00  0.00    +0.000 C 
ATOM     16  C   UNL     1      -2.818   9.659  16.117  0.00  0.00    +0.000 C 
ATOM     17  C   UNL     1      -3.801  10.734  15.694  0.00  0.00    +0.000 C 
ATOM     18  C   UNL     1      -3.988  11.600  16.949  0.00  0.00    +0.000 C 
ENDBRANCH  13  14
ENDBRANCH  10  13
ENDBRANCH   7  10
ENDBRANCH   3   5
BRANCH   1  19
ATOM     19  C   UNL     1       2.335   6.485  19.212  0.00  0.00    +0.000 C 
BRANCH  19  20
ATOM     20  N   UNL     1       3.754   6.283  18.786  0.00  0.00    +0.000 NA
ATOM     21  H   UNL     1       3.778   6.305  17.755  0.00  0.00    +0.000 HD
BRANCH  20  22
ATOM     22  C   UNL     1       4.477   5.074  19.239  0.00  0.00    +0.000 C 
ATOM     23  C   UNL     1       5.984   5.263  19.476  0.00  0.00    +0.000 C 
ATOM     24  O   UNL     1       6.636   5.789  18.315  0.00  0.00    +0.000 OA
ATOM     25  C   UNL     1       6.335   5.189  17.128  0.00  0.00    +0.000 A 
ATOM     26  C   UNL     1       7.107   5.579  16.035  0.00  0.00    +0.000 A 
ATOM     27  C   UNL     1       6.935   4.953  14.804  0.00  0.00    +0.000 A 
ATOM     28  C   UNL     1       5.988   3.934  14.681  0.00  0.00    +0.000 A 
ATOM     29  C   UNL     1       5.168   3.594  15.765  0.00  0.00    +0.000 A 
ATOM     30  C   UNL     1       5.307   4.255  16.990  0.00  0.00    +0.000 A 
ATOM     31  C   UNL     1       4.391   3.966  18.154  0.00  0.00    +0.000 C 
ENDBRANCH  20  22
ENDBRANCH  19  20
BRANCH  19  32
ATOM     32  C   UNL     1       1.936   5.666  20.464  0.00  0.00    +0.000 C 
BRANCH  32  34
ATOM     33  C   UNL     1       1.398   3.211  21.028  0.00  0.00    +0.000 C 
ATOM     34  C   UNL     1       1.045   4.434  20.199  0.00  0.00    +0.000 C 
ENDBRANCH  32  34
ENDBRANCH  19  32
ENDBRANCH   1  19
TORSDOF 9
ENDMDL
MODEL 3
REMARK VINA RESULT:      -8.1      1.654      2.185
REMARK  Name = 
REMARK  12 active torsions:
REMARK  status: ('A' for Active; 'I' for Inactive)
REMARK    1  A    between atoms: C_1  and  C_2
REMARK    2  A    between atoms: C_2  and  C_3
REMARK    3  A    between atoms: C_3  and  C_4
REMARK    4  A    between atoms: C_4  and  N_5
REMARK    5  A    between atoms: C_4  and  C_16
REMARK    6  A    between atoms: N_5  and  C_6
REMARK    7  A    between atoms: N_18  and  C_19
REMARK    8  A    between atoms: N_21  and  C_22
REMARK    9  A    between atoms: C_22  and  C_23
REMARK   10  A    between atoms: C_22  and  C_24
REMARK   11  A    between atoms: C_22  and  C_25
REMARK   12  A    between atoms: C_25  and  N_26
REMARK                            x       y       z     vdW  Elec       q    Type
REMARK                         _______ _______ _______ _____ _____    ______ ____
ROOT
ATOM      1  C   UNL     1       1.980   7.602  19.497  0.00  0.00    +0.000 C 
ATOM      2  O   UNL     1       1.701   8.080  20.608  0.00  0.00    +0.000 OA
ATOM      3  N   UNL     1       1.844   8.294  18.306  0.00  0.00    +0.000 N 
ATOM      4  H   UNL     1       2.568   8.065  17.623  0.00  0.00    +0.000 HD
ENDROOT
BRANCH   3   5
ATOM      5  C   UNL     1       1.524   9.630  18.384  0.00  0.00    +0.000 A 
ATOM      6  C   UNL     1       0.283  10.080  18.715  0.00  0.00    +0.000 A 
ATOM      7  N   UNL     1       0.378  11.444  18.754  0.00  0.00    +0.000 N 
ATOM      8  C   UNL     1       1.679  11.747  18.442  0.00  0.00    +0.000 A 
ATOM      9  N   UNL     1       2.370  10.663  18.147  0.00  0.00    +0.000 NA
BRANCH   7  10
ATOM     10  C   UNL     1      -0.732  12.373  19.100  0.00  0.00    +0.000 C 
ATOM     11  C   UNL     1      -1.138  12.077  20.566  0.00  0.00    +0.000 C 
ATOM     12  C   UNL     1      -0.222  13.823  19.026  0.00  0.00    +0.000 C 
BRANCH  10  13
ATOM     13  C   UNL     1      -1.921  12.143  18.092  0.00  0.00    +0.000 C 
BRANCH  13  14
ATOM     14  N   UNL     1      -2.985  11.134  18.371  0.00  0.00    +0.000 NA
ATOM     15  C   UNL     1      -3.208  10.114  17.337  0.00  0.00    +0.000 C 
ATOM     16  C   UNL     1      -3.953  10.842  16.243  0.00  0.00    +0.000 C 
ATOM     17  C   UNL     1      -4.985  11.596  17.060  0.00  0.00    +0.000 C 
ATOM     18  C   UNL     1      -4.315  11.805  18.427  0.00  0.00    +0.000 C 
ENDBRANCH  13  14
ENDBRANCH  10  13
ENDBRANCH   7  10
ENDBRANCH   3   5
BRANCH   1  19
ATOM     19  C   UNL     1       2.486   6.152  19.330  0.00  0.00    +0.000 C 
BRANCH  19  20
ATOM     20  N   UNL     1       3.894   6.079  18.832  0.00  0.00    +0.000 NA
ATOM     21  H   UNL     1       3.863   6.101  17.802  0.00  0.00    +0.000 HD
BRANCH  20  22
ATOM     22  C   UNL     1       4.746   4.941  19.244  0.00  0.00    +0.000 C 
ATOM     23  C   UNL     1       6.241   5.264  19.393  0.00  0.00    +0.000 C 
ATOM     24  O   UNL     1       6.777   5.839  18.195  0.00  0.00    +0.000 OA
ATOM     25  C   UNL     1       6.462   5.207  17.029  0.00  0.00    +0.000 A 
ATOM     26  C   UNL     1       7.132   5.656  15.893  0.00  0.00    +0.000 A 
ATOM     27  C   UNL     1       6.945   5.010  14.674  0.00  0.00    +0.000 A 
ATOM     28  C   UNL     1       6.087   3.911  14.608  0.00  0.00    +0.000 A 
ATOM     29  C   UNL     1       5.364   3.507  15.737  0.00  0.00    +0.000 A 
ATOM     30  C   UNL     1       5.515   4.185  16.951  0.00  0.00    +0.000 A 
ATOM     31  C   UNL     1       4.696   3.823  18.167  0.00  0.00    +0.000 C 
ENDBRANCH  20  22
ENDBRANCH  19  20
BRANCH  19  32
ATOM     32  C   UNL     1       2.215   5.263  20.569  0.00  0.00    +0.000 C 
BRANCH  32  34
ATOM     33  C   UNL     1       1.367   2.895  21.126  0.00  0.00    +0.000 C 
ATOM     34  C   UNL     1       1.105   4.203  20.399  0.00  0.00    +0.000 C 
ENDBRANCH  32  34
ENDBRANCH  19  32
ENDBRANCH   1  19
TORSDOF 9
ENDMDL
MODEL 4
REMARK VINA RESULT:      -7.9      1.376      3.029
REMARK  Name = 
REMARK  12 active torsions:
REMARK  status: ('A' for Active; 'I' for Inactive)
REMARK    1  A    between atoms: C_1  and  C_2
REMARK    2  A    between atoms: C_2  and  C_3
REMARK    3  A    between atoms: C_3  and  C_4
REMARK    4  A    between atoms: C_4  and  N_5
REMARK    5  A    between atoms: C_4  and  C_16
REMARK    6  A    between atoms: N_5  and  C_6
REMARK    7  A    between atoms: N_18  and  C_19
REMARK    8  A    between atoms: N_21  and  C_22
REMARK    9  A    between atoms: C_22  and  C_23
REMARK   10  A    between atoms: C_22  and  C_24
REMARK   11  A    between atoms: C_22  and  C_25
REMARK   12  A    between atoms: C_25  and  N_26
REMARK                            x       y       z     vdW  Elec       q    Type
REMARK                         _______ _______ _______ _____ _____    ______ ____
ROOT
ATOM      1  C   UNL     1       1.918   7.280  19.900  0.00  0.00    +0.000 C 
ATOM      2  O   UNL     1       2.321   8.050  19.013  0.00  0.00    +0.000 OA
ATOM      3  N   UNL     1       1.269   7.703  21.047  0.00  0.00    +0.000 N 
ATOM      4  H   UNL     1       0.546   7.052  21.362  0.00  0.00    +0.000 HD
ENDROOT
BRANCH   3   5
ATOM      5  C   UNL     1       0.925   9.032  21.127  0.00  0.00    +0.000 A 
ATOM      6  C   UNL     1       0.350   9.715  20.100  0.00  0.00    +0.000 A 
ATOM      7  N   UNL     1       0.100  10.971  20.581  0.00  0.00    +0.000 N 
ATOM      8  C   UNL     1       0.540  10.980  21.880  0.00  0.00    +0.000 A 
ATOM      9  N   UNL     1       1.107   9.834  22.205  0.00  0.00    +0.000 NA
BRANCH   7  10
ATOM     10  C   UNL     1      -0.552  12.070  19.815  0.00  0.00    +0.000 C 
ATOM     11  C   UNL     1      -1.046  11.466  18.476  0.00  0.00    +0.000 C 
ATOM     12  C   UNL     1      -1.778  12.574  20.597  0.00  0.00    +0.000 C 
BRANCH  10  13
ATOM     13  C   UNL     1       0.494  13.229  19.599  0.00  0.00    +0.000 C 
BRANCH  13  14
ATOM     14  N   UNL     1       1.957  12.945  19.534  0.00  0.00    +0.000 NA
ATOM     15  C   UNL     1       2.838  13.871  20.261  0.00  0.00    +0.000 C 
ATOM     16  C   UNL     1       2.872  15.113  19.401  0.00  0.00    +0.000 C 
ATOM     17  C   UNL     1       3.077  14.499  18.029  0.00  0.00    +0.000 C 
ATOM     18  C   UNL     1       2.440  13.104  18.133  0.00  0.00    +0.000 C 
ENDBRANCH  13  14
ENDBRANCH  10  13
ENDBRANCH   7  10
ENDBRANCH   3   5
BRANCH   1  19
ATOM     19  C   UNL     1       2.133   5.753  19.822  0.00  0.00    +0.000 C 
BRANCH  19  20
ATOM     20  N   UNL     1       3.574   5.371  19.704  0.00  0.00    +0.000 NA
ATOM     21  H   UNL     1       4.133   6.235  19.772  0.00  0.00    +0.000 HD
BRANCH  20  22
ATOM     22  C   UNL     1       4.026   4.623  18.509  0.00  0.00    +0.000 C 
ATOM     23  C   UNL     1       5.219   3.681  18.740  0.00  0.00    +0.000 C 
ATOM     24  O   UNL     1       6.336   4.379  19.304  0.00  0.00    +0.000 OA
ATOM     25  C   UNL     1       6.671   5.561  18.714  0.00  0.00    +0.000 A 
ATOM     26  C   UNL     1       7.864   6.140  19.144  0.00  0.00    +0.000 A 
ATOM     27  C   UNL     1       8.334   7.299  18.533  0.00  0.00    +0.000 A 
ATOM     28  C   UNL     1       7.602   7.866  17.488  0.00  0.00    +0.000 A 
ATOM     29  C   UNL     1       6.371   7.319  17.107  0.00  0.00    +0.000 A 
ATOM     30  C   UNL     1       5.873   6.182  17.752  0.00  0.00    +0.000 A 
ATOM     31  C   UNL     1       4.516   5.611  17.417  0.00  0.00    +0.000 C 
ENDBRANCH  20  22
ENDBRANCH  19  20
BRANCH  19  32
ATOM     32  C   UNL     1       1.369   4.970  20.918  0.00  0.00    +0.000 C 
BRANCH  32  34
ATOM     33  C   UNL     1       2.076   2.585  21.586  0.00  0.00    +0.000 C 
ATOM     34  C   UNL     1       1.224   3.452  20.675  0.00  0.00    +0.000 C 
ENDBRANCH  32  34
ENDBRANCH  19  32
ENDBRANCH   1  19
TORSDOF 9
ENDMDL
MODEL 5
REMARK VINA RESULT:      -7.9      1.390      2.688
REMARK  Name = 
REMARK  12 active torsions:
REMARK  status: ('A' for Active; 'I' for Inactive)
REMARK    1  A    between atoms: C_1  and  C_2
REMARK    2  A    between atoms: C_2  and  C_3
REMARK    3  A    between atoms: C_3  and  C_4
REMARK    4  A    between atoms: C_4  and  N_5
REMARK    5  A    between atoms: C_4  and  C_16
REMARK    6  A    between atoms: N_5  and  C_6
REMARK    7  A    between atoms: N_18  and  C_19
REMARK    8  A    between atoms: N_21  and  C_22
REMARK    9  A    between atoms: C_22  and  C_23
REMARK   10  A    between atoms: C_22  and  C_24
REMARK   11  A    between atoms: C_22  and  C_25
REMARK   12  A    between atoms: C_25  and  N_26
REMARK                            x       y       z     vdW  Elec       q    Type
REMARK                         _______ _______ _______ _____ _____    ______ ____
ROOT
ATOM      1  C   UNL     1       1.925   7.308  19.811  0.00  0.00    +0.000 C 
ATOM      2  O   UNL     1       2.367   8.092  18.956  0.00  0.00    +0.000 OA
ATOM      3  N   UNL     1       1.241   7.713  20.944  0.00  0.00    +0.000 N 
ATOM      4  H   UNL     1       0.499   7.065  21.219  0.00  0.00    +0.000 HD
ENDROOT
BRANCH   3   5
ATOM      5  C   UNL     1       0.911   9.044  21.042  0.00  0.00    +0.000 A 
ATOM      6  C   UNL     1       0.114   9.683  20.143  0.00  0.00    +0.000 A 
ATOM      7  N   UNL     1      -0.034  10.958  20.614  0.00  0.00    +0.000 N 
ATOM      8  C   UNL     1       0.687  11.024  21.779  0.00  0.00    +0.000 A 
ATOM      9  N   UNL     1       1.323   9.893  22.018  0.00  0.00    +0.000 NA
BRANCH   7  10
ATOM     10  C   UNL     1      -0.851  12.023  19.968  0.00  0.00    +0.000 C 
ATOM     11  C   UNL     1       0.119  12.919  19.159  0.00  0.00    +0.000 C 
ATOM     12  C   UNL     1      -1.841  11.374  18.985  0.00  0.00    +0.000 C 
BRANCH  10  13
ATOM     13  C   UNL     1      -1.616  12.827  21.088  0.00  0.00    +0.000 C 
BRANCH  13  14
ATOM     14  N   UNL     1      -2.838  12.269  21.738  0.00  0.00    +0.000 NA
ATOM     15  C   UNL     1      -4.039  13.117  21.709  0.00  0.00    +0.000 C 
ATOM     16  C   UNL     1      -3.773  14.184  22.745  0.00  0.00    +0.000 C 
ATOM     17  C   UNL     1      -3.242  13.340  23.888  0.00  0.00    +0.000 C 
ATOM     18  C   UNL     1      -2.607  12.120  23.203  0.00  0.00    +0.000 C 
ENDBRANCH  13  14
ENDBRANCH  10  13
ENDBRANCH   7  10
ENDBRANCH   3   5
BRANCH   1  19
ATOM     19  C   UNL     1       2.123   5.779  19.705  0.00  0.00    +0.000 C 
BRANCH  19  20
ATOM     20  N   UNL     1       3.561   5.384  19.599  0.00  0.00    +0.000 NA
ATOM     21  H   UNL     1       4.129   6.239  19.695  0.00  0.00    +0.000 HD
BRANCH  20  22
ATOM     22  C   UNL     1       4.021   4.657  18.394  0.00  0.00    +0.000 C 
ATOM     23  C   UNL     1       5.201   3.698  18.620  0.00  0.00    +0.000 C 
ATOM     24  O   UNL     1       6.317   4.370  19.215  0.00  0.00    +0.000 OA
ATOM     25  C   UNL     1       6.674   5.561  18.657  0.00  0.00    +0.000 A 
ATOM     26  C   UNL     1       7.867   6.116  19.116  0.00  0.00    +0.000 A 
ATOM     27  C   UNL     1       8.358   7.284  18.538  0.00  0.00    +0.000 A 
ATOM     28  C   UNL     1       7.647   7.883  17.497  0.00  0.00    +0.000 A 
ATOM     29  C   UNL     1       6.415   7.358  17.086  0.00  0.00    +0.000 A 
ATOM     30  C   UNL     1       5.896   6.212  17.698  0.00  0.00    +0.000 A 
ATOM     31  C   UNL     1       4.538   5.665  17.331  0.00  0.00    +0.000 C 
ENDBRANCH  20  22
ENDBRANCH  19  20
BRANCH  19  32
ATOM     32  C   UNL     1       1.334   4.985  20.774  0.00  0.00    +0.000 C 
BRANCH  32  34
ATOM     33  C   UNL     1       1.548   2.540  21.560  0.00  0.00    +0.000 C 
ATOM     34  C   UNL     1       1.105   3.490  20.460  0.00  0.00    +0.000 C 
ENDBRANCH  32  34
ENDBRANCH  19  32
ENDBRANCH   1  19
TORSDOF 9
ENDMDL
MODEL 6
REMARK VINA RESULT:      -7.8      5.112      9.142
REMARK  Name = 
REMARK  12 active torsions:
REMARK  status: ('A' for Active; 'I' for Inactive)
REMARK    1  A    between atoms: C_1  and  C_2
REMARK    2  A    between atoms: C_2  and  C_3
REMARK    3  A    between atoms: C_3  and  C_4
REMARK    4  A    between atoms: C_4  and  N_5
REMARK    5  A    between atoms: C_4  and  C_16
REMARK    6  A    between atoms: N_5  and  C_6
REMARK    7  A    between atoms: N_18  and  C_19
REMARK    8  A    between atoms: N_21  and  C_22
REMARK    9  A    between atoms: C_22  and  C_23
REMARK   10  A    between atoms: C_22  and  C_24
REMARK   11  A    between atoms: C_22  and  C_25
REMARK   12  A    between atoms: C_25  and  N_26
REMARK                            x       y       z     vdW  Elec       q    Type
REMARK                         _______ _______ _______ _____ _____    ______ ____
ROOT
ATOM      1  C   UNL     1       7.401   7.179  17.833  0.00  0.00    +0.000 C 
ATOM      2  O   UNL     1       6.954   7.775  16.839  0.00  0.00    +0.000 OA
ATOM      3  N   UNL     1       8.308   7.734  18.719  0.00  0.00    +0.000 N 
ATOM      4  H   UNL     1       8.159   7.437  19.685  0.00  0.00    +0.000 HD
ENDROOT
BRANCH   3   5
ATOM      5  C   UNL     1       8.609   9.067  18.563  0.00  0.00    +0.000 A 
ATOM      6  C   UNL     1       9.489   9.730  19.363  0.00  0.00    +0.000 A 
ATOM      7  N   UNL     1       9.571  10.998  18.857  0.00  0.00    +0.000 N 
ATOM      8  C   UNL     1       8.732  11.034  17.773  0.00  0.00    +0.000 A 
ATOM      9  N   UNL     1       8.088   9.893  17.622  0.00  0.00    +0.000 NA
BRANCH   7  10
ATOM     10  C   UNL     1      10.439  12.082  19.395  0.00  0.00    +0.000 C 
ATOM     11  C   UNL     1      10.101  12.237  20.899  0.00  0.00    +0.000 C 
ATOM     12  C   UNL     1      11.914  11.658  19.274  0.00  0.00    +0.000 C 
BRANCH  10  13
ATOM     13  C   UNL     1      10.165  13.404  18.581  0.00  0.00    +0.000 C 
BRANCH  13  14
ATOM     14  N   UNL     1      10.980  14.633  18.811  0.00  0.00    +0.000 NA
ATOM     15  C   UNL     1      10.235  15.870  19.087  0.00  0.00    +0.000 C 
ATOM     16  C   UNL     1       9.683  16.286  17.743  0.00  0.00    +0.000 C 
ATOM     17  C   UNL     1      10.907  16.098  16.867  0.00  0.00    +0.000 C 
ATOM     18  C   UNL     1      11.714  14.992  17.565  0.00  0.00    +0.000 C 
ENDBRANCH  13  14
ENDBRANCH  10  13
ENDBRANCH   7  10
ENDBRANCH   3   5
BRANCH   1  19
ATOM     19  C   UNL     1       7.002   5.724  18.166  0.00  0.00    +0.000 C 
BRANCH  19  20
ATOM     20  N   UNL     1       5.567   5.589  18.566  0.00  0.00    +0.000 NA
ATOM     21  H   UNL     1       5.419   4.617  18.875  0.00  0.00    +0.000 HD
BRANCH  20  22
ATOM     22  C   UNL     1       4.511   5.928  17.586  0.00  0.00    +0.000 C 
ATOM     23  C   UNL     1       3.490   6.974  18.061  0.00  0.00    +0.000 C 
ATOM     24  O   UNL     1       2.875   6.585  19.294  0.00  0.00    +0.000 OA
ATOM     25  C   UNL     1       2.424   5.301  19.366  0.00  0.00    +0.000 A 
ATOM     26  C   UNL     1       1.665   4.984  20.491  0.00  0.00    +0.000 A 
ATOM     27  C   UNL     1       1.084   3.724  20.605  0.00  0.00    +0.000 A 
ATOM     28  C   UNL     1       1.267   2.792  19.583  0.00  0.00    +0.000 A 
ATOM     29  C   UNL     1       2.087   3.092  18.488  0.00  0.00    +0.000 A 
ATOM     30  C   UNL     1       2.710   4.341  18.395  0.00  0.00    +0.000 A 
ATOM     31  C   UNL     1       3.659   4.670  17.267  0.00  0.00    +0.000 C 
ENDBRANCH  20  22
ENDBRANCH  19  20
BRANCH  19  32
ATOM     32  C   UNL     1       7.448   4.706  17.087  0.00  0.00    +0.000 C 
BRANCH  32  34
ATOM     33  C   UNL     1       6.348   3.968  14.878  0.00  0.00    +0.000 C 
ATOM     34  C   UNL     1       7.074   5.068  15.633  0.00  0.00    +0.000 C 
ENDBRANCH  32  34
ENDBRANCH  19  32
ENDBRANCH   1  19
TORSDOF 9
ENDMDL
MODEL 7
REMARK VINA RESULT:      -7.7      5.275      8.738
REMARK  Name = 
REMARK  12 active torsions:
REMARK  status: ('A' for Active; 'I' for Inactive)
REMARK    1  A    between atoms: C_1  and  C_2
REMARK    2  A    between atoms: C_2  and  C_3
REMARK    3  A    between atoms: C_3  and  C_4
REMARK    4  A    between atoms: C_4  and  N_5
REMARK    5  A    between atoms: C_4  and  C_16
REMARK    6  A    between atoms: N_5  and  C_6
REMARK    7  A    between atoms: N_18  and  C_19
REMARK    8  A    between atoms: N_21  and  C_22
REMARK    9  A    between atoms: C_22  and  C_23
REMARK   10  A    between atoms: C_22  and  C_24
REMARK   11  A    between atoms: C_22  and  C_25
REMARK   12  A    between atoms: C_25  and  N_26
REMARK                            x       y       z     vdW  Elec       q    Type
REMARK                         _______ _______ _______ _____ _____    ______ ____
ROOT
ATOM      1  C   UNL     1       7.387   6.418  18.034  0.00  0.00    +0.000 C 
ATOM      2  O   UNL     1       7.998   6.222  19.097  0.00  0.00    +0.000 OA
ATOM      3  N   UNL     1       7.289   7.655  17.421  0.00  0.00    +0.000 N 
ATOM      4  H   UNL     1       7.293   7.599  16.400  0.00  0.00    +0.000 HD
ENDROOT
BRANCH   3   5
ATOM      5  C   UNL     1       8.036   8.683  17.947  0.00  0.00    +0.000 A 
ATOM      6  C   UNL     1       8.022   9.947  17.444  0.00  0.00    +0.000 A 
ATOM      7  N   UNL     1       8.826  10.686  18.266  0.00  0.00    +0.000 N 
ATOM      8  C   UNL     1       9.287   9.824  19.229  0.00  0.00    +0.000 A 
ATOM      9  N   UNL     1       8.873   8.590  19.010  0.00  0.00    +0.000 NA
BRANCH   7  10
ATOM     10  C   UNL     1       9.095  12.143  18.122  0.00  0.00    +0.000 C 
ATOM     11  C   UNL     1      10.451  12.290  17.386  0.00  0.00    +0.000 C 
ATOM     12  C   UNL     1       8.000  12.776  17.244  0.00  0.00    +0.000 C 
BRANCH  10  13
ATOM     13  C   UNL     1       9.117  12.801  19.554  0.00  0.00    +0.000 C 
BRANCH  13  14
ATOM     14  N   UNL     1       8.819  14.252  19.740  0.00  0.00    +0.000 NA
ATOM     15  C   UNL     1       9.918  15.187  19.463  0.00  0.00    +0.000 C 
ATOM     16  C   UNL     1      10.838  15.053  20.655  0.00  0.00    +0.000 C 
ATOM     17  C   UNL     1       9.833  15.090  21.790  0.00  0.00    +0.000 C 
ATOM     18  C   UNL     1       8.540  14.529  21.178  0.00  0.00    +0.000 C 
ENDBRANCH  13  14
ENDBRANCH  10  13
ENDBRANCH   7  10
ENDBRANCH   3   5
BRANCH   1  19
ATOM     19  C   UNL     1       6.638   5.286  17.296  0.00  0.00    +0.000 C 
BRANCH  19  20
ATOM     20  N   UNL     1       5.341   4.923  17.946  0.00  0.00    +0.000 NA
ATOM     21  H   UNL     1       5.262   3.895  17.934  0.00  0.00    +0.000 HD
BRANCH  20  22
ATOM     22  C   UNL     1       4.084   5.490  17.409  0.00  0.00    +0.000 C 
ATOM     23  C   UNL     1       3.444   6.592  18.269  0.00  0.00    +0.000 C 
ATOM     24  O   UNL     1       3.220   6.146  19.611  0.00  0.00    +0.000 OA
ATOM     25  C   UNL     1       2.633   4.924  19.753  0.00  0.00    +0.000 A 
ATOM     26  C   UNL     1       2.249   4.579  21.048  0.00  0.00    +0.000 A 
ATOM     27  C   UNL     1       1.558   3.392  21.275  0.00  0.00    +0.000 A 
ATOM     28  C   UNL     1       1.253   2.561  20.196  0.00  0.00    +0.000 A 
ATOM     29  C   UNL     1       1.701   2.880  18.907  0.00  0.00    +0.000 A 
ATOM     30  C   UNL     1       2.436   4.048  18.684  0.00  0.00    +0.000 A 
ATOM     31  C   UNL     1       2.997   4.383  17.323  0.00  0.00    +0.000 C 
ENDBRANCH  20  22
ENDBRANCH  19  20
BRANCH  19  32
ATOM     32  C   UNL     1       6.528   5.519  15.769  0.00  0.00    +0.000 C 
BRANCH  32  34
ATOM     33  C   UNL     1       6.756   4.318  13.502  0.00  0.00    +0.000 C 
ATOM     34  C   UNL     1       6.223   4.264  14.923  0.00  0.00    +0.000 C 
ENDBRANCH  32  34
ENDBRANCH  19  32
ENDBRANCH   1  19
TORSDOF 9
ENDMDL
MODEL 8
REMARK VINA RESULT:      -7.7      1.363      1.779
REMARK  Name = 
REMARK  12 active torsions:
REMARK  status: ('A' for Active; 'I' for Inactive)
REMARK    1  A    between atoms: C_1  and  C_2
REMARK    2  A    between atoms: C_2  and  C_3
REMARK    3  A    between atoms: C_3  and  C_4
REMARK    4  A    between atoms: C_4  and  N_5
REMARK    5  A    between atoms: C_4  and  C_16
REMARK    6  A    between atoms: N_5  and  C_6
REMARK    7  A    between atoms: N_18  and  C_19
REMARK    8  A    between atoms: N_21  and  C_22
REMARK    9  A    between atoms: C_22  and  C_23
REMARK   10  A    between atoms: C_22  and  C_24
REMARK   11  A    between atoms: C_22  and  C_25
REMARK   12  A    between atoms: C_25  and  N_26
REMARK                            x       y       z     vdW  Elec       q    Type
REMARK                         _______ _______ _______ _____ _____    ______ ____
ROOT
ATOM      1  C   UNL     1       2.041   7.130  19.778  0.00  0.00    +0.000 C 
ATOM      2  O   UNL     1       2.404   7.938  18.907  0.00  0.00    +0.000 OA
ATOM      3  N   UNL     1       1.409   7.500  20.953  0.00  0.00    +0.000 N 
ATOM      4  H   UNL     1       0.710   6.822  21.263  0.00  0.00    +0.000 HD
ENDROOT
BRANCH   3   5
ATOM      5  C   UNL     1       1.035   8.817  21.082  0.00  0.00    +0.000 A 
ATOM      6  C   UNL     1       0.182   9.438  20.222  0.00  0.00    +0.000 A 
ATOM      7  N   UNL     1       0.006  10.700  20.717  0.00  0.00    +0.000 N 
ATOM      8  C   UNL     1       0.765  10.777  21.856  0.00  0.00    +0.000 A 
ATOM      9  N   UNL     1       1.451   9.667  22.055  0.00  0.00    +0.000 NA
BRANCH   7  10
ATOM     10  C   UNL     1      -0.873  11.743  20.117  0.00  0.00    +0.000 C 
ATOM     11  C   UNL     1      -1.691  12.373  21.271  0.00  0.00    +0.000 C 
ATOM     12  C   UNL     1       0.002  12.843  19.490  0.00  0.00    +0.000 C 
BRANCH  10  13
ATOM     13  C   UNL     1      -1.793  11.068  19.029  0.00  0.00    +0.000 C 
BRANCH  13  14
ATOM     14  N   UNL     1      -2.631  11.893  18.110  0.00  0.00    +0.000 NA
ATOM     15  C   UNL     1      -4.085  11.818  18.305  0.00  0.00    +0.000 C 
ATOM     16  C   UNL     1      -4.476  10.477  17.727  0.00  0.00    +0.000 C 
ATOM     17  C   UNL     1      -3.700  10.497  16.425  0.00  0.00    +0.000 C 
ATOM     18  C   UNL     1      -2.486  11.394  16.713  0.00  0.00    +0.000 C 
ENDBRANCH  13  14
ENDBRANCH  10  13
ENDBRANCH   7  10
ENDBRANCH   3   5
BRANCH   1  19
ATOM     19  C   UNL     1       2.292   5.612  19.646  0.00  0.00    +0.000 C 
BRANCH  19  20
ATOM     20  N   UNL     1       3.565   5.290  18.931  0.00  0.00    +0.000 NA
ATOM     21  H   UNL     1       3.509   5.707  17.990  0.00  0.00    +0.000 HD
BRANCH  20  22
ATOM     22  C   UNL     1       3.971   3.874  18.786  0.00  0.00    +0.000 C 
ATOM     23  C   UNL     1       5.398   3.552  19.257  0.00  0.00    +0.000 C 
ATOM     24  O   UNL     1       6.366   4.385  18.609  0.00  0.00    +0.000 OA
ATOM     25  C   UNL     1       6.247   4.511  17.257  0.00  0.00    +0.000 A 
ATOM     26  C   UNL     1       7.294   5.166  16.611  0.00  0.00    +0.000 A 
ATOM     27  C   UNL     1       7.305   5.260  15.222  0.00  0.00    +0.000 A 
ATOM     28  C   UNL     1       6.262   4.688  14.491  0.00  0.00    +0.000 A 
ATOM     29  C   UNL     1       5.179   4.091  15.148  0.00  0.00    +0.000 A 
ATOM     30  C   UNL     1       5.143   4.038  16.545  0.00  0.00    +0.000 A 
ATOM     31  C   UNL     1       3.957   3.469  17.286  0.00  0.00    +0.000 C 
ENDBRANCH  20  22
ENDBRANCH  19  20
BRANCH  19  32
ATOM     32  C   UNL     1       2.113   4.844  20.980  0.00  0.00    +0.000 C 
BRANCH  32  34
ATOM     33  C   UNL     1       1.659   2.426  21.742  0.00  0.00    +0.000 C 
ATOM     34  C   UNL     1       1.184   3.612  20.920  0.00  0.00    +0.000 C 
ENDBRANCH  32  34
ENDBRANCH  19  32
ENDBRANCH   1  19
TORSDOF 9
ENDMDL
MODEL 9
REMARK VINA RESULT:      -7.7      1.667      4.073
REMARK  Name = 
REMARK  12 active torsions:
REMARK  status: ('A' for Active; 'I' for Inactive)
REMARK    1  A    between atoms: C_1  and  C_2
REMARK    2  A    between atoms: C_2  and  C_3
REMARK    3  A    between atoms: C_3  and  C_4
REMARK    4  A    between atoms: C_4  and  N_5
REMARK    5  A    between atoms: C_4  and  C_16
REMARK    6  A    between atoms: N_5  and  C_6
REMARK    7  A    between atoms: N_18  and  C_19
REMARK    8  A    between atoms: N_21  and  C_22
REMARK    9  A    between atoms: C_22  and  C_23
REMARK   10  A    between atoms: C_22  and  C_24
REMARK   11  A    between atoms: C_22  and  C_25
REMARK   12  A    between atoms: C_25  and  N_26
REMARK                            x       y       z     vdW  Elec       q    Type
REMARK                         _______ _______ _______ _____ _____    ______ ____
ROOT
ATOM      1  C   UNL     1       3.163   6.888  18.671  0.00  0.00    +0.000 C 
ATOM      2  O   UNL     1       2.710   6.503  19.760  0.00  0.00    +0.000 OA
ATOM      3  N   UNL     1       2.742   8.038  18.026  0.00  0.00    +0.000 N 
ATOM      4  H   UNL     1       3.493   8.516  17.525  0.00  0.00    +0.000 HD
ENDROOT
BRANCH   3   5
ATOM      5  C   UNL     1       1.883   8.868  18.709  0.00  0.00    +0.000 A 
ATOM      6  C   UNL     1       1.485  10.080  18.236  0.00  0.00    +0.000 A 
ATOM      7  N   UNL     1       0.592  10.564  19.152  0.00  0.00    +0.000 N 
ATOM      8  C   UNL     1       0.497   9.613  20.136  0.00  0.00    +0.000 A 
ATOM      9  N   UNL     1       1.325   8.609  19.918  0.00  0.00    +0.000 NA
BRANCH   7  10
ATOM     10  C   UNL     1      -0.132  11.860  19.043  0.00  0.00    +0.000 C 
ATOM     11  C   UNL     1      -0.643  12.221  20.461  0.00  0.00    +0.000 C 
ATOM     12  C   UNL     1       0.853  12.954  18.594  0.00  0.00    +0.000 C 
BRANCH  10  13
ATOM     13  C   UNL     1      -1.308  11.702  18.005  0.00  0.00    +0.000 C 
BRANCH  13  14
ATOM     14  N   UNL     1      -2.450  10.778  18.270  0.00  0.00    +0.000 NA
ATOM     15  C   UNL     1      -2.684   9.724  17.273  0.00  0.00    +0.000 C 
ATOM     16  C   UNL     1      -3.319  10.443  16.105  0.00  0.00    +0.000 C 
ATOM     17  C   UNL     1      -4.340  11.301  16.826  0.00  0.00    +0.000 C 
ATOM     18  C   UNL     1      -3.733  11.536  18.217  0.00  0.00    +0.000 C 
ENDBRANCH  13  14
ENDBRANCH  10  13
ENDBRANCH   7  10
ENDBRANCH   3   5
BRANCH   1  19
ATOM     19  C   UNL     1       4.239   6.091  17.901  0.00  0.00    +0.000 C 
BRANCH  19  20
ATOM     20  N   UNL     1       3.667   4.980  17.080  0.00  0.00    +0.000 NA
ATOM     21  H   UNL     1       2.649   4.963  17.242  0.00  0.00    +0.000 HD
BRANCH  20  22
ATOM     22  C   UNL     1       4.187   3.607  17.264  0.00  0.00    +0.000 C 
ATOM     23  C   UNL     1       3.208   2.482  16.894  0.00  0.00    +0.000 C 
ATOM     24  O   UNL     1       1.969   2.610  17.601  0.00  0.00    +0.000 OA
ATOM     25  C   UNL     1       2.058   2.846  18.940  0.00  0.00    +0.000 A 
ATOM     26  C   UNL     1       0.861   2.785  19.651  0.00  0.00    +0.000 A 
ATOM     27  C   UNL     1       0.868   2.919  21.037  0.00  0.00    +0.000 A 
ATOM     28  C   UNL     1       2.081   3.109  21.699  0.00  0.00    +0.000 A 
ATOM     29  C   UNL     1       3.272   3.238  20.974  0.00  0.00    +0.000 A 
ATOM     30  C   UNL     1       3.262   3.151  19.578  0.00  0.00    +0.000 A 
ATOM     31  C   UNL     1       4.515   3.359  18.762  0.00  0.00    +0.000 C 
ENDBRANCH  20  22
ENDBRANCH  19  20
BRANCH  19  32
ATOM     32  C   UNL     1       5.231   6.993  17.126  0.00  0.00    +0.000 C 
BRANCH  32  34
ATOM     33  C   UNL     1       7.130   5.956  18.524  0.00  0.00    +0.000 C 
ATOM     34  C   UNL     1       6.714   6.568  17.198  0.00  0.00    +0.000 C 
ENDBRANCH  32  34
ENDBRANCH  19  32
ENDBRANCH   1  19
TORSDOF 9
ENDMDL
