MODEL 1
REMARK VINA RESULT:      -6.8      0.000      0.000
REMARK  Name = 
REMARK  5 active torsions:
REMARK  status: ('A' for Active; 'I' for Inactive)
REMARK    1  A    between atoms: C_1  and  C_2
REMARK    2  A    between atoms: C_17  and  C_18
REMARK    3  A    between atoms: C_23  and  C_24
REMARK    4  A    between atoms: C_23  and  C_26
REMARK    5  A    between atoms: C_26  and  C_28
REMARK                            x       y       z     vdW  Elec       q    Type
REMARK                         _______ _______ _______ _____ _____    ______ ____
ROOT
ATOM      1  C   UNL     1      -6.686  15.448  18.603  0.00  0.00    +0.000 C 
ATOM      2  C   UNL     1      -6.199  14.474  19.639  0.00  0.00    +0.000 A 
ATOM      3  C   UNL     1      -7.064  13.474  20.128  0.00  0.00    +0.000 A 
ATOM      4  C   UNL     1      -6.685  12.653  21.190  0.00  0.00    +0.000 A 
ATOM      5  C   UNL     1      -5.450  12.877  21.765  0.00  0.00    +0.000 A 
ATOM      6  C   UNL     1      -4.562  13.845  21.292  0.00  0.00    +0.000 A 
ATOM      7  C   UNL     1      -4.922  14.632  20.204  0.00  0.00    +0.000 A 
ATOM      8  C   UNL     1      -3.377  13.964  22.254  0.00  0.00    +0.000 C 
ATOM      9  C   UNL     1      -3.777  12.856  23.314  0.00  0.00    +0.000 C 
ATOM     10  O   UNL     1      -3.205  12.552  24.348  0.00  0.00    +0.000 OA
ATOM     11  N   UNL     1      -4.968  12.284  22.907  0.00  0.00    +0.000 N 
ATOM     12  N   UNL     1      -3.374  15.239  22.999  0.00  0.00    +0.000 NA
ATOM     13  C   UNL     1      -4.535  16.103  23.088  0.00  0.00    +0.000 C 
ATOM     14  S   UNL     1      -3.912  17.737  23.554  0.00  0.00    +0.000 S 
ATOM     15  C   UNL     1      -2.408  17.465  22.590  0.00  0.00    +0.000 C 
ATOM     16  C   UNL     1      -2.123  15.971  22.833  0.00  0.00    +0.000 C 
ATOM     17  C   UNL     1      -1.257  15.179  21.831  0.00  0.00    +0.000 C 
ATOM     18  C   UNL     1      -1.930  13.745  21.699  0.00  0.00    +0.000 C 
ATOM     19  H   UNL     1      -5.456  11.607  23.473  0.00  0.00    +0.000 HD
ENDROOT
BRANCH  17  20
ATOM     20  C   UNL     1      -1.062  15.902  20.532  0.00  0.00    +0.000 A 
ATOM     21  N   UNL     1       0.059  15.991  19.852  0.00  0.00    +0.000 NA
ATOM     22  C   UNL     1      -0.223  16.759  18.756  0.00  0.00    +0.000 A 
ATOM     23  C   UNL     1      -1.545  17.130  18.756  0.00  0.00    +0.000 A 
ATOM     24  N   UNL     1      -2.076  16.573  19.888  0.00  0.00    +0.000 N 
ATOM     25  H   UNL     1      -3.036  16.652  20.194  0.00  0.00    +0.000 HD
ENDBRANCH  17  20
BRANCH  18  26
ATOM     26  C   UNL     1      -1.896  13.290  20.316  0.00  0.00    +0.000 C 
ATOM     27  N   UNL     1      -1.874  12.957  19.202  0.00  0.00    +0.000 NA
ENDBRANCH  18  26
BRANCH  18  28
ATOM     28  C   UNL     1      -1.069  12.772  22.543  0.00  0.00    +0.000 C 
ATOM     29  O   UNL     1      -0.433  13.266  23.487  0.00  0.00    +0.000 OA
BRANCH  28  30
ATOM     30  C   UNL     1      -0.798  11.337  22.249  0.00  0.00    +0.000 A 
ATOM     31  C   UNL     1      -1.027  10.411  23.277  0.00  0.00    +0.000 A 
ATOM     32  N   UNL     1      -0.875   9.176  22.753  0.00  0.00    +0.000 N 
ATOM     33  C   UNL     1      -0.004   9.258  21.698  0.00  0.00    +0.000 A 
ATOM     34  C   UNL     1       0.899   8.343  21.188  0.00  0.00    +0.000 A 
ATOM     35  C   UNL     1       1.504   8.657  19.977  0.00  0.00    +0.000 A 
ATOM     36  C   UNL     1       1.064   9.763  19.258  0.00  0.00    +0.000 A 
ATOM     37  C   UNL     1       0.171  10.705  19.818  0.00  0.00    +0.000 A 
ATOM     38  C   UNL     1      -0.247  10.543  21.160  0.00  0.00    +0.000 A 
ATOM     39  H   UNL     1      -1.582   8.436  22.812  0.00  0.00    +0.000 HD
ENDBRANCH  28  30
ENDBRANCH  18  28
TORSDOF 4
ENDMDL
MODEL 2
REMARK VINA RESULT:      -6.8      2.765      5.807
REMARK  Name = 
REMARK  5 active torsions:
REMARK  status: ('A' for Active; 'I' for Inactive)
REMARK    1  A    between atoms: C_1  and  C_2
REMARK    2  A    between atoms: C_17  and  C_18
REMARK    3  A    between atoms: C_23  and  C_24
REMARK    4  A    between atoms: C_23  and  C_26
REMARK    5  A    between atoms: C_26  and  C_28
REMARK                            x       y       z     vdW  Elec       q    Type
REMARK                         _______ _______ _______ _____ _____    ______ ____
ROOT
ATOM      1  C   UNL     1      -0.792  17.571  17.711  0.00  0.00    +0.000 C 
ATOM      2  C   UNL     1      -1.102  17.323  19.162  0.00  0.00    +0.000 A 
ATOM      3  C   UNL     1      -1.353  18.410  20.024  0.00  0.00    +0.000 A 
ATOM      4  C   UNL     1      -1.498  18.218  21.397  0.00  0.00    +0.000 A 
ATOM      5  C   UNL     1      -1.354  16.933  21.885  0.00  0.00    +0.000 A 
ATOM      6  C   UNL     1      -1.125  15.833  21.055  0.00  0.00    +0.000 A 
ATOM      7  C   UNL     1      -1.026  16.020  19.682  0.00  0.00    +0.000 A 
ATOM      8  C   UNL     1      -0.829  14.601  21.914  0.00  0.00    +0.000 C 
ATOM      9  C   UNL     1      -0.975  15.235  23.358  0.00  0.00    +0.000 C 
ATOM     10  O   UNL     1      -0.792  14.707  24.443  0.00  0.00    +0.000 OA
ATOM     11  N   UNL     1      -1.308  16.569  23.209  0.00  0.00    +0.000 N 
ATOM     12  N   UNL     1       0.578  14.164  21.817  0.00  0.00    +0.000 NA
ATOM     13  C   UNL     1       1.629  15.003  21.278  0.00  0.00    +0.000 C 
ATOM     14  S   UNL     1       2.979  13.889  20.820  0.00  0.00    +0.000 S 
ATOM     15  C   UNL     1       1.795  12.609  20.347  0.00  0.00    +0.000 C 
ATOM     16  C   UNL     1       0.694  12.766  21.413  0.00  0.00    +0.000 C 
ATOM     17  C   UNL     1      -0.733  12.251  21.126  0.00  0.00    +0.000 C 
ATOM     18  C   UNL     1      -1.726  13.330  21.741  0.00  0.00    +0.000 C 
ATOM     19  H   UNL     1      -1.373  17.194  23.997  0.00  0.00    +0.000 HD
ENDROOT
BRANCH  17  20
ATOM     20  C   UNL     1      -0.961  11.944  19.677  0.00  0.00    +0.000 A 
ATOM     21  N   UNL     1      -0.840  12.785  18.675  0.00  0.00    +0.000 NA
ATOM     22  C   UNL     1      -1.166  12.081  17.548  0.00  0.00    +0.000 A 
ATOM     23  C   UNL     1      -1.475  10.782  17.866  0.00  0.00    +0.000 A 
ATOM     24  N   UNL     1      -1.334  10.699  19.224  0.00  0.00    +0.000 N 
ATOM     25  H   UNL     1      -1.487   9.874  19.787  0.00  0.00    +0.000 HD
ENDBRANCH  17  20
BRANCH  18  26
ATOM     26  C   UNL     1      -2.868  13.533  20.861  0.00  0.00    +0.000 C 
ATOM     27  N   UNL     1      -3.788  13.720  20.175  0.00  0.00    +0.000 NA
ENDBRANCH  18  26
BRANCH  18  28
ATOM     28  C   UNL     1      -2.250  12.739  23.075  0.00  0.00    +0.000 C 
ATOM     29  O   UNL     1      -1.532  11.894  23.631  0.00  0.00    +0.000 OA
BRANCH  28  30
ATOM     30  C   UNL     1      -3.593  12.960  23.681  0.00  0.00    +0.000 A 
ATOM     31  C   UNL     1      -4.187  11.881  24.351  0.00  0.00    +0.000 A 
ATOM     32  N   UNL     1      -5.306  12.340  24.950  0.00  0.00    +0.000 N 
ATOM     33  C   UNL     1      -5.772  13.410  24.232  0.00  0.00    +0.000 A 
ATOM     34  C   UNL     1      -7.056  13.884  24.031  0.00  0.00    +0.000 A 
ATOM     35  C   UNL     1      -7.186  15.119  23.408  0.00  0.00    +0.000 A 
ATOM     36  C   UNL     1      -6.053  15.890  23.172  0.00  0.00    +0.000 A 
ATOM     37  C   UNL     1      -4.751  15.368  23.346  0.00  0.00    +0.000 A 
ATOM     38  C   UNL     1      -4.598  14.013  23.725  0.00  0.00    +0.000 A 
ATOM     39  H   UNL     1      -5.509  12.231  25.949  0.00  0.00    +0.000 HD
ENDBRANCH  28  30
ENDBRANCH  18  28
TORSDOF 4
ENDMDL
MODEL 3
REMARK VINA RESULT:      -6.8      8.332     11.645
REMARK  Name = 
REMARK  5 active torsions:
REMARK  status: ('A' for Active; 'I' for Inactive)
REMARK    1  A    between atoms: C_1  and  C_2
REMARK    2  A    between atoms: C_17  and  C_18
REMARK    3  A    between atoms: C_23  and  C_24
REMARK    4  A    between atoms: C_23  and  C_26
REMARK    5  A    between atoms: C_26  and  C_28
REMARK                            x       y       z     vdW  Elec       q    Type
REMARK                         _______ _______ _______ _____ _____    ______ ____
ROOT
ATOM      1  C   UNL     1      10.056  11.119  20.388  0.00  0.00    +0.000 C 
ATOM      2  C   UNL     1       9.302  12.191  19.650  0.00  0.00    +0.000 A 
ATOM      3  C   UNL     1       9.048  12.050  18.270  0.00  0.00    +0.000 A 
ATOM      4  C   UNL     1       8.482  13.091  17.535  0.00  0.00    +0.000 A 
ATOM      5  C   UNL     1       8.212  14.272  18.197  0.00  0.00    +0.000 A 
ATOM      6  C   UNL     1       8.433  14.436  19.566  0.00  0.00    +0.000 A 
ATOM      7  C   UNL     1       8.954  13.383  20.308  0.00  0.00    +0.000 A 
ATOM      8  C   UNL     1       8.209  15.903  19.945  0.00  0.00    +0.000 C 
ATOM      9  C   UNL     1       7.794  16.488  18.533  0.00  0.00    +0.000 C 
ATOM     10  O   UNL     1       7.548  17.645  18.232  0.00  0.00    +0.000 OA
ATOM     11  N   UNL     1       7.803  15.450  17.620  0.00  0.00    +0.000 N 
ATOM     12  N   UNL     1       9.463  16.595  20.306  0.00  0.00    +0.000 NA
ATOM     13  C   UNL     1      10.774  16.068  19.985  0.00  0.00    +0.000 C 
ATOM     14  S   UNL     1      11.936  16.899  21.096  0.00  0.00    +0.000 S 
ATOM     15  C   UNL     1      10.696  16.930  22.410  0.00  0.00    +0.000 C 
ATOM     16  C   UNL     1       9.395  17.203  21.631  0.00  0.00    +0.000 C 
ATOM     17  C   UNL     1       8.033  16.814  22.246  0.00  0.00    +0.000 C 
ATOM     18  C   UNL     1       7.154  16.242  21.051  0.00  0.00    +0.000 C 
ATOM     19  H   UNL     1       7.648  15.604  16.635  0.00  0.00    +0.000 HD
ENDROOT
BRANCH  17  20
ATOM     20  C   UNL     1       8.167  15.894  23.422  0.00  0.00    +0.000 A 
ATOM     21  N   UNL     1       7.868  16.177  24.669  0.00  0.00    +0.000 NA
ATOM     22  C   UNL     1       8.171  15.058  25.395  0.00  0.00    +0.000 A 
ATOM     23  C   UNL     1       8.647  14.067  24.573  0.00  0.00    +0.000 A 
ATOM     24  N   UNL     1       8.634  14.604  23.314  0.00  0.00    +0.000 N 
ATOM     25  H   UNL     1       8.925  14.137  22.467  0.00  0.00    +0.000 HD
ENDBRANCH  17  20
BRANCH  18  26
ATOM     26  C   UNL     1       6.378  15.093  21.493  0.00  0.00    +0.000 C 
ATOM     27  N   UNL     1       5.750  14.190  21.872  0.00  0.00    +0.000 NA
ENDBRANCH  18  26
BRANCH  18  28
ATOM     28  C   UNL     1       6.162  17.365  20.655  0.00  0.00    +0.000 C 
ATOM     29  O   UNL     1       6.529  18.532  20.863  0.00  0.00    +0.000 OA
BRANCH  28  30
ATOM     30  C   UNL     1       4.755  17.191  20.197  0.00  0.00    +0.000 A 
ATOM     31  C   UNL     1       3.772  17.980  20.811  0.00  0.00    +0.000 A 
ATOM     32  N   UNL     1       2.615  17.780  20.145  0.00  0.00    +0.000 N 
ATOM     33  C   UNL     1       2.646  16.527  19.592  0.00  0.00    +0.000 A 
ATOM     34  C   UNL     1       1.633  15.625  19.318  0.00  0.00    +0.000 A 
ATOM     35  C   UNL     1       1.967  14.506  18.567  0.00  0.00    +0.000 A 
ATOM     36  C   UNL     1       3.228  14.421  17.987  0.00  0.00    +0.000 A 
ATOM     37  C   UNL     1       4.259  15.331  18.314  0.00  0.00    +0.000 A 
ATOM     38  C   UNL     1       4.014  16.324  19.292  0.00  0.00    +0.000 A 
ATOM     39  H   UNL     1       2.045  18.532  19.745  0.00  0.00    +0.000 HD
ENDBRANCH  28  30
ENDBRANCH  18  28
TORSDOF 4
ENDMDL
MODEL 4
REMARK VINA RESULT:      -6.8      8.800     11.946
REMARK  Name = 
REMARK  5 active torsions:
REMARK  status: ('A' for Active; 'I' for Inactive)
REMARK    1  A    between atoms: C_1  and  C_2
REMARK    2  A    between atoms: C_17  and  C_18
REMARK    3  A    between atoms: C_23  and  C_24
REMARK    4  A    between atoms: C_23  and  C_26
REMARK    5  A    between atoms: C_26  and  C_28
REMARK                            x       y       z     vdW  Elec       q    Type
REMARK                         _______ _______ _______ _____ _____    ______ ____
ROOT
ATOM      1  C   UNL     1      12.069  11.881  20.071  0.00  0.00    +0.000 C 
ATOM      2  C   UNL     1      10.745  12.226  19.447  0.00  0.00    +0.000 A 
ATOM      3  C   UNL     1      10.134  11.326  18.550  0.00  0.00    +0.000 A 
ATOM      4  C   UNL     1       8.983  11.683  17.848  0.00  0.00    +0.000 A 
ATOM      5  C   UNL     1       8.485  12.957  18.037  0.00  0.00    +0.000 A 
ATOM      6  C   UNL     1       9.055  13.864  18.932  0.00  0.00    +0.000 A 
ATOM      7  C   UNL     1      10.175  13.492  19.665  0.00  0.00    +0.000 A 
ATOM      8  C   UNL     1       8.387  15.231  18.766  0.00  0.00    +0.000 C 
ATOM      9  C   UNL     1       7.329  14.882  17.640  0.00  0.00    +0.000 C 
ATOM     10  O   UNL     1       6.546  15.627  17.075  0.00  0.00    +0.000 OA
ATOM     11  N   UNL     1       7.464  13.542  17.327  0.00  0.00    +0.000 N 
ATOM     12  N   UNL     1       9.286  16.235  18.163  0.00  0.00    +0.000 NA
ATOM     13  C   UNL     1      10.513  15.884  17.476  0.00  0.00    +0.000 C 
ATOM     14  S   UNL     1      11.524  17.384  17.450  0.00  0.00    +0.000 S 
ATOM     15  C   UNL     1      10.888  17.870  19.070  0.00  0.00    +0.000 C 
ATOM     16  C   UNL     1       9.414  17.430  18.993  0.00  0.00    +0.000 C 
ATOM     17  C   UNL     1       8.618  17.174  20.291  0.00  0.00    +0.000 C 
ATOM     18  C   UNL     1       7.713  15.897  20.013  0.00  0.00    +0.000 C 
ATOM     19  H   UNL     1       6.945  13.114  16.575  0.00  0.00    +0.000 HD
ENDROOT
BRANCH  17  20
ATOM     20  C   UNL     1       9.497  17.068  21.501  0.00  0.00    +0.000 A 
ATOM     21  N   UNL     1      10.554  16.298  21.629  0.00  0.00    +0.000 NA
ATOM     22  C   UNL     1      11.023  16.508  22.897  0.00  0.00    +0.000 A 
ATOM     23  C   UNL     1      10.250  17.436  23.548  0.00  0.00    +0.000 A 
ATOM     24  N   UNL     1       9.283  17.795  22.649  0.00  0.00    +0.000 N 
ATOM     25  H   UNL     1       8.544  18.466  22.809  0.00  0.00    +0.000 HD
ENDBRANCH  17  20
BRANCH  18  26
ATOM     26  C   UNL     1       7.671  15.036  21.186  0.00  0.00    +0.000 C 
ATOM     27  N   UNL     1       7.627  14.324  22.105  0.00  0.00    +0.000 NA
ENDBRANCH  18  26
BRANCH  18  28
ATOM     28  C   UNL     1       6.278  16.421  19.752  0.00  0.00    +0.000 C 
ATOM     29  O   UNL     1       6.179  17.552  19.253  0.00  0.00    +0.000 OA
BRANCH  28  30
ATOM     30  C   UNL     1       5.003  15.777  20.179  0.00  0.00    +0.000 A 
ATOM     31  C   UNL     1       4.689  15.810  21.545  0.00  0.00    +0.000 A 
ATOM     32  N   UNL     1       3.438  15.322  21.686  0.00  0.00    +0.000 N 
ATOM     33  C   UNL     1       3.195  14.452  20.656  0.00  0.00    +0.000 A 
ATOM     34  C   UNL     1       2.402  13.321  20.584  0.00  0.00    +0.000 A 
ATOM     35  C   UNL     1       2.208  12.760  19.328  0.00  0.00    +0.000 A 
ATOM     36  C   UNL     1       2.663  13.434  18.200  0.00  0.00    +0.000 A 
ATOM     37  C   UNL     1       3.506  14.564  18.299  0.00  0.00    +0.000 A 
ATOM     38  C   UNL     1       3.937  14.990  19.578  0.00  0.00    +0.000 A 
ATOM     39  H   UNL     1       2.678  15.817  22.164  0.00  0.00    +0.000 HD
ENDBRANCH  28  30
ENDBRANCH  18  28
TORSDOF 4
ENDMDL
MODEL 5
REMARK VINA RESULT:      -6.8      3.314      5.242
REMARK  Name = 
REMARK  5 active torsions:
REMARK  status: ('A' for Active; 'I' for Inactive)
REMARK    1  A    between atoms: C_1  and  C_2
REMARK    2  A    between atoms: C_17  and  C_18
REMARK    3  A    between atoms: C_23  and  C_24
REMARK    4  A    between atoms: C_23  and  C_26
REMARK    5  A    between atoms: C_26  and  C_28
REMARK                            x       y       z     vdW  Elec       q    Type
REMARK                         _______ _______ _______ _____ _____    ______ ____
ROOT
ATOM      1  C   UNL     1      -4.760  11.922  18.044  0.00  0.00    +0.000 C 
ATOM      2  C   UNL     1      -3.310  11.644  18.331  0.00  0.00    +0.000 A 
ATOM      3  C   UNL     1      -2.705  10.474  17.827  0.00  0.00    +0.000 A 
ATOM      4  C   UNL     1      -1.408  10.121  18.198  0.00  0.00    +0.000 A 
ATOM      5  C   UNL     1      -0.753  10.937  19.099  0.00  0.00    +0.000 A 
ATOM      6  C   UNL     1      -1.318  12.112  19.601  0.00  0.00    +0.000 A 
ATOM      7  C   UNL     1      -2.593  12.487  19.195  0.00  0.00    +0.000 A 
ATOM      8  C   UNL     1      -0.421  12.675  20.706  0.00  0.00    +0.000 C 
ATOM      9  C   UNL     1       0.746  11.605  20.682  0.00  0.00    +0.000 C 
ATOM     10  O   UNL     1       1.724  11.530  21.407  0.00  0.00    +0.000 OA
ATOM     11  N   UNL     1       0.455  10.677  19.699  0.00  0.00    +0.000 N 
ATOM     12  N   UNL     1      -1.031  12.563  22.047  0.00  0.00    +0.000 NA
ATOM     13  C   UNL     1      -2.160  11.699  22.329  0.00  0.00    +0.000 C 
ATOM     14  S   UNL     1      -2.899  12.320  23.860  0.00  0.00    +0.000 S 
ATOM     15  C   UNL     1      -2.484  14.018  23.400  0.00  0.00    +0.000 C 
ATOM     16  C   UNL     1      -1.108  13.852  22.727  0.00  0.00    +0.000 C 
ATOM     17  C   UNL     1      -0.600  14.924  21.739  0.00  0.00    +0.000 C 
ATOM     18  C   UNL     1       0.124  14.136  20.563  0.00  0.00    +0.000 C 
ATOM     19  H   UNL     1       1.022   9.855  19.557  0.00  0.00    +0.000 HD
ENDROOT
BRANCH  17  20
ATOM     20  C   UNL     1      -1.681  15.862  21.292  0.00  0.00    +0.000 A 
ATOM     21  N   UNL     1      -1.716  17.160  21.494  0.00  0.00    +0.000 NA
ATOM     22  C   UNL     1      -2.888  17.597  20.940  0.00  0.00    +0.000 A 
ATOM     23  C   UNL     1      -3.572  16.551  20.374  0.00  0.00    +0.000 A 
ATOM     24  N   UNL     1      -2.792  15.448  20.595  0.00  0.00    +0.000 N 
ATOM     25  H   UNL     1      -3.005  14.503  20.306  0.00  0.00    +0.000 HD
ENDBRANCH  17  20
BRANCH  18  26
ATOM     26  C   UNL     1      -0.176  14.750  19.277  0.00  0.00    +0.000 C 
ATOM     27  N   UNL     1      -0.445  15.243  18.259  0.00  0.00    +0.000 NA
ENDBRANCH  18  26
BRANCH  18  28
ATOM     28  C   UNL     1       1.647  14.270  20.814  0.00  0.00    +0.000 C 
ATOM     29  O   UNL     1       2.015  14.329  21.997  0.00  0.00    +0.000 OA
BRANCH  28  30
ATOM     30  C   UNL     1       2.703  14.494  19.786  0.00  0.00    +0.000 A 
ATOM     31  C   UNL     1       2.916  13.476  18.846  0.00  0.00    +0.000 A 
ATOM     32  N   UNL     1       3.788  13.946  17.928  0.00  0.00    +0.000 N 
ATOM     33  C   UNL     1       4.576  14.894  18.526  0.00  0.00    +0.000 A 
ATOM     34  C   UNL     1       5.886  15.272  18.292  0.00  0.00    +0.000 A 
ATOM     35  C   UNL     1       6.343  16.411  18.941  0.00  0.00    +0.000 A 
ATOM     36  C   UNL     1       5.445  17.206  19.645  0.00  0.00    +0.000 A 
ATOM     37  C   UNL     1       4.122  16.778  19.906  0.00  0.00    +0.000 A 
ATOM     38  C   UNL     1       3.720  15.490  19.481  0.00  0.00    +0.000 A 
ATOM     39  H   UNL     1       3.612  13.950  16.918  0.00  0.00    +0.000 HD
ENDBRANCH  28  30
ENDBRANCH  18  28
TORSDOF 4
ENDMDL
MODEL 6
REMARK VINA RESULT:      -6.7      2.901      6.224
REMARK  Name = 
REMARK  5 active torsions:
REMARK  status: ('A' for Active; 'I' for Inactive)
REMARK    1  A    between atoms: C_1  and  C_2
REMARK    2  A    between atoms: C_17  and  C_18
REMARK    3  A    between atoms: C_23  and  C_24
REMARK    4  A    between atoms: C_23  and  C_26
REMARK    5  A    between atoms: C_26  and  C_28
REMARK                            x       y       z     vdW  Elec       q    Type
REMARK                         _______ _______ _______ _____ _____    ______ ____
ROOT
ATOM      1  C   UNL     1      -4.809  10.614  18.287  0.00  0.00    +0.000 C 
ATOM      2  C   UNL     1      -3.488  11.321  18.168  0.00  0.00    +0.000 A 
ATOM      3  C   UNL     1      -2.842  11.402  16.918  0.00  0.00    +0.000 A 
ATOM      4  C   UNL     1      -1.553  11.922  16.809  0.00  0.00    +0.000 A 
ATOM      5  C   UNL     1      -0.921  12.322  17.970  0.00  0.00    +0.000 A 
ATOM      6  C   UNL     1      -1.540  12.273  19.220  0.00  0.00    +0.000 A 
ATOM      7  C   UNL     1      -2.842  11.798  19.322  0.00  0.00    +0.000 A 
ATOM      8  C   UNL     1      -0.517  12.606  20.309  0.00  0.00    +0.000 C 
ATOM      9  C   UNL     1       0.759  12.875  19.409  0.00  0.00    +0.000 C 
ATOM     10  O   UNL     1       1.897  13.135  19.762  0.00  0.00    +0.000 OA
ATOM     11  N   UNL     1       0.392  12.711  18.086  0.00  0.00    +0.000 N 
ATOM     12  N   UNL     1      -0.171  11.437  21.142  0.00  0.00    +0.000 NA
ATOM     13  C   UNL     1      -0.473  10.074  20.751  0.00  0.00    +0.000 C 
ATOM     14  S   UNL     1      -0.420   9.091  22.270  0.00  0.00    +0.000 S 
ATOM     15  C   UNL     1      -1.080  10.480  23.220  0.00  0.00    +0.000 C 
ATOM     16  C   UNL     1      -0.388  11.689  22.563  0.00  0.00    +0.000 C 
ATOM     17  C   UNL     1      -1.011  13.095  22.690  0.00  0.00    +0.000 C 
ATOM     18  C   UNL     1      -0.809  13.800  21.279  0.00  0.00    +0.000 C 
ATOM     19  H   UNL     1       1.065  12.754  17.336  0.00  0.00    +0.000 HD
ENDROOT
BRANCH  17  20
ATOM     20  C   UNL     1      -2.429  13.062  23.176  0.00  0.00    +0.000 A 
ATOM     21  N   UNL     1      -3.393  12.301  22.709  0.00  0.00    +0.000 NA
ATOM     22  C   UNL     1      -4.511  12.622  23.430  0.00  0.00    +0.000 A 
ATOM     23  C   UNL     1      -4.220  13.582  24.366  0.00  0.00    +0.000 A 
ATOM     24  N   UNL     1      -2.888  13.852  24.204  0.00  0.00    +0.000 N 
ATOM     25  H   UNL     1      -2.349  14.519  24.738  0.00  0.00    +0.000 HD
ENDBRANCH  17  20
BRANCH  18  26
ATOM     26  C   UNL     1      -1.990  14.571  20.919  0.00  0.00    +0.000 C 
ATOM     27  N   UNL     1      -2.917  15.213  20.635  0.00  0.00    +0.000 NA
ENDBRANCH  18  26
BRANCH  18  28
ATOM     28  C   UNL     1       0.375  14.786  21.443  0.00  0.00    +0.000 C 
ATOM     29  O   UNL     1       1.214  14.511  22.314  0.00  0.00    +0.000 OA
BRANCH  28  30
ATOM     30  C   UNL     1       0.530  16.110  20.775  0.00  0.00    +0.000 A 
ATOM     31  C   UNL     1      -0.201  17.187  21.296  0.00  0.00    +0.000 A 
ATOM     32  N   UNL     1       0.206  18.302  20.654  0.00  0.00    +0.000 N 
ATOM     33  C   UNL     1       0.653  17.946  19.409  0.00  0.00    +0.000 A 
ATOM     34  C   UNL     1       0.650  18.631  18.207  0.00  0.00    +0.000 A 
ATOM     35  C   UNL     1       1.362  18.070  17.155  0.00  0.00    +0.000 A 
ATOM     36  C   UNL     1       2.171  16.962  17.388  0.00  0.00    +0.000 A 
ATOM     37  C   UNL     1       2.126  16.255  18.611  0.00  0.00    +0.000 A 
ATOM     38  C   UNL     1       1.200  16.656  19.603  0.00  0.00    +0.000 A 
ATOM     39  H   UNL     1       0.545  19.146  21.127  0.00  0.00    +0.000 HD
ENDBRANCH  28  30
ENDBRANCH  18  28
TORSDOF 4
ENDMDL
MODEL 7
REMARK VINA RESULT:      -6.7      9.000     11.665
REMARK  Name = 
REMARK  5 active torsions:
REMARK  status: ('A' for Active; 'I' for Inactive)
REMARK    1  A    between atoms: C_1  and  C_2
REMARK    2  A    between atoms: C_17  and  C_18
REMARK    3  A    between atoms: C_23  and  C_24
REMARK    4  A    between atoms: C_23  and  C_26
REMARK    5  A    between atoms: C_26  and  C_28
REMARK                            x       y       z     vdW  Elec       q    Type
REMARK                         _______ _______ _______ _____ _____    ______ ____
ROOT
ATOM      1  C   UNL     1       5.391  12.518  23.507  0.00  0.00    +0.000 C 
ATOM      2  C   UNL     1       6.695  13.100  23.035  0.00  0.00    +0.000 A 
ATOM      3  C   UNL     1       7.910  12.644  23.584  0.00  0.00    +0.000 A 
ATOM      4  C   UNL     1       9.117  13.267  23.271  0.00  0.00    +0.000 A 
ATOM      5  C   UNL     1       9.076  14.364  22.433  0.00  0.00    +0.000 A 
ATOM      6  C   UNL     1       7.891  14.828  21.857  0.00  0.00    +0.000 A 
ATOM      7  C   UNL     1       6.694  14.178  22.133  0.00  0.00    +0.000 A 
ATOM      8  C   UNL     1       8.159  16.155  21.141  0.00  0.00    +0.000 C 
ATOM      9  C   UNL     1       9.713  16.300  21.411  0.00  0.00    +0.000 C 
ATOM     10  O   UNL     1      10.454  17.220  21.105  0.00  0.00    +0.000 OA
ATOM     11  N   UNL     1      10.127  15.197  22.135  0.00  0.00    +0.000 N 
ATOM     12  N   UNL     1       7.531  17.305  21.822  0.00  0.00    +0.000 NA
ATOM     13  C   UNL     1       7.043  17.244  23.185  0.00  0.00    +0.000 C 
ATOM     14  S   UNL     1       5.877  18.616  23.365  0.00  0.00    +0.000 S 
ATOM     15  C   UNL     1       5.342  18.418  21.650  0.00  0.00    +0.000 C 
ATOM     16  C   UNL     1       6.658  18.064  20.932  0.00  0.00    +0.000 C 
ATOM     17  C   UNL     1       6.621  17.318  19.581  0.00  0.00    +0.000 C 
ATOM     18  C   UNL     1       7.817  16.271  19.618  0.00  0.00    +0.000 C 
ATOM     19  H   UNL     1      11.067  15.114  22.490  0.00  0.00    +0.000 HD
ENDROOT
BRANCH  17  20
ATOM     20  C   UNL     1       5.277  16.723  19.281  0.00  0.00    +0.000 A 
ATOM     21  N   UNL     1       4.449  17.110  18.338  0.00  0.00    +0.000 NA
ATOM     22  C   UNL     1       3.347  16.307  18.449  0.00  0.00    +0.000 A 
ATOM     23  C   UNL     1       3.513  15.402  19.467  0.00  0.00    +0.000 A 
ATOM     24  N   UNL     1       4.751  15.668  19.988  0.00  0.00    +0.000 N 
ATOM     25  H   UNL     1       5.187  15.180  20.758  0.00  0.00    +0.000 HD
ENDBRANCH  17  20
BRANCH  18  26
ATOM     26  C   UNL     1       7.413  15.012  19.010  0.00  0.00    +0.000 C 
ATOM     27  N   UNL     1       7.119  13.994  18.530  0.00  0.00    +0.000 NA
ENDBRANCH  18  26
BRANCH  18  28
ATOM     28  C   UNL     1       8.958  16.873  18.759  0.00  0.00    +0.000 C 
ATOM     29  O   UNL     1       8.895  18.089  18.521  0.00  0.00    +0.000 OA
BRANCH  28  30
ATOM     30  C   UNL     1      10.036  16.121  18.057  0.00  0.00    +0.000 A 
ATOM     31  C   UNL     1      10.512  16.649  16.848  0.00  0.00    +0.000 A 
ATOM     32  N   UNL     1      11.577  15.910  16.473  0.00  0.00    +0.000 N 
ATOM     33  C   UNL     1      11.432  14.649  16.990  0.00  0.00    +0.000 A 
ATOM     34  C   UNL     1      11.853  13.418  16.522  0.00  0.00    +0.000 A 
ATOM     35  C   UNL     1      11.722  12.334  17.382  0.00  0.00    +0.000 A 
ATOM     36  C   UNL     1      11.346  12.550  18.703  0.00  0.00    +0.000 A 
ATOM     37  C   UNL     1      10.881  13.809  19.147  0.00  0.00    +0.000 A 
ATOM     38  C   UNL     1      10.750  14.862  18.211  0.00  0.00    +0.000 A 
ATOM     39  H   UNL     1      12.499  16.301  16.255  0.00  0.00    +0.000 HD
ENDBRANCH  28  30
ENDBRANCH  18  28
TORSDOF 4
ENDMDL
MODEL 8
REMARK VINA RESULT:      -6.6      2.503      5.343
REMARK  Name = 
REMARK  5 active torsions:
REMARK  status: ('A' for Active; 'I' for Inactive)
REMARK    1  A    between atoms: C_1  and  C_2
REMARK    2  A    between atoms: C_17  and  C_18
REMARK    3  A    between atoms: C_23  and  C_24
REMARK    4  A    between atoms: C_23  and  C_26
REMARK    5  A    between atoms: C_26  and  C_28
REMARK                            x       y       z     vdW  Elec       q    Type
REMARK                         _______ _______ _______ _____ _____    ______ ____
ROOT
ATOM      1  C   UNL     1       0.040  18.024  16.665  0.00  0.00    +0.000 C 
ATOM      2  C   UNL     1      -0.717  17.742  17.933  0.00  0.00    +0.000 A 
ATOM      3  C   UNL     1      -1.789  18.575  18.314  0.00  0.00    +0.000 A 
ATOM      4  C   UNL     1      -2.410  18.424  19.552  0.00  0.00    +0.000 A 
ATOM      5  C   UNL     1      -1.918  17.454  20.404  0.00  0.00    +0.000 A 
ATOM      6  C   UNL     1      -0.872  16.600  20.049  0.00  0.00    +0.000 A 
ATOM      7  C   UNL     1      -0.283  16.721  18.796  0.00  0.00    +0.000 A 
ATOM      8  C   UNL     1      -0.449  15.779  21.270  0.00  0.00    +0.000 C 
ATOM      9  C   UNL     1      -1.483  16.326  22.338  0.00  0.00    +0.000 C 
ATOM     10  O   UNL     1      -1.570  16.052  23.523  0.00  0.00    +0.000 OA
ATOM     11  N   UNL     1      -2.291  17.259  21.712  0.00  0.00    +0.000 N 
ATOM     12  N   UNL     1       0.883  16.163  21.780  0.00  0.00    +0.000 NA
ATOM     13  C   UNL     1       1.542  17.400  21.411  0.00  0.00    +0.000 C 
ATOM     14  S   UNL     1       3.299  17.162  21.771  0.00  0.00    +0.000 S 
ATOM     15  C   UNL     1       3.182  15.418  21.312  0.00  0.00    +0.000 C 
ATOM     16  C   UNL     1       1.794  15.025  21.854  0.00  0.00    +0.000 C 
ATOM     17  C   UNL     1       1.054  13.806  21.264  0.00  0.00    +0.000 C 
ATOM     18  C   UNL     1      -0.479  14.217  21.175  0.00  0.00    +0.000 C 
ATOM     19  H   UNL     1      -2.974  17.799  22.220  0.00  0.00    +0.000 HD
ENDROOT
BRANCH  17  20
ATOM     20  C   UNL     1       1.651  13.331  19.973  0.00  0.00    +0.000 A 
ATOM     21  N   UNL     1       2.288  14.070  19.093  0.00  0.00    +0.000 NA
ATOM     22  C   UNL     1       2.632  13.228  18.071  0.00  0.00    +0.000 A 
ATOM     23  C   UNL     1       2.213  11.950  18.339  0.00  0.00    +0.000 A 
ATOM     24  N   UNL     1       1.596  12.021  19.559  0.00  0.00    +0.000 N 
ATOM     25  H   UNL     1       1.170  11.249  20.054  0.00  0.00    +0.000 HD
ENDBRANCH  17  20
BRANCH  18  26
ATOM     26  C   UNL     1      -1.072  13.717  19.943  0.00  0.00    +0.000 C 
ATOM     27  N   UNL     1      -1.564  13.342  18.958  0.00  0.00    +0.000 NA
ENDBRANCH  18  26
BRANCH  18  28
ATOM     28  C   UNL     1      -1.192  13.525  22.365  0.00  0.00    +0.000 C 
ATOM     29  O   UNL     1      -0.465  13.040  23.245  0.00  0.00    +0.000 OA
BRANCH  28  30
ATOM     30  C   UNL     1      -2.650  13.241  22.487  0.00  0.00    +0.000 A 
ATOM     31  C   UNL     1      -3.042  12.253  23.401  0.00  0.00    +0.000 A 
ATOM     32  N   UNL     1      -4.390  12.272  23.466  0.00  0.00    +0.000 N 
ATOM     33  C   UNL     1      -4.875  12.734  22.270  0.00  0.00    +0.000 A 
ATOM     34  C   UNL     1      -6.049  12.458  21.594  0.00  0.00    +0.000 A 
ATOM     35  C   UNL     1      -6.343  13.244  20.487  0.00  0.00    +0.000 A 
ATOM     36  C   UNL     1      -5.558  14.358  20.209  0.00  0.00    +0.000 A 
ATOM     37  C   UNL     1      -4.340  14.595  20.887  0.00  0.00    +0.000 A 
ATOM     38  C   UNL     1      -3.887  13.650  21.838  0.00  0.00    +0.000 A 
ATOM     39  H   UNL     1      -4.922  12.370  24.337  0.00  0.00    +0.000 HD
ENDBRANCH  28  30
ENDBRANCH  18  28
TORSDOF 4
ENDMDL
MODEL 9
REMARK VINA RESULT:      -6.6      2.234      6.264
REMARK  Name = 
REMARK  5 active torsions:
REMARK  status: ('A' for Active; 'I' for Inactive)
REMARK    1  A    between atoms: C_1  and  C_2
REMARK    2  A    between atoms: C_17  and  C_18
REMARK    3  A    between atoms: C_23  and  C_24
REMARK    4  A    between atoms: C_23  and  C_26
REMARK    5  A    between atoms: C_26  and  C_28
REMARK                            x       y       z     vdW  Elec       q    Type
REMARK                         _______ _______ _______ _____ _____    ______ ____
ROOT
ATOM      1  C   UNL     1       1.778  15.360  19.258  0.00  0.00    +0.000 C 
ATOM      2  C   UNL     1       0.358  15.856  19.275  0.00  0.00    +0.000 A 
ATOM      3  C   UNL     1      -0.022  16.932  18.448  0.00  0.00    +0.000 A 
ATOM      4  C   UNL     1      -1.289  17.504  18.551  0.00  0.00    +0.000 A 
ATOM      5  C   UNL     1      -2.144  17.002  19.513  0.00  0.00    +0.000 A 
ATOM      6  C   UNL     1      -1.804  15.924  20.335  0.00  0.00    +0.000 A 
ATOM      7  C   UNL     1      -0.558  15.325  20.199  0.00  0.00    +0.000 A 
ATOM      8  C   UNL     1      -2.884  15.741  21.404  0.00  0.00    +0.000 C 
ATOM      9  C   UNL     1      -3.882  16.897  20.985  0.00  0.00    +0.000 C 
ATOM     10  O   UNL     1      -4.912  17.249  21.536  0.00  0.00    +0.000 OA
ATOM     11  N   UNL     1      -3.361  17.528  19.870  0.00  0.00    +0.000 N 
ATOM     12  N   UNL     1      -2.411  16.099  22.757  0.00  0.00    +0.000 NA
ATOM     13  C   UNL     1      -1.210  16.875  22.992  0.00  0.00    +0.000 C 
ATOM     14  S   UNL     1      -0.733  16.556  24.708  0.00  0.00    +0.000 S 
ATOM     15  C   UNL     1      -1.328  14.855  24.584  0.00  0.00    +0.000 C 
ATOM     16  C   UNL     1      -2.587  15.007  23.710  0.00  0.00    +0.000 C 
ATOM     17  C   UNL     1      -3.130  13.795  22.923  0.00  0.00    +0.000 C 
ATOM     18  C   UNL     1      -3.607  14.357  21.515  0.00  0.00    +0.000 C 
ATOM     19  H   UNL     1      -3.790  18.351  19.474  0.00  0.00    +0.000 HD
ENDROOT
BRANCH  17  20
ATOM     20  C   UNL     1      -2.148  12.664  22.847  0.00  0.00    +0.000 A 
ATOM     21  N   UNL     1      -2.273  11.486  23.415  0.00  0.00    +0.000 NA
ATOM     22  C   UNL     1      -1.138  10.791  23.098  0.00  0.00    +0.000 A 
ATOM     23  C   UNL     1      -0.313  11.552  22.308  0.00  0.00    +0.000 A 
ATOM     24  N   UNL     1      -0.968  12.742  22.144  0.00  0.00    +0.000 N 
ATOM     25  H   UNL     1      -0.635  13.534  21.612  0.00  0.00    +0.000 HD
ENDBRANCH  17  20
BRANCH  18  26
ATOM     26  C   UNL     1      -3.260  13.427  20.450  0.00  0.00    +0.000 C 
ATOM     27  N   UNL     1      -2.996  12.662  19.615  0.00  0.00    +0.000 NA
ENDBRANCH  18  26
BRANCH  18  28
ATOM     28  C   UNL     1      -5.153  14.454  21.579  0.00  0.00    +0.000 C 
ATOM     29  O   UNL     1      -5.652  14.672  22.694  0.00  0.00    +0.000 OA
BRANCH  28  30
ATOM     30  C   UNL     1      -6.111  14.160  20.476  0.00  0.00    +0.000 A 
ATOM     31  C   UNL     1      -6.702  12.890  20.454  0.00  0.00    +0.000 A 
ATOM     32  N   UNL     1      -7.640  12.894  19.483  0.00  0.00    +0.000 N 
ATOM     33  C   UNL     1      -7.272  13.808  18.531  0.00  0.00    +0.000 A 
ATOM     34  C   UNL     1      -7.494  13.844  17.166  0.00  0.00    +0.000 A 
ATOM     35  C   UNL     1      -7.160  15.016  16.500  0.00  0.00    +0.000 A 
ATOM     36  C   UNL     1      -6.787  16.138  17.232  0.00  0.00    +0.000 A 
ATOM     37  C   UNL     1      -6.526  16.066  18.619  0.00  0.00    +0.000 A 
ATOM     38  C   UNL     1      -6.600  14.811  19.268  0.00  0.00    +0.000 A 
ATOM     39  H   UNL     1      -8.620  12.634  19.630  0.00  0.00    +0.000 HD
ENDBRANCH  28  30
ENDBRANCH  18  28
TORSDOF 4
ENDMDL
