MODEL 1
REMARK VINA RESULT:      -6.8      0.000      0.000
REMARK  Name = 
REMARK  4 active torsions:
REMARK  status: ('A' for Active; 'I' for Inactive)
REMARK    1  A    between atoms: N_1  and  C_2
REMARK    2  A    between atoms: N_10  and  C_11
REMARK    3  A    between atoms: C_14  and  C_15
REMARK    4  A    between atoms: C_15  and  O_16
REMARK                            x       y       z     vdW  Elec       q    Type
REMARK                         _______ _______ _______ _____ _____    ______ ____
ROOT
ATOM      1  C   UNL     1       6.658   4.328  15.930  0.00  0.00    +0.000 A 
ATOM      2  N   UNL     1       7.807   4.523  16.617  0.00  0.00    +0.000 NA
ATOM      3  C   UNL     1       7.731   4.697  17.954  0.00  0.00    +0.000 A 
ATOM      4  N   UNL     1       6.634   4.701  18.742  0.00  0.00    +0.000 NA
ATOM      5  C   UNL     1       5.529   4.470  18.014  0.00  0.00    +0.000 A 
ATOM      6  C   UNL     1       5.450   4.274  16.645  0.00  0.00    +0.000 A 
ATOM      7  N   UNL     1       4.144   4.063  16.253  0.00  0.00    +0.000 NA
ATOM      8  C   UNL     1       3.442   4.148  17.364  0.00  0.00    +0.000 A 
ATOM      9  N   UNL     1       4.236   4.400  18.452  0.00  0.00    +0.000 N 
ENDROOT
BRANCH   9  10
ATOM     10  C   UNL     1       3.803   4.653  19.806  0.00  0.00    +0.000 C 
ATOM     11  C   UNL     1       2.559   5.509  19.875  0.00  0.00    +0.000 C 
ATOM     12  O   UNL     1       1.902   5.106  21.079  0.00  0.00    +0.000 OA
ATOM     13  C   UNL     1       2.366   3.772  21.335  0.00  0.00    +0.000 C 
ATOM     14  O   UNL     1       3.425   3.425  20.437  0.00  0.00    +0.000 OA
BRANCH  13  15
ATOM     15  C   UNL     1       1.205   2.776  21.197  0.00  0.00    +0.000 C 
BRANCH  15  16
ATOM     16  O   UNL     1       0.395   3.078  20.055  0.00  0.00    +0.000 OA
ATOM     17  H   UNL     1      -0.115   3.874  20.289  0.00  0.00    +0.000 HD
ENDBRANCH  15  16
ENDBRANCH  13  15
ENDBRANCH   9  10
BRANCH   1  18
ATOM     18  N   UNL     1       6.729   4.182  14.550  0.00  0.00    +0.000 N 
ATOM     19  H   UNL     1       5.912   3.729  14.164  0.00  0.00    +0.000 HD
ATOM     20  H   UNL     1       7.088   5.003  14.076  0.00  0.00    +0.000 HD
ENDBRANCH   1  18
TORSDOF 4
ENDMDL
MODEL 2
REMARK VINA RESULT:      -6.7      1.810      2.788
REMARK  Name = 
REMARK  4 active torsions:
REMARK  status: ('A' for Active; 'I' for Inactive)
REMARK    1  A    between atoms: N_1  and  C_2
REMARK    2  A    between atoms: N_10  and  C_11
REMARK    3  A    between atoms: C_14  and  C_15
REMARK    4  A    between atoms: C_15  and  O_16
REMARK                            x       y       z     vdW  Elec       q    Type
REMARK                         _______ _______ _______ _____ _____    ______ ____
ROOT
ATOM      1  C   UNL     1       7.086   5.016  14.701  0.00  0.00    +0.000 A 
ATOM      2  N   UNL     1       6.283   4.021  14.261  0.00  0.00    +0.000 NA
ATOM      3  C   UNL     1       5.402   3.478  15.130  0.00  0.00    +0.000 A 
ATOM      4  N   UNL     1       5.193   3.797  16.426  0.00  0.00    +0.000 NA
ATOM      5  C   UNL     1       5.992   4.811  16.798  0.00  0.00    +0.000 A 
ATOM      6  C   UNL     1       6.937   5.464  16.024  0.00  0.00    +0.000 A 
ATOM      7  N   UNL     1       7.565   6.457  16.747  0.00  0.00    +0.000 NA
ATOM      8  C   UNL     1       7.021   6.394  17.946  0.00  0.00    +0.000 A 
ATOM      9  N   UNL     1       6.072   5.409  18.025  0.00  0.00    +0.000 N 
ENDROOT
BRANCH   9  10
ATOM     10  C   UNL     1       5.347   4.990  19.201  0.00  0.00    +0.000 C 
ATOM     11  C   UNL     1       3.896   5.414  19.180  0.00  0.00    +0.000 C 
ATOM     12  O   UNL     1       3.211   4.419  19.943  0.00  0.00    +0.000 OA
ATOM     13  C   UNL     1       4.043   3.252  19.878  0.00  0.00    +0.000 C 
ATOM     14  O   UNL     1       5.298   3.561  19.263  0.00  0.00    +0.000 OA
BRANCH  13  15
ATOM     15  C   UNL     1       3.328   2.140  19.095  0.00  0.00    +0.000 C 
BRANCH  15  16
ATOM     16  O   UNL     1       4.155   1.633  18.041  0.00  0.00    +0.000 OA
ATOM     17  H   UNL     1       4.628   2.401  17.676  0.00  0.00    +0.000 HD
ENDBRANCH  15  16
ENDBRANCH  13  15
ENDBRANCH   9  10
BRANCH   1  18
ATOM     18  N   UNL     1       8.015   5.554  13.819  0.00  0.00    +0.000 N 
ATOM     19  H   UNL     1       7.724   6.447  13.444  0.00  0.00    +0.000 HD
ATOM     20  H   UNL     1       8.974   5.461  14.136  0.00  0.00    +0.000 HD
ENDBRANCH   1  18
TORSDOF 4
ENDMDL
MODEL 3
REMARK VINA RESULT:      -6.6      1.895      2.678
REMARK  Name = 
REMARK  4 active torsions:
REMARK  status: ('A' for Active; 'I' for Inactive)
REMARK    1  A    between atoms: N_1  and  C_2
REMARK    2  A    between atoms: N_10  and  C_11
REMARK    3  A    between atoms: C_14  and  C_15
REMARK    4  A    between atoms: C_15  and  O_16
REMARK                            x       y       z     vdW  Elec       q    Type
REMARK                         _______ _______ _______ _____ _____    ______ ____
ROOT
ATOM      1  C   UNL     1       6.876   6.337  16.619  0.00  0.00    +0.000 A 
ATOM      2  N   UNL     1       7.470   5.490  15.746  0.00  0.00    +0.000 NA
ATOM      3  C   UNL     1       6.842   4.331  15.452  0.00  0.00    +0.000 A 
ATOM      4  N   UNL     1       5.657   3.874  15.914  0.00  0.00    +0.000 NA
ATOM      5  C   UNL     1       5.099   4.767  16.747  0.00  0.00    +0.000 A 
ATOM      6  C   UNL     1       5.620   5.989  17.141  0.00  0.00    +0.000 A 
ATOM      7  N   UNL     1       4.759   6.635  18.005  0.00  0.00    +0.000 NA
ATOM      8  C   UNL     1       3.743   5.808  18.147  0.00  0.00    +0.000 A 
ATOM      9  N   UNL     1       3.908   4.664  17.411  0.00  0.00    +0.000 N 
ENDROOT
BRANCH   9  10
ATOM     10  C   UNL     1       3.050   3.504  17.401  0.00  0.00    +0.000 C 
ATOM     11  C   UNL     1       3.531   2.408  18.325  0.00  0.00    +0.000 C 
ATOM     12  O   UNL     1       2.345   1.721  18.729  0.00  0.00    +0.000 OA
ATOM     13  C   UNL     1       1.283   2.673  18.570  0.00  0.00    +0.000 C 
ATOM     14  O   UNL     1       1.755   3.848  17.903  0.00  0.00    +0.000 OA
BRANCH  13  15
ATOM     15  C   UNL     1       0.696   3.040  19.941  0.00  0.00    +0.000 C 
BRANCH  15  16
ATOM     16  O   UNL     1       1.083   4.362  20.335  0.00  0.00    +0.000 OA
ATOM     17  H   UNL     1       0.603   4.548  21.162  0.00  0.00    +0.000 HD
ENDBRANCH  15  16
ENDBRANCH  13  15
ENDBRANCH   9  10
BRANCH   1  18
ATOM     18  N   UNL     1       7.535   7.514  16.949  0.00  0.00    +0.000 N 
ATOM     19  H   UNL     1       6.940   8.170  17.437  0.00  0.00    +0.000 HD
ATOM     20  H   UNL     1       8.473   7.366  17.306  0.00  0.00    +0.000 HD
ENDBRANCH   1  18
TORSDOF 4
ENDMDL
MODEL 4
REMARK VINA RESULT:      -6.6      1.198      1.221
REMARK  Name = 
REMARK  4 active torsions:
REMARK  status: ('A' for Active; 'I' for Inactive)
REMARK    1  A    between atoms: N_1  and  C_2
REMARK    2  A    between atoms: N_10  and  C_11
REMARK    3  A    between atoms: C_14  and  C_15
REMARK    4  A    between atoms: C_15  and  O_16
REMARK                            x       y       z     vdW  Elec       q    Type
REMARK                         _______ _______ _______ _____ _____    ______ ____
ROOT
ATOM      1  C   UNL     1       7.062   5.357  16.619  0.00  0.00    +0.000 A 
ATOM      2  N   UNL     1       7.857   5.920  17.558  0.00  0.00    +0.000 NA
ATOM      3  C   UNL     1       7.501   5.797  18.855  0.00  0.00    +0.000 A 
ATOM      4  N   UNL     1       6.427   5.166  19.377  0.00  0.00    +0.000 NA
ATOM      5  C   UNL     1       5.694   4.598  18.405  0.00  0.00    +0.000 A 
ATOM      6  C   UNL     1       5.932   4.638  17.042  0.00  0.00    +0.000 A 
ATOM      7  N   UNL     1       4.964   3.936  16.353  0.00  0.00    +0.000 NA
ATOM      8  C   UNL     1       4.142   3.494  17.284  0.00  0.00    +0.000 A 
ATOM      9  N   UNL     1       4.540   3.876  18.538  0.00  0.00    +0.000 N 
ENDROOT
BRANCH   9  10
ATOM     10  C   UNL     1       3.835   3.659  19.779  0.00  0.00    +0.000 C 
ATOM     11  C   UNL     1       2.933   4.814  20.152  0.00  0.00    +0.000 C 
ATOM     12  O   UNL     1       1.872   4.222  20.906  0.00  0.00    +0.000 OA
ATOM     13  C   UNL     1       1.829   2.850  20.488  0.00  0.00    +0.000 C 
ATOM     14  O   UNL     1       2.949   2.543  19.650  0.00  0.00    +0.000 OA
BRANCH  13  15
ATOM     15  C   UNL     1       0.516   2.568  19.743  0.00  0.00    +0.000 C 
BRANCH  15  16
ATOM     16  O   UNL     1       0.750   1.832  18.536  0.00  0.00    +0.000 OA
ATOM     17  H   UNL     1       1.064   0.953  18.813  0.00  0.00    +0.000 HD
ENDBRANCH  15  16
ENDBRANCH  13  15
ENDBRANCH   9  10
BRANCH   1  18
ATOM     18  N   UNL     1       7.408   5.509  15.283  0.00  0.00    +0.000 N 
ATOM     19  H   UNL     1       8.408   5.549  15.142  0.00  0.00    +0.000 HD
ATOM     20  H   UNL     1       6.862   4.929  14.655  0.00  0.00    +0.000 HD
ENDBRANCH   1  18
TORSDOF 4
ENDMDL
MODEL 5
REMARK VINA RESULT:      -6.6      3.205      5.778
REMARK  Name = 
REMARK  4 active torsions:
REMARK  status: ('A' for Active; 'I' for Inactive)
REMARK    1  A    between atoms: N_1  and  C_2
REMARK    2  A    between atoms: N_10  and  C_11
REMARK    3  A    between atoms: C_14  and  C_15
REMARK    4  A    between atoms: C_15  and  O_16
REMARK                            x       y       z     vdW  Elec       q    Type
REMARK                         _______ _______ _______ _____ _____    ______ ____
ROOT
ATOM      1  C   UNL     1       1.702   3.072  19.765  0.00  0.00    +0.000 A 
ATOM      2  N   UNL     1       1.705   1.924  19.048  0.00  0.00    +0.000 NA
ATOM      3  C   UNL     1       2.634   1.777  18.079  0.00  0.00    +0.000 A 
ATOM      4  N   UNL     1       3.605   2.640  17.707  0.00  0.00    +0.000 NA
ATOM      5  C   UNL     1       3.577   3.743  18.472  0.00  0.00    +0.000 A 
ATOM      6  C   UNL     1       2.690   4.033  19.496  0.00  0.00    +0.000 A 
ATOM      7  N   UNL     1       2.971   5.261  20.057  0.00  0.00    +0.000 NA
ATOM      8  C   UNL     1       4.001   5.716  19.372  0.00  0.00    +0.000 A 
ATOM      9  N   UNL     1       4.396   4.835  18.399  0.00  0.00    +0.000 N 
ENDROOT
BRANCH   9  10
ATOM     10  C   UNL     1       5.418   5.041  17.401  0.00  0.00    +0.000 C 
ATOM     11  C   UNL     1       5.065   6.131  16.415  0.00  0.00    +0.000 C 
ATOM     12  O   UNL     1       6.322   6.670  15.998  0.00  0.00    +0.000 OA
ATOM     13  C   UNL     1       7.236   6.368  17.062  0.00  0.00    +0.000 C 
ATOM     14  O   UNL     1       6.623   5.500  18.021  0.00  0.00    +0.000 OA
BRANCH  13  15
ATOM     15  C   UNL     1       7.699   7.666  17.741  0.00  0.00    +0.000 C 
BRANCH  15  16
ATOM     16  O   UNL     1       8.508   7.391  18.891  0.00  0.00    +0.000 OA
ATOM     17  H   UNL     1       8.063   7.821  19.643  0.00  0.00    +0.000 HD
ENDBRANCH  15  16
ENDBRANCH  13  15
ENDBRANCH   9  10
BRANCH   1  18
ATOM     18  N   UNL     1       0.726   3.239  20.740  0.00  0.00    +0.000 N 
ATOM     19  H   UNL     1       0.575   4.210  20.976  0.00  0.00    +0.000 HD
ATOM     20  H   UNL     1      -0.088   2.651  20.601  0.00  0.00    +0.000 HD
ENDBRANCH   1  18
TORSDOF 4
ENDMDL
MODEL 6
REMARK VINA RESULT:      -6.5      1.163      1.524
REMARK  Name = 
REMARK  4 active torsions:
REMARK  status: ('A' for Active; 'I' for Inactive)
REMARK    1  A    between atoms: N_1  and  C_2
REMARK    2  A    between atoms: N_10  and  C_11
REMARK    3  A    between atoms: C_14  and  C_15
REMARK    4  A    between atoms: C_15  and  O_16
REMARK                            x       y       z     vdW  Elec       q    Type
REMARK                         _______ _______ _______ _____ _____    ______ ____
ROOT
ATOM      1  C   UNL     1       7.055   4.739  17.197  0.00  0.00    +0.000 A 
ATOM      2  N   UNL     1       7.693   5.290  18.256  0.00  0.00    +0.000 NA
ATOM      3  C   UNL     1       6.962   5.611  19.346  0.00  0.00    +0.000 A 
ATOM      4  N   UNL     1       5.636   5.454  19.547  0.00  0.00    +0.000 NA
ATOM      5  C   UNL     1       5.062   4.874  18.480  0.00  0.00    +0.000 A 
ATOM      6  C   UNL     1       5.677   4.490  17.300  0.00  0.00    +0.000 A 
ATOM      7  N   UNL     1       4.765   3.924  16.432  0.00  0.00    +0.000 NA
ATOM      8  C   UNL     1       3.614   3.981  17.070  0.00  0.00    +0.000 A 
ATOM      9  N   UNL     1       3.744   4.554  18.308  0.00  0.00    +0.000 N 
ENDROOT
BRANCH   9  10
ATOM     10  C   UNL     1       2.685   4.868  19.238  0.00  0.00    +0.000 C 
ATOM     11  C   UNL     1       1.355   4.271  18.837  0.00  0.00    +0.000 C 
ATOM     12  O   UNL     1       0.662   4.058  20.069  0.00  0.00    +0.000 OA
ATOM     13  C   UNL     1       1.688   3.952  21.067  0.00  0.00    +0.000 C 
ATOM     14  O   UNL     1       2.965   4.285  20.514  0.00  0.00    +0.000 OA
BRANCH  13  15
ATOM     15  C   UNL     1       1.714   2.529  21.646  0.00  0.00    +0.000 C 
BRANCH  15  16
ATOM     16  O   UNL     1       3.034   2.163  22.063  0.00  0.00    +0.000 OA
ATOM     17  H   UNL     1       3.338   2.875  22.653  0.00  0.00    +0.000 HD
ENDBRANCH  15  16
ENDBRANCH  13  15
ENDBRANCH   9  10
BRANCH   1  18
ATOM     18  N   UNL     1       7.798   4.438  16.062  0.00  0.00    +0.000 N 
ATOM     19  H   UNL     1       8.120   3.480  16.051  0.00  0.00    +0.000 HD
ATOM     20  H   UNL     1       7.402   4.817  15.209  0.00  0.00    +0.000 HD
ENDBRANCH   1  18
TORSDOF 4
ENDMDL
MODEL 7
REMARK VINA RESULT:      -6.5      3.382      6.069
REMARK  Name = 
REMARK  4 active torsions:
REMARK  status: ('A' for Active; 'I' for Inactive)
REMARK    1  A    between atoms: N_1  and  C_2
REMARK    2  A    between atoms: N_10  and  C_11
REMARK    3  A    between atoms: C_14  and  C_15
REMARK    4  A    between atoms: C_15  and  O_16
REMARK                            x       y       z     vdW  Elec       q    Type
REMARK                         _______ _______ _______ _____ _____    ______ ____
ROOT
ATOM      1  C   UNL     1       2.346   2.957  20.631  0.00  0.00    +0.000 A 
ATOM      2  N   UNL     1       1.079   2.949  20.158  0.00  0.00    +0.000 NA
ATOM      3  C   UNL     1       0.857   3.427  18.914  0.00  0.00    +0.000 A 
ATOM      4  N   UNL     1       1.750   3.929  18.033  0.00  0.00    +0.000 NA
ATOM      5  C   UNL     1       2.992   3.881  18.541  0.00  0.00    +0.000 A 
ATOM      6  C   UNL     1       3.372   3.421  19.791  0.00  0.00    +0.000 A 
ATOM      7  N   UNL     1       4.738   3.526  19.960  0.00  0.00    +0.000 NA
ATOM      8  C   UNL     1       5.175   4.057  18.836  0.00  0.00    +0.000 A 
ATOM      9  N   UNL     1       4.155   4.296  17.953  0.00  0.00    +0.000 N 
ENDROOT
BRANCH   9  10
ATOM     10  C   UNL     1       4.248   4.956  16.672  0.00  0.00    +0.000 C 
ATOM     11  C   UNL     1       5.029   6.249  16.734  0.00  0.00    +0.000 C 
ATOM     12  O   UNL     1       5.607   6.391  15.434  0.00  0.00    +0.000 OA
ATOM     13  C   UNL     1       5.673   5.060  14.901  0.00  0.00    +0.000 C 
ATOM     14  O   UNL     1       4.982   4.141  15.753  0.00  0.00    +0.000 OA
BRANCH  13  15
ATOM     15  C   UNL     1       7.140   4.632  14.738  0.00  0.00    +0.000 C 
BRANCH  15  16
ATOM     16  O   UNL     1       7.888   5.612  14.007  0.00  0.00    +0.000 OA
ATOM     17  H   UNL     1       8.378   5.122  13.323  0.00  0.00    +0.000 HD
ENDBRANCH  15  16
ENDBRANCH  13  15
ENDBRANCH   9  10
BRANCH   1  18
ATOM     18  N   UNL     1       2.573   2.497  21.922  0.00  0.00    +0.000 N 
ATOM     19  H   UNL     1       3.221   3.079  22.434  0.00  0.00    +0.000 HD
ATOM     20  H   UNL     1       1.729   2.193  22.396  0.00  0.00    +0.000 HD
ENDBRANCH   1  18
TORSDOF 4
ENDMDL
MODEL 8
REMARK VINA RESULT:      -6.4      3.349      5.777
REMARK  Name = 
REMARK  4 active torsions:
REMARK  status: ('A' for Active; 'I' for Inactive)
REMARK    1  A    between atoms: N_1  and  C_2
REMARK    2  A    between atoms: N_10  and  C_11
REMARK    3  A    between atoms: C_14  and  C_15
REMARK    4  A    between atoms: C_15  and  O_16
REMARK                            x       y       z     vdW  Elec       q    Type
REMARK                         _______ _______ _______ _____ _____    ______ ____
ROOT
ATOM      1  C   UNL     1       2.062   3.623  20.051  0.00  0.00    +0.000 A 
ATOM      2  N   UNL     1       2.670   2.534  20.575  0.00  0.00    +0.000 NA
ATOM      3  C   UNL     1       3.981   2.344  20.310  0.00  0.00    +0.000 A 
ATOM      4  N   UNL     1       4.812   3.114  19.574  0.00  0.00    +0.000 NA
ATOM      5  C   UNL     1       4.166   4.195  19.109  0.00  0.00    +0.000 A 
ATOM      6  C   UNL     1       2.833   4.523  19.296  0.00  0.00    +0.000 A 
ATOM      7  N   UNL     1       2.527   5.713  18.670  0.00  0.00    +0.000 NA
ATOM      8  C   UNL     1       3.652   6.091  18.097  0.00  0.00    +0.000 A 
ATOM      9  N   UNL     1       4.667   5.200  18.329  0.00  0.00    +0.000 N 
ENDROOT
BRANCH   9  10
ATOM     10  C   UNL     1       6.001   5.238  17.780  0.00  0.00    +0.000 C 
ATOM     11  C   UNL     1       6.042   5.792  16.374  0.00  0.00    +0.000 C 
ATOM     12  O   UNL     1       7.333   6.393  16.254  0.00  0.00    +0.000 OA
ATOM     13  C   UNL     1       7.735   6.701  17.596  0.00  0.00    +0.000 C 
ATOM     14  O   UNL     1       6.818   6.135  18.539  0.00  0.00    +0.000 OA
BRANCH  13  15
ATOM     15  C   UNL     1       7.817   8.224  17.784  0.00  0.00    +0.000 C 
BRANCH  15  16
ATOM     16  O   UNL     1       8.730   8.569  18.834  0.00  0.00    +0.000 OA
ATOM     17  H   UNL     1       9.497   7.979  18.728  0.00  0.00    +0.000 HD
ENDBRANCH  15  16
ENDBRANCH  13  15
ENDBRANCH   9  10
BRANCH   1  18
ATOM     18  N   UNL     1       0.707   3.804  20.294  0.00  0.00    +0.000 N 
ATOM     19  H   UNL     1       0.194   4.062  19.462  0.00  0.00    +0.000 HD
ATOM     20  H   UNL     1       0.307   3.095  20.899  0.00  0.00    +0.000 HD
ENDBRANCH   1  18
TORSDOF 4
ENDMDL
MODEL 9
REMARK VINA RESULT:      -6.4      2.870      5.419
REMARK  Name = 
REMARK  4 active torsions:
REMARK  status: ('A' for Active; 'I' for Inactive)
REMARK    1  A    between atoms: N_1  and  C_2
REMARK    2  A    between atoms: N_10  and  C_11
REMARK    3  A    between atoms: C_14  and  C_15
REMARK    4  A    between atoms: C_15  and  O_16
REMARK                            x       y       z     vdW  Elec       q    Type
REMARK                         _______ _______ _______ _____ _____    ______ ____
ROOT
ATOM      1  C   UNL     1       1.752   3.179  20.106  0.00  0.00    +0.000 A 
ATOM      2  N   UNL     1       2.433   2.397  20.976  0.00  0.00    +0.000 NA
ATOM      3  C   UNL     1       3.767   2.265  20.810  0.00  0.00    +0.000 A 
ATOM      4  N   UNL     1       4.557   2.825  19.868  0.00  0.00    +0.000 NA
ATOM      5  C   UNL     1       3.837   3.614  19.054  0.00  0.00    +0.000 A 
ATOM      6  C   UNL     1       2.472   3.846  19.101  0.00  0.00    +0.000 A 
ATOM      7  N   UNL     1       2.087   4.719  18.104  0.00  0.00    +0.000 NA
ATOM      8  C   UNL     1       3.199   4.997  17.453  0.00  0.00    +0.000 A 
ATOM      9  N   UNL     1       4.279   4.345  17.987  0.00  0.00    +0.000 N 
ENDROOT
BRANCH   9  10
ATOM     10  C   UNL     1       5.630   4.334  17.476  0.00  0.00    +0.000 C 
ATOM     11  C   UNL     1       5.971   5.580  16.691  0.00  0.00    +0.000 C 
ATOM     12  O   UNL     1       7.380   5.747  16.864  0.00  0.00    +0.000 OA
ATOM     13  C   UNL     1       7.696   5.066  18.087  0.00  0.00    +0.000 C 
ATOM     14  O   UNL     1       6.563   4.330  18.560  0.00  0.00    +0.000 OA
BRANCH  13  15
ATOM     15  C   UNL     1       8.154   6.077  19.149  0.00  0.00    +0.000 C 
BRANCH  15  16
ATOM     16  O   UNL     1       8.107   5.507  20.463  0.00  0.00    +0.000 OA
ATOM     17  H   UNL     1       8.974   5.689  20.867  0.00  0.00    +0.000 HD
ENDBRANCH  15  16
ENDBRANCH  13  15
ENDBRANCH   9  10
BRANCH   1  18
ATOM     18  N   UNL     1       0.376   3.290  20.254  0.00  0.00    +0.000 N 
ATOM     19  H   UNL     1       0.022   2.741  21.026  0.00  0.00    +0.000 HD
ATOM     20  H   UNL     1       0.034   4.239  20.149  0.00  0.00    +0.000 HD
ENDBRANCH   1  18
TORSDOF 4
ENDMDL
