MODEL 1
REMARK VINA RESULT:      -7.8      0.000      0.000
REMARK  Name = 
REMARK  9 active torsions:
REMARK  status: ('A' for Active; 'I' for Inactive)
REMARK    1  A    between atoms: C_1  and  C_2
REMARK    2  A    between atoms: C_4  and  C_5
REMARK    3  A    between atoms: N_6  and  C_7
REMARK    4  A    between atoms: C_7  and  C_8
REMARK    5  A    between atoms: N_10  and  C_11
REMARK    6  A    between atoms: C_11  and  C_12
REMARK    7  A    between atoms: C_12  and  O_13
REMARK    8  A    between atoms: O_13  and  C_14
REMARK    9  A    between atoms: C_18  and  C_19
REMARK                            x       y       z     vdW  Elec       q    Type
REMARK                         _______ _______ _______ _____ _____    ______ ____
ROOT
ATOM      1  C   UNL     1       4.181   3.724  18.601  0.00  0.00    +0.000 C 
ATOM      2  C   UNL     1       3.625   3.509  20.025  0.00  0.00    +0.000 C 
ATOM      3  N   UNL     1       2.172   3.222  20.048  0.00  0.00    +0.000 NA
ATOM      4  C   UNL     1       1.933   2.076  19.138  0.00  0.00    +0.000 C 
ATOM      5  C   UNL     1       2.490   2.299  17.727  0.00  0.00    +0.000 C 
ATOM      6  O   UNL     1       3.896   2.565  17.788  0.00  0.00    +0.000 OA
ENDROOT
BRANCH   1   7
ATOM      7  C   UNL     1       5.693   3.923  18.659  0.00  0.00    +0.000 C 
BRANCH   7  13
ATOM      8  C   UNL     1       6.544   4.540  13.950  0.00  0.00    +0.000 C 
ATOM      9  C   UNL     1       6.538   4.772  15.407  0.00  0.00    +0.000 A 
ATOM     10  N   UNL     1       7.307   5.734  16.009  0.00  0.00    +0.000 NA
ATOM     11  C   UNL     1       7.056   5.570  17.293  0.00  0.00    +0.000 A 
ATOM     12  C   UNL     1       7.637   6.326  18.426  0.00  0.00    +0.000 C 
ATOM     13  N   UNL     1       6.171   4.538  17.437  0.00  0.00    +0.000 N 
ATOM     14  N   UNL     1       5.805   4.032  16.245  0.00  0.00    +0.000 NA
ENDBRANCH   7  13
ENDBRANCH   1   7
BRANCH   3  15
ATOM     15  C   UNL     1       1.397   4.429  19.685  0.00  0.00    +0.000 C 
BRANCH  15  16
ATOM     16  C   UNL     1       1.787   5.660  20.506  0.00  0.00    +0.000 C 
BRANCH  16  17
ATOM     17  O   UNL     1       2.411   6.626  19.658  0.00  0.00    +0.000 OA
BRANCH  17  18
ATOM     18  C   UNL     1       1.851   7.876  19.696  0.00  0.00    +0.000 A 
ATOM     19  C   UNL     1       1.746   8.752  18.609  0.00  0.00    +0.000 A 
ATOM     20  C   UNL     1       1.137   9.997  18.761  0.00  0.00    +0.000 A 
ATOM     21  C   UNL     1       0.628  10.375  20.000  0.00  0.00    +0.000 A 
ATOM     22  C   UNL     1       0.736   9.507  21.093  0.00  0.00    +0.000 A 
ATOM     23  C   UNL     1       1.350   8.260  20.938  0.00  0.00    +0.000 A 
BRANCH  22  24
ATOM     24  C   UNL     1       0.209   9.893  22.363  0.00  0.00    +0.000 C 
ATOM     25  N   UNL     1      -0.215  10.208  23.397  0.00  0.00    +0.000 NA
ENDBRANCH  22  24
ENDBRANCH  17  18
ENDBRANCH  16  17
ENDBRANCH  15  16
ENDBRANCH   3  15
TORSDOF 7
ENDMDL
MODEL 2
REMARK VINA RESULT:      -7.5      4.182      7.565
REMARK  Name = 
REMARK  9 active torsions:
REMARK  status: ('A' for Active; 'I' for Inactive)
REMARK    1  A    between atoms: C_1  and  C_2
REMARK    2  A    between atoms: C_4  and  C_5
REMARK    3  A    between atoms: N_6  and  C_7
REMARK    4  A    between atoms: C_7  and  C_8
REMARK    5  A    between atoms: N_10  and  C_11
REMARK    6  A    between atoms: C_11  and  C_12
REMARK    7  A    between atoms: C_12  and  O_13
REMARK    8  A    between atoms: O_13  and  C_14
REMARK    9  A    between atoms: C_18  and  C_19
REMARK                            x       y       z     vdW  Elec       q    Type
REMARK                         _______ _______ _______ _____ _____    ______ ____
ROOT
ATOM      1  C   UNL     1       4.905   5.516  17.652  0.00  0.00    +0.000 C 
ATOM      2  C   UNL     1       5.234   6.769  16.811  0.00  0.00    +0.000 C 
ATOM      3  N   UNL     1       6.688   7.013  16.670  0.00  0.00    +0.000 NA
ATOM      4  C   UNL     1       7.297   5.767  16.144  0.00  0.00    +0.000 C 
ATOM      5  C   UNL     1       6.963   4.529  16.985  0.00  0.00    +0.000 C 
ATOM      6  O   UNL     1       5.543   4.359  17.071  0.00  0.00    +0.000 OA
ENDROOT
BRANCH   1   7
ATOM      7  C   UNL     1       3.396   5.287  17.673  0.00  0.00    +0.000 C 
BRANCH   7  13
ATOM      8  C   UNL     1       2.082   2.770  21.573  0.00  0.00    +0.000 C 
ATOM      9  C   UNL     1       2.366   3.911  20.682  0.00  0.00    +0.000 A 
ATOM     10  N   UNL     1       2.003   5.198  20.983  0.00  0.00    +0.000 NA
ATOM     11  C   UNL     1       2.381   5.881  19.920  0.00  0.00    +0.000 A 
ATOM     12  C   UNL     1       2.213   7.333  19.679  0.00  0.00    +0.000 C 
ATOM     13  N   UNL     1       2.942   5.017  19.021  0.00  0.00    +0.000 N 
ATOM     14  N   UNL     1       2.969   3.759  19.499  0.00  0.00    +0.000 NA
ENDBRANCH   7  13
ENDBRANCH   1   7
BRANCH   3  15
ATOM     15  C   UNL     1       7.270   7.450  17.958  0.00  0.00    +0.000 C 
BRANCH  15  16
ATOM     16  C   UNL     1       8.049   8.762  17.850  0.00  0.00    +0.000 C 
BRANCH  16  17
ATOM     17  O   UNL     1       8.948   8.880  18.953  0.00  0.00    +0.000 OA
BRANCH  17  18
ATOM     18  C   UNL     1       9.336  10.162  19.248  0.00  0.00    +0.000 A 
ATOM     19  C   UNL     1       9.238  10.770  20.505  0.00  0.00    +0.000 A 
ATOM     20  C   UNL     1       9.683  12.078  20.693  0.00  0.00    +0.000 A 
ATOM     21  C   UNL     1      10.231  12.787  19.627  0.00  0.00    +0.000 A 
ATOM     22  C   UNL     1      10.324  12.186  18.365  0.00  0.00    +0.000 A 
ATOM     23  C   UNL     1       9.874  10.876  18.179  0.00  0.00    +0.000 A 
BRANCH  22  24
ATOM     24  C   UNL     1      10.890  12.912  17.273  0.00  0.00    +0.000 C 
ATOM     25  N   UNL     1      11.353  13.498  16.384  0.00  0.00    +0.000 NA
ENDBRANCH  22  24
ENDBRANCH  17  18
ENDBRANCH  16  17
ENDBRANCH  15  16
ENDBRANCH   3  15
TORSDOF 7
ENDMDL
MODEL 3
REMARK VINA RESULT:      -7.4      0.922      1.816
REMARK  Name = 
REMARK  9 active torsions:
REMARK  status: ('A' for Active; 'I' for Inactive)
REMARK    1  A    between atoms: C_1  and  C_2
REMARK    2  A    between atoms: C_4  and  C_5
REMARK    3  A    between atoms: N_6  and  C_7
REMARK    4  A    between atoms: C_7  and  C_8
REMARK    5  A    between atoms: N_10  and  C_11
REMARK    6  A    between atoms: C_11  and  C_12
REMARK    7  A    between atoms: C_12  and  O_13
REMARK    8  A    between atoms: O_13  and  C_14
REMARK    9  A    between atoms: C_18  and  C_19
REMARK                            x       y       z     vdW  Elec       q    Type
REMARK                         _______ _______ _______ _____ _____    ______ ____
ROOT
ATOM      1  C   UNL     1       3.892   3.774  17.902  0.00  0.00    +0.000 C 
ATOM      2  C   UNL     1       3.492   2.697  18.935  0.00  0.00    +0.000 C 
ATOM      3  N   UNL     1       2.311   3.075  19.745  0.00  0.00    +0.000 NA
ATOM      4  C   UNL     1       1.222   3.428  18.802  0.00  0.00    +0.000 C 
ATOM      5  C   UNL     1       1.630   4.496  17.780  0.00  0.00    +0.000 C 
ATOM      6  O   UNL     1       2.772   4.057  17.036  0.00  0.00    +0.000 OA
ENDROOT
BRANCH   1   7
ATOM      7  C   UNL     1       5.055   3.270  17.052  0.00  0.00    +0.000 C 
BRANCH   7  13
ATOM      8  C   UNL     1       7.677   7.257  17.765  0.00  0.00    +0.000 C 
ATOM      9  C   UNL     1       7.094   6.071  17.108  0.00  0.00    +0.000 A 
ATOM     10  N   UNL     1       7.232   5.822  15.767  0.00  0.00    +0.000 NA
ATOM     11  C   UNL     1       6.527   4.723  15.584  0.00  0.00    +0.000 A 
ATOM     12  C   UNL     1       6.299   4.004  14.309  0.00  0.00    +0.000 C 
ATOM     13  N   UNL     1       5.988   4.345  16.782  0.00  0.00    +0.000 N 
ATOM     14  N   UNL     1       6.360   5.175  17.774  0.00  0.00    +0.000 NA
ENDBRANCH   7  13
ENDBRANCH   1   7
BRANCH   3  15
ATOM     15  C   UNL     1       2.650   4.168  20.682  0.00  0.00    +0.000 C 
BRANCH  15  16
ATOM     16  C   UNL     1       1.778   5.411  20.495  0.00  0.00    +0.000 C 
BRANCH  16  17
ATOM     17  O   UNL     1       2.599   6.527  20.147  0.00  0.00    +0.000 OA
BRANCH  17  18
ATOM     18  C   UNL     1       1.931   7.716  20.009  0.00  0.00    +0.000 A 
ATOM     19  C   UNL     1       1.761   8.417  18.809  0.00  0.00    +0.000 A 
ATOM     20  C   UNL     1       1.043   9.612  18.785  0.00  0.00    +0.000 A 
ATOM     21  C   UNL     1       0.489  10.114  19.959  0.00  0.00    +0.000 A 
ATOM     22  C   UNL     1       0.662   9.421  21.163  0.00  0.00    +0.000 A 
ATOM     23  C   UNL     1       1.384   8.225  21.185  0.00  0.00    +0.000 A 
BRANCH  22  24
ATOM     24  C   UNL     1       0.089   9.934  22.367  0.00  0.00    +0.000 C 
ATOM     25  N   UNL     1      -0.380  10.347  23.346  0.00  0.00    +0.000 NA
ENDBRANCH  22  24
ENDBRANCH  17  18
ENDBRANCH  16  17
ENDBRANCH  15  16
ENDBRANCH   3  15
TORSDOF 7
ENDMDL
MODEL 4
REMARK VINA RESULT:      -7.4      1.030      1.167
REMARK  Name = 
REMARK  9 active torsions:
REMARK  status: ('A' for Active; 'I' for Inactive)
REMARK    1  A    between atoms: C_1  and  C_2
REMARK    2  A    between atoms: C_4  and  C_5
REMARK    3  A    between atoms: N_6  and  C_7
REMARK    4  A    between atoms: C_7  and  C_8
REMARK    5  A    between atoms: N_10  and  C_11
REMARK    6  A    between atoms: C_11  and  C_12
REMARK    7  A    between atoms: C_12  and  O_13
REMARK    8  A    between atoms: O_13  and  C_14
REMARK    9  A    between atoms: C_18  and  C_19
REMARK                            x       y       z     vdW  Elec       q    Type
REMARK                         _______ _______ _______ _____ _____    ______ ____
ROOT
ATOM      1  C   UNL     1       4.287   3.929  18.287  0.00  0.00    +0.000 C 
ATOM      2  C   UNL     1       3.868   3.749  19.763  0.00  0.00    +0.000 C 
ATOM      3  N   UNL     1       2.431   3.427  19.927  0.00  0.00    +0.000 NA
ATOM      4  C   UNL     1       2.143   2.244  19.080  0.00  0.00    +0.000 C 
ATOM      5  C   UNL     1       2.564   2.433  17.617  0.00  0.00    +0.000 C 
ATOM      6  O   UNL     1       3.961   2.736  17.541  0.00  0.00    +0.000 OA
ENDROOT
BRANCH   1   7
ATOM      7  C   UNL     1       5.791   4.167  18.200  0.00  0.00    +0.000 C 
BRANCH   7  13
ATOM      8  C   UNL     1       6.457   3.940  13.426  0.00  0.00    +0.000 C 
ATOM      9  C   UNL     1       6.454   4.453  14.810  0.00  0.00    +0.000 A 
ATOM     10  N   UNL     1       7.110   5.598  15.180  0.00  0.00    +0.000 NA
ATOM     11  C   UNL     1       6.909   5.662  16.482  0.00  0.00    +0.000 A 
ATOM     12  C   UNL     1       7.415   6.690  17.420  0.00  0.00    +0.000 C 
ATOM     13  N   UNL     1       6.163   4.581  16.862  0.00  0.00    +0.000 N 
ATOM     14  N   UNL     1       5.837   3.811  15.808  0.00  0.00    +0.000 NA
ENDBRANCH   7  13
ENDBRANCH   1   7
BRANCH   3  15
ATOM     15  C   UNL     1       1.594   4.601  19.599  0.00  0.00    +0.000 C 
BRANCH  15  16
ATOM     16  C   UNL     1       1.490   5.604  20.749  0.00  0.00    +0.000 C 
BRANCH  16  17
ATOM     17  O   UNL     1       2.461   6.637  20.576  0.00  0.00    +0.000 OA
BRANCH  17  18
ATOM     18  C   UNL     1       2.083   7.650  19.732  0.00  0.00    +0.000 A 
ATOM     19  C   UNL     1       2.480   7.784  18.397  0.00  0.00    +0.000 A 
ATOM     20  C   UNL     1       2.016   8.848  17.626  0.00  0.00    +0.000 A 
ATOM     21  C   UNL     1       1.150   9.786  18.183  0.00  0.00    +0.000 A 
ATOM     22  C   UNL     1       0.756   9.661  19.521  0.00  0.00    +0.000 A 
ATOM     23  C   UNL     1       1.225   8.594  20.292  0.00  0.00    +0.000 A 
BRANCH  22  24
ATOM     24  C   UNL     1      -0.136  10.620  20.091  0.00  0.00    +0.000 C 
ATOM     25  N   UNL     1      -0.862  11.401  20.551  0.00  0.00    +0.000 NA
ENDBRANCH  22  24
ENDBRANCH  17  18
ENDBRANCH  16  17
ENDBRANCH  15  16
ENDBRANCH   3  15
TORSDOF 7
ENDMDL
MODEL 5
REMARK VINA RESULT:      -7.4      1.492      2.175
REMARK  Name = 
REMARK  9 active torsions:
REMARK  status: ('A' for Active; 'I' for Inactive)
REMARK    1  A    between atoms: C_1  and  C_2
REMARK    2  A    between atoms: C_4  and  C_5
REMARK    3  A    between atoms: N_6  and  C_7
REMARK    4  A    between atoms: C_7  and  C_8
REMARK    5  A    between atoms: N_10  and  C_11
REMARK    6  A    between atoms: C_11  and  C_12
REMARK    7  A    between atoms: C_12  and  O_13
REMARK    8  A    between atoms: O_13  and  C_14
REMARK    9  A    between atoms: C_18  and  C_19
REMARK                            x       y       z     vdW  Elec       q    Type
REMARK                         _______ _______ _______ _____ _____    ______ ____
ROOT
ATOM      1  C   UNL     1       3.766   4.441  18.713  0.00  0.00    +0.000 C 
ATOM      2  C   UNL     1       4.007   5.849  19.302  0.00  0.00    +0.000 C 
ATOM      3  N   UNL     1       2.755   6.607  19.531  0.00  0.00    +0.000 NA
ATOM      4  C   UNL     1       1.869   5.759  20.364  0.00  0.00    +0.000 C 
ATOM      5  C   UNL     1       1.639   4.363  19.772  0.00  0.00    +0.000 C 
ATOM      6  O   UNL     1       2.891   3.693  19.584  0.00  0.00    +0.000 OA
ENDROOT
BRANCH   1   7
ATOM      7  C   UNL     1       5.093   3.696  18.592  0.00  0.00    +0.000 C 
BRANCH   7  13
ATOM      8  C   UNL     1       6.354   4.043  13.948  0.00  0.00    +0.000 C 
ATOM      9  C   UNL     1       6.346   4.249  15.410  0.00  0.00    +0.000 A 
ATOM     10  N   UNL     1       7.356   4.896  16.073  0.00  0.00    +0.000 NA
ATOM     11  C   UNL     1       6.995   4.812  17.339  0.00  0.00    +0.000 A 
ATOM     12  C   UNL     1       7.731   5.322  18.519  0.00  0.00    +0.000 C 
ATOM     13  N   UNL     1       5.813   4.130  17.413  0.00  0.00    +0.000 N 
ATOM     14  N   UNL     1       5.366   3.786  16.190  0.00  0.00    +0.000 NA
ENDBRANCH   7  13
ENDBRANCH   1   7
BRANCH   3  15
ATOM     15  C   UNL     1       2.144   7.005  18.244  0.00  0.00    +0.000 C 
BRANCH  15  16
ATOM     16  C   UNL     1       2.405   8.469  17.883  0.00  0.00    +0.000 C 
BRANCH  16  17
ATOM     17  O   UNL     1       1.173   9.192  17.886  0.00  0.00    +0.000 OA
BRANCH  17  18
ATOM     18  C   UNL     1       1.085  10.181  18.831  0.00  0.00    +0.000 A 
ATOM     19  C   UNL     1       1.305  11.544  18.603  0.00  0.00    +0.000 A 
ATOM     20  C   UNL     1       1.169  12.465  19.640  0.00  0.00    +0.000 A 
ATOM     21  C   UNL     1       0.809  12.031  20.913  0.00  0.00    +0.000 A 
ATOM     22  C   UNL     1       0.595  10.668  21.150  0.00  0.00    +0.000 A 
ATOM     23  C   UNL     1       0.735   9.746  20.108  0.00  0.00    +0.000 A 
BRANCH  22  24
ATOM     24  C   UNL     1       0.221  10.224  22.454  0.00  0.00    +0.000 C 
ATOM     25  N   UNL     1      -0.080   9.859  23.515  0.00  0.00    +0.000 NA
ENDBRANCH  22  24
ENDBRANCH  17  18
ENDBRANCH  16  17
ENDBRANCH  15  16
ENDBRANCH   3  15
TORSDOF 7
ENDMDL
MODEL 6
REMARK VINA RESULT:      -7.4      1.356      2.178
REMARK  Name = 
REMARK  9 active torsions:
REMARK  status: ('A' for Active; 'I' for Inactive)
REMARK    1  A    between atoms: C_1  and  C_2
REMARK    2  A    between atoms: C_4  and  C_5
REMARK    3  A    between atoms: N_6  and  C_7
REMARK    4  A    between atoms: C_7  and  C_8
REMARK    5  A    between atoms: N_10  and  C_11
REMARK    6  A    between atoms: C_11  and  C_12
REMARK    7  A    between atoms: C_12  and  O_13
REMARK    8  A    between atoms: O_13  and  C_14
REMARK    9  A    between atoms: C_18  and  C_19
REMARK                            x       y       z     vdW  Elec       q    Type
REMARK                         _______ _______ _______ _____ _____    ______ ____
ROOT
ATOM      1  C   UNL     1       4.598   4.182  18.452  0.00  0.00    +0.000 C 
ATOM      2  C   UNL     1       4.064   5.229  19.454  0.00  0.00    +0.000 C 
ATOM      3  N   UNL     1       2.586   5.332  19.458  0.00  0.00    +0.000 NA
ATOM      4  C   UNL     1       2.047   3.969  19.680  0.00  0.00    +0.000 C 
ATOM      5  C   UNL     1       2.586   2.937  18.681  0.00  0.00    +0.000 C 
ATOM      6  O   UNL     1       4.016   2.892  18.739  0.00  0.00    +0.000 OA
ENDROOT
BRANCH   1   7
ATOM      7  C   UNL     1       6.115   4.074  18.574  0.00  0.00    +0.000 C 
BRANCH   7  13
ATOM      8  C   UNL     1       8.110   8.408  17.853  0.00  0.00    +0.000 C 
ATOM      9  C   UNL     1       7.600   7.048  17.593  0.00  0.00    +0.000 A 
ATOM     10  N   UNL     1       7.456   6.538  16.329  0.00  0.00    +0.000 NA
ATOM     11  C   UNL     1       6.926   5.347  16.536  0.00  0.00    +0.000 A 
ATOM     12  C   UNL     1       6.528   4.351  15.514  0.00  0.00    +0.000 C 
ATOM     13  N   UNL     1       6.760   5.171  17.881  0.00  0.00    +0.000 N 
ATOM     14  N   UNL     1       7.209   6.232  18.577  0.00  0.00    +0.000 NA
ENDBRANCH   7  13
ENDBRANCH   1   7
BRANCH   3  15
ATOM     15  C   UNL     1       2.104   5.956  18.206  0.00  0.00    +0.000 C 
BRANCH  15  16
ATOM     16  C   UNL     1       2.383   7.459  18.139  0.00  0.00    +0.000 C 
BRANCH  16  17
ATOM     17  O   UNL     1       2.169   8.045  19.423  0.00  0.00    +0.000 OA
BRANCH  17  18
ATOM     18  C   UNL     1       1.211   9.026  19.458  0.00  0.00    +0.000 A 
ATOM     19  C   UNL     1       0.642   9.644  18.339  0.00  0.00    +0.000 A 
ATOM     20  C   UNL     1      -0.342  10.620  18.495  0.00  0.00    +0.000 A 
ATOM     21  C   UNL     1      -0.765  10.983  19.771  0.00  0.00    +0.000 A 
ATOM     22  C   UNL     1      -0.194  10.373  20.894  0.00  0.00    +0.000 A 
ATOM     23  C   UNL     1       0.794   9.398  20.735  0.00  0.00    +0.000 A 
BRANCH  22  24
ATOM     24  C   UNL     1      -0.632  10.743  22.203  0.00  0.00    +0.000 C 
ATOM     25  N   UNL     1      -0.983  11.042  23.268  0.00  0.00    +0.000 NA
ENDBRANCH  22  24
ENDBRANCH  17  18
ENDBRANCH  16  17
ENDBRANCH  15  16
ENDBRANCH   3  15
TORSDOF 7
ENDMDL
MODEL 7
REMARK VINA RESULT:      -7.3      1.588      2.378
REMARK  Name = 
REMARK  9 active torsions:
REMARK  status: ('A' for Active; 'I' for Inactive)
REMARK    1  A    between atoms: C_1  and  C_2
REMARK    2  A    between atoms: C_4  and  C_5
REMARK    3  A    between atoms: N_6  and  C_7
REMARK    4  A    between atoms: C_7  and  C_8
REMARK    5  A    between atoms: N_10  and  C_11
REMARK    6  A    between atoms: C_11  and  C_12
REMARK    7  A    between atoms: C_12  and  O_13
REMARK    8  A    between atoms: O_13  and  C_14
REMARK    9  A    between atoms: C_18  and  C_19
REMARK                            x       y       z     vdW  Elec       q    Type
REMARK                         _______ _______ _______ _____ _____    ______ ____
ROOT
ATOM      1  C   UNL     1       4.114   4.647  18.375  0.00  0.00    +0.000 C 
ATOM      2  C   UNL     1       3.800   5.306  19.736  0.00  0.00    +0.000 C 
ATOM      3  N   UNL     1       2.362   5.604  19.922  0.00  0.00    +0.000 NA
ATOM      4  C   UNL     1       1.614   4.346  19.685  0.00  0.00    +0.000 C 
ATOM      5  C   UNL     1       1.934   3.699  18.332  0.00  0.00    +0.000 C 
ATOM      6  O   UNL     1       3.338   3.437  18.229  0.00  0.00    +0.000 OA
ENDROOT
BRANCH   1   7
ATOM      7  C   UNL     1       5.596   4.291  18.300  0.00  0.00    +0.000 C 
BRANCH   7  13
ATOM      8  C   UNL     1       6.642   4.010  13.598  0.00  0.00    +0.000 C 
ATOM      9  C   UNL     1       6.592   4.505  14.988  0.00  0.00    +0.000 A 
ATOM     10  N   UNL     1       7.373   5.537  15.437  0.00  0.00    +0.000 NA
ATOM     11  C   UNL     1       7.069   5.619  16.718  0.00  0.00    +0.000 A 
ATOM     12  C   UNL     1       7.636   6.552  17.718  0.00  0.00    +0.000 C 
ATOM     13  N   UNL     1       6.142   4.657  17.009  0.00  0.00    +0.000 N 
ATOM     14  N   UNL     1       5.801   3.953  15.913  0.00  0.00    +0.000 NA
ENDBRANCH   7  13
ENDBRANCH   1   7
BRANCH   3  15
ATOM     15  C   UNL     1       1.940   6.711  19.036  0.00  0.00    +0.000 C 
BRANCH  15  16
ATOM     16  C   UNL     1       1.943   8.072  19.735  0.00  0.00    +0.000 C 
BRANCH  16  17
ATOM     17  O   UNL     1       1.351   7.950  21.029  0.00  0.00    +0.000 OA
BRANCH  17  18
ATOM     18  C   UNL     1       0.622   9.037  21.437  0.00  0.00    +0.000 A 
ATOM     19  C   UNL     1       0.048   9.201  22.702  0.00  0.00    +0.000 A 
ATOM     20  C   UNL     1      -0.659  10.361  23.013  0.00  0.00    +0.000 A 
ATOM     21  C   UNL     1      -0.796  11.368  22.060  0.00  0.00    +0.000 A 
ATOM     22  C   UNL     1      -0.230  11.207  20.790  0.00  0.00    +0.000 A 
ATOM     23  C   UNL     1       0.476  10.040  20.481  0.00  0.00    +0.000 A 
BRANCH  22  24
ATOM     24  C   UNL     1      -0.366  12.241  19.815  0.00  0.00    +0.000 C 
ATOM     25  N   UNL     1      -0.480  13.084  19.025  0.00  0.00    +0.000 NA
ENDBRANCH  22  24
ENDBRANCH  17  18
ENDBRANCH  16  17
ENDBRANCH  15  16
ENDBRANCH   3  15
TORSDOF 7
ENDMDL
MODEL 8
REMARK VINA RESULT:      -7.2      2.597      3.269
REMARK  Name = 
REMARK  9 active torsions:
REMARK  status: ('A' for Active; 'I' for Inactive)
REMARK    1  A    between atoms: C_1  and  C_2
REMARK    2  A    between atoms: C_4  and  C_5
REMARK    3  A    between atoms: N_6  and  C_7
REMARK    4  A    between atoms: C_7  and  C_8
REMARK    5  A    between atoms: N_10  and  C_11
REMARK    6  A    between atoms: C_11  and  C_12
REMARK    7  A    between atoms: C_12  and  O_13
REMARK    8  A    between atoms: O_13  and  C_14
REMARK    9  A    between atoms: C_18  and  C_19
REMARK                            x       y       z     vdW  Elec       q    Type
REMARK                         _______ _______ _______ _____ _____    ______ ____
ROOT
ATOM      1  C   UNL     1       4.051   4.806  17.761  0.00  0.00    +0.000 C 
ATOM      2  C   UNL     1       4.144   5.686  19.027  0.00  0.00    +0.000 C 
ATOM      3  N   UNL     1       2.873   6.374  19.354  0.00  0.00    +0.000 NA
ATOM      4  C   UNL     1       1.815   5.339  19.428  0.00  0.00    +0.000 C 
ATOM      5  C   UNL     1       1.732   4.469  18.167  0.00  0.00    +0.000 C 
ATOM      6  O   UNL     1       2.993   3.836  17.920  0.00  0.00    +0.000 OA
ENDROOT
BRANCH   1   7
ATOM      7  C   UNL     1       5.368   4.065  17.547  0.00  0.00    +0.000 C 
BRANCH   7  13
ATOM      8  C   UNL     1       6.770   3.975  12.931  0.00  0.00    +0.000 C 
ATOM      9  C   UNL     1       6.599   4.422  14.327  0.00  0.00    +0.000 A 
ATOM     10  N   UNL     1       7.308   5.464  14.866  0.00  0.00    +0.000 NA
ATOM     11  C   UNL     1       6.906   5.492  16.122  0.00  0.00    +0.000 A 
ATOM     12  C   UNL     1       7.364   6.410  17.191  0.00  0.00    +0.000 C 
ATOM     13  N   UNL     1       5.994   4.492  16.312  0.00  0.00    +0.000 N 
ATOM     14  N   UNL     1       5.761   3.814  15.173  0.00  0.00    +0.000 NA
ENDBRANCH   7  13
ENDBRANCH   1   7
BRANCH   3  15
ATOM     15  C   UNL     1       2.586   7.436  18.365  0.00  0.00    +0.000 C 
BRANCH  15  16
ATOM     16  C   UNL     1       1.821   8.619  18.960  0.00  0.00    +0.000 C 
BRANCH  16  17
ATOM     17  O   UNL     1       0.994   9.211  17.957  0.00  0.00    +0.000 OA
BRANCH  17  18
ATOM     18  C   UNL     1       0.009  10.037  18.433  0.00  0.00    +0.000 A 
ATOM     19  C   UNL     1       0.059  10.750  19.636  0.00  0.00    +0.000 A 
ATOM     20  C   UNL     1      -0.998  11.578  20.012  0.00  0.00    +0.000 A 
ATOM     21  C   UNL     1      -2.113  11.700  19.187  0.00  0.00    +0.000 A 
ATOM     22  C   UNL     1      -2.172  10.983  17.985  0.00  0.00    +0.000 A 
ATOM     23  C   UNL     1      -1.112  10.151  17.613  0.00  0.00    +0.000 A 
BRANCH  22  24
ATOM     24  C   UNL     1      -3.314  11.112  17.137  0.00  0.00    +0.000 C 
ATOM     25  N   UNL     1      -4.242  11.212  16.446  0.00  0.00    +0.000 NA
ENDBRANCH  22  24
ENDBRANCH  17  18
ENDBRANCH  16  17
ENDBRANCH  15  16
ENDBRANCH   3  15
TORSDOF 7
ENDMDL
MODEL 9
REMARK VINA RESULT:      -7.2      4.155      6.980
REMARK  Name = 
REMARK  9 active torsions:
REMARK  status: ('A' for Active; 'I' for Inactive)
REMARK    1  A    between atoms: C_1  and  C_2
REMARK    2  A    between atoms: C_4  and  C_5
REMARK    3  A    between atoms: N_6  and  C_7
REMARK    4  A    between atoms: C_7  and  C_8
REMARK    5  A    between atoms: N_10  and  C_11
REMARK    6  A    between atoms: C_11  and  C_12
REMARK    7  A    between atoms: C_12  and  O_13
REMARK    8  A    between atoms: O_13  and  C_14
REMARK    9  A    between atoms: C_18  and  C_19
REMARK                            x       y       z     vdW  Elec       q    Type
REMARK                         _______ _______ _______ _____ _____    ______ ____
ROOT
ATOM      1  C   UNL     1       4.832   5.501  17.508  0.00  0.00    +0.000 C 
ATOM      2  C   UNL     1       5.263   6.720  16.663  0.00  0.00    +0.000 C 
ATOM      3  N   UNL     1       6.722   6.773  16.416  0.00  0.00    +0.000 NA
ATOM      4  C   UNL     1       7.118   5.471  15.825  0.00  0.00    +0.000 C 
ATOM      5  C   UNL     1       6.684   4.268  16.671  0.00  0.00    +0.000 C 
ATOM      6  O   UNL     1       5.265   4.284  16.862  0.00  0.00    +0.000 OA
ENDROOT
BRANCH   1   7
ATOM      7  C   UNL     1       3.312   5.473  17.640  0.00  0.00    +0.000 C 
BRANCH   7  13
ATOM      8  C   UNL     1       2.229   2.725  21.456  0.00  0.00    +0.000 C 
ATOM      9  C   UNL     1       2.449   3.918  20.615  0.00  0.00    +0.000 A 
ATOM     10  N   UNL     1       2.076   5.179  21.001  0.00  0.00    +0.000 NA
ATOM     11  C   UNL     1       2.391   5.925  19.960  0.00  0.00    +0.000 A 
ATOM     12  C   UNL     1       2.185   7.384  19.805  0.00  0.00    +0.000 C 
ATOM     13  N   UNL     1       2.926   5.122  18.992  0.00  0.00    +0.000 N 
ATOM     14  N   UNL     1       2.999   3.841  19.399  0.00  0.00    +0.000 NA
ENDBRANCH   7  13
ENDBRANCH   1   7
BRANCH   3  15
ATOM     15  C   UNL     1       7.451   7.096  17.662  0.00  0.00    +0.000 C 
BRANCH  15  16
ATOM     16  C   UNL     1       7.835   8.574  17.765  0.00  0.00    +0.000 C 
BRANCH  16  17
ATOM     17  O   UNL     1       8.783   8.751  18.819  0.00  0.00    +0.000 OA
BRANCH  17  18
ATOM     18  C   UNL     1       9.246  10.033  18.969  0.00  0.00    +0.000 A 
ATOM     19  C   UNL     1       9.896  10.782  17.981  0.00  0.00    +0.000 A 
ATOM     20  C   UNL     1      10.308  12.088  18.241  0.00  0.00    +0.000 A 
ATOM     21  C   UNL     1      10.073  12.656  19.491  0.00  0.00    +0.000 A 
ATOM     22  C   UNL     1       9.431  11.909  20.486  0.00  0.00    +0.000 A 
ATOM     23  C   UNL     1       9.021  10.598  20.222  0.00  0.00    +0.000 A 
BRANCH  22  24
ATOM     24  C   UNL     1       9.185  12.492  21.766  0.00  0.00    +0.000 C 
ATOM     25  N   UNL     1       8.984  12.970  22.805  0.00  0.00    +0.000 NA
ENDBRANCH  22  24
ENDBRANCH  17  18
ENDBRANCH  16  17
ENDBRANCH  15  16
ENDBRANCH   3  15
TORSDOF 7
ENDMDL
