MODEL 1
REMARK VINA RESULT:      -7.8      0.000      0.000
REMARK  Name = 
REMARK  5 active torsions:
REMARK  status: ('A' for Active; 'I' for Inactive)
REMARK    1  A    between atoms: C_1  and  O_2
REMARK    2  A    between atoms: O_2  and  C_3
REMARK    3  A    between atoms: C_3  and  C_5
REMARK    4  A    between atoms: C_6  and  C_7
REMARK    5  A    between atoms: C_16  and  C_17
REMARK                            x       y       z     vdW  Elec       q    Type
REMARK                         _______ _______ _______ _____ _____    ______ ____
ROOT
ATOM      1  C   UNL     1       5.996   5.392  17.592  0.00  0.00    +0.000 A 
ATOM      2  C   UNL     1       7.076   6.156  17.132  0.00  0.00    +0.000 A 
ATOM      3  C   UNL     1       7.849   7.146  17.959  0.00  0.00    +0.000 C 
ATOM      4  N   UNL     1       7.529   6.074  15.860  0.00  0.00    +0.000 NA
ATOM      5  C   UNL     1       6.944   5.239  15.006  0.00  0.00    +0.000 A 
ATOM      6  C   UNL     1       7.502   5.184  13.734  0.00  0.00    +0.000 A 
ATOM      7  C   UNL     1       7.001   4.345  12.743  0.00  0.00    +0.000 A 
ATOM      8  C   UNL     1       5.884   3.581  13.020  0.00  0.00    +0.000 A 
ATOM      9 CL   UNL     1       5.253   2.522  11.822  0.00  0.00    +0.000 Cl
ATOM     10  C   UNL     1       5.281   3.656  14.278  0.00  0.00    +0.000 A 
ATOM     11  C   UNL     1       5.824   4.441  15.338  0.00  0.00    +0.000 A 
ATOM     12  C   UNL     1       5.336   4.501  16.698  0.00  0.00    +0.000 A 
ENDROOT
BRANCH  12  13
ATOM     13  C   UNL     1       4.174   3.655  17.141  0.00  0.00    +0.000 A 
ATOM     14  C   UNL     1       2.841   4.090  16.993  0.00  0.00    +0.000 A 
ATOM     15  C   UNL     1       1.758   3.360  17.499  0.00  0.00    +0.000 A 
ATOM     16  C   UNL     1       1.969   2.117  18.080  0.00  0.00    +0.000 A 
ATOM     17  C   UNL     1       3.264   1.620  18.174  0.00  0.00    +0.000 A 
ATOM     18  C   UNL     1       4.351   2.393  17.743  0.00  0.00    +0.000 A 
ENDBRANCH  12  13
BRANCH   1  19
ATOM     19  C   UNL     1       5.647   5.468  19.029  0.00  0.00    +0.000 C 
ATOM     20  O   UNL     1       6.286   4.929  19.911  0.00  0.00    +0.000 OA
BRANCH  19  22
ATOM     21  C   UNL     1       3.469   5.641  19.931  0.00  0.00    +0.000 C 
ATOM     22  O   UNL     1       4.534   6.232  19.175  0.00  0.00    +0.000 OA
ENDBRANCH  19  22
ENDBRANCH   1  19
TORSDOF 3
ENDMDL
MODEL 2
REMARK VINA RESULT:      -7.7      3.193      5.135
REMARK  Name = 
REMARK  5 active torsions:
REMARK  status: ('A' for Active; 'I' for Inactive)
REMARK    1  A    between atoms: C_1  and  O_2
REMARK    2  A    between atoms: O_2  and  C_3
REMARK    3  A    between atoms: C_3  and  C_5
REMARK    4  A    between atoms: C_6  and  C_7
REMARK    5  A    between atoms: C_16  and  C_17
REMARK                            x       y       z     vdW  Elec       q    Type
REMARK                         _______ _______ _______ _____ _____    ______ ____
ROOT
ATOM      1  C   UNL     1       2.963   4.481  18.073  0.00  0.00    +0.000 A 
ATOM      2  C   UNL     1       3.783   3.395  17.743  0.00  0.00    +0.000 A 
ATOM      3  C   UNL     1       3.327   1.967  17.643  0.00  0.00    +0.000 C 
ATOM      4  N   UNL     1       5.103   3.540  17.483  0.00  0.00    +0.000 NA
ATOM      5  C   UNL     1       5.655   4.749  17.532  0.00  0.00    +0.000 A 
ATOM      6  C   UNL     1       7.005   4.813  17.206  0.00  0.00    +0.000 A 
ATOM      7  C   UNL     1       7.707   6.014  17.203  0.00  0.00    +0.000 A 
ATOM      8  C   UNL     1       7.054   7.170  17.583  0.00  0.00    +0.000 A 
ATOM      9 CL   UNL     1       7.890   8.671  17.572  0.00  0.00    +0.000 Cl
ATOM     10  C   UNL     1       5.708   7.119  17.958  0.00  0.00    +0.000 A 
ATOM     11  C   UNL     1       4.942   5.918  17.888  0.00  0.00    +0.000 A 
ATOM     12  C   UNL     1       3.526   5.788  18.151  0.00  0.00    +0.000 A 
ENDROOT
BRANCH  12  13
ATOM     13  C   UNL     1       2.689   6.989  18.498  0.00  0.00    +0.000 A 
ATOM     14  C   UNL     1       2.260   7.903  17.513  0.00  0.00    +0.000 A 
ATOM     15  C   UNL     1       1.575   9.080  17.838  0.00  0.00    +0.000 A 
ATOM     16  C   UNL     1       1.203   9.328  19.152  0.00  0.00    +0.000 A 
ATOM     17  C   UNL     1       1.541   8.410  20.140  0.00  0.00    +0.000 A 
ATOM     18  C   UNL     1       2.302   7.276  19.822  0.00  0.00    +0.000 A 
ENDBRANCH  12  13
BRANCH   1  19
ATOM     19  C   UNL     1       1.510   4.240  18.228  0.00  0.00    +0.000 C 
ATOM     20  O   UNL     1       0.740   4.121  17.296  0.00  0.00    +0.000 OA
BRANCH  19  22
ATOM     21  C   UNL     1       0.859   2.859  20.033  0.00  0.00    +0.000 C 
ATOM     22  O   UNL     1       1.213   4.162  19.550  0.00  0.00    +0.000 OA
ENDBRANCH  19  22
ENDBRANCH   1  19
TORSDOF 3
ENDMDL
MODEL 3
REMARK VINA RESULT:      -7.6      3.485      6.120
REMARK  Name = 
REMARK  5 active torsions:
REMARK  status: ('A' for Active; 'I' for Inactive)
REMARK    1  A    between atoms: C_1  and  O_2
REMARK    2  A    between atoms: O_2  and  C_3
REMARK    3  A    between atoms: C_3  and  C_5
REMARK    4  A    between atoms: C_6  and  C_7
REMARK    5  A    between atoms: C_16  and  C_17
REMARK                            x       y       z     vdW  Elec       q    Type
REMARK                         _______ _______ _______ _____ _____    ______ ____
ROOT
ATOM      1  C   UNL     1       3.346   3.460  19.656  0.00  0.00    +0.000 A 
ATOM      2  C   UNL     1       2.401   3.581  20.682  0.00  0.00    +0.000 A 
ATOM      3  C   UNL     1       1.993   2.476  21.616  0.00  0.00    +0.000 C 
ATOM      4  N   UNL     1       1.745   4.739  20.927  0.00  0.00    +0.000 NA
ATOM      5  C   UNL     1       1.999   5.810  20.180  0.00  0.00    +0.000 A 
ATOM      6  C   UNL     1       1.315   6.969  20.530  0.00  0.00    +0.000 A 
ATOM      7  C   UNL     1       1.494   8.167  19.844  0.00  0.00    +0.000 A 
ATOM      8  C   UNL     1       2.340   8.191  18.753  0.00  0.00    +0.000 A 
ATOM      9 CL   UNL     1       2.594   9.660  17.898  0.00  0.00    +0.000 Cl
ATOM     10  C   UNL     1       3.001   7.025  18.358  0.00  0.00    +0.000 A 
ATOM     11  C   UNL     1       2.904   5.807  19.093  0.00  0.00    +0.000 A 
ATOM     12  C   UNL     1       3.629   4.584  18.827  0.00  0.00    +0.000 A 
ENDROOT
BRANCH  12  13
ATOM     13  C   UNL     1       4.638   4.509  17.713  0.00  0.00    +0.000 A 
ATOM     14  C   UNL     1       6.001   4.802  17.926  0.00  0.00    +0.000 A 
ATOM     15  C   UNL     1       6.927   4.842  16.877  0.00  0.00    +0.000 A 
ATOM     16  C   UNL     1       6.538   4.484  15.593  0.00  0.00    +0.000 A 
ATOM     17  C   UNL     1       5.219   4.114  15.359  0.00  0.00    +0.000 A 
ATOM     18  C   UNL     1       4.277   4.160  16.397  0.00  0.00    +0.000 A 
ENDBRANCH  12  13
BRANCH   1  19
ATOM     19  C   UNL     1       4.093   2.187  19.539  0.00  0.00    +0.000 C 
ATOM     20  O   UNL     1       3.784   1.288  18.783  0.00  0.00    +0.000 OA
BRANCH  19  22
ATOM     21  C   UNL     1       5.372   1.023  21.150  0.00  0.00    +0.000 C 
ATOM     22  O   UNL     1       5.153   2.217  20.386  0.00  0.00    +0.000 OA
ENDBRANCH  19  22
ENDBRANCH   1  19
TORSDOF 3
ENDMDL
MODEL 4
REMARK VINA RESULT:      -7.6      3.405      6.032
REMARK  Name = 
REMARK  5 active torsions:
REMARK  status: ('A' for Active; 'I' for Inactive)
REMARK    1  A    between atoms: C_1  and  O_2
REMARK    2  A    between atoms: O_2  and  C_3
REMARK    3  A    between atoms: C_3  and  C_5
REMARK    4  A    between atoms: C_6  and  C_7
REMARK    5  A    between atoms: C_16  and  C_17
REMARK                            x       y       z     vdW  Elec       q    Type
REMARK                         _______ _______ _______ _____ _____    ______ ____
ROOT
ATOM      1  C   UNL     1       3.484   3.636  19.752  0.00  0.00    +0.000 A 
ATOM      2  C   UNL     1       2.539   3.746  20.778  0.00  0.00    +0.000 A 
ATOM      3  C   UNL     1       2.178   2.651  21.742  0.00  0.00    +0.000 C 
ATOM      4  N   UNL     1       1.838   4.883  20.995  0.00  0.00    +0.000 NA
ATOM      5  C   UNL     1       2.046   5.943  20.219  0.00  0.00    +0.000 A 
ATOM      6  C   UNL     1       1.318   7.083  20.541  0.00  0.00    +0.000 A 
ATOM      7  C   UNL     1       1.445   8.268  19.824  0.00  0.00    +0.000 A 
ATOM      8  C   UNL     1       2.286   8.297  18.728  0.00  0.00    +0.000 A 
ATOM      9 CL   UNL     1       2.479   9.751  17.833  0.00  0.00    +0.000 Cl
ATOM     10  C   UNL     1       2.993   7.148  18.362  0.00  0.00    +0.000 A 
ATOM     11  C   UNL     1       2.947   5.947  19.129  0.00  0.00    +0.000 A 
ATOM     12  C   UNL     1       3.720   4.748  18.891  0.00  0.00    +0.000 A 
ENDROOT
BRANCH  12  13
ATOM     13  C   UNL     1       4.727   4.684  17.776  0.00  0.00    +0.000 A 
ATOM     14  C   UNL     1       4.357   4.330  16.462  0.00  0.00    +0.000 A 
ATOM     15  C   UNL     1       5.301   4.161  15.442  0.00  0.00    +0.000 A 
ATOM     16  C   UNL     1       6.639   4.445  15.680  0.00  0.00    +0.000 A 
ATOM     17  C   UNL     1       7.031   4.871  16.944  0.00  0.00    +0.000 A 
ATOM     18  C   UNL     1       6.094   4.955  17.983  0.00  0.00    +0.000 A 
ENDBRANCH  12  13
BRANCH   1  19
ATOM     19  C   UNL     1       4.282   2.391  19.665  0.00  0.00    +0.000 C 
ATOM     20  O   UNL     1       5.154   2.089  20.455  0.00  0.00    +0.000 OA
BRANCH  19  22
ATOM     21  C   UNL     1       2.447   1.645  18.375  0.00  0.00    +0.000 C 
ATOM     22  O   UNL     1       3.864   1.671  18.592  0.00  0.00    +0.000 OA
ENDBRANCH  19  22
ENDBRANCH   1  19
TORSDOF 3
ENDMDL
MODEL 5
REMARK VINA RESULT:      -7.6      3.397      6.070
REMARK  Name = 
REMARK  5 active torsions:
REMARK  status: ('A' for Active; 'I' for Inactive)
REMARK    1  A    between atoms: C_1  and  O_2
REMARK    2  A    between atoms: O_2  and  C_3
REMARK    3  A    between atoms: C_3  and  C_5
REMARK    4  A    between atoms: C_6  and  C_7
REMARK    5  A    between atoms: C_16  and  C_17
REMARK                            x       y       z     vdW  Elec       q    Type
REMARK                         _______ _______ _______ _____ _____    ______ ____
ROOT
ATOM      1  C   UNL     1       3.494   3.625  19.761  0.00  0.00    +0.000 A 
ATOM      2  C   UNL     1       2.549   3.741  20.787  0.00  0.00    +0.000 A 
ATOM      3  C   UNL     1       2.184   2.650  21.754  0.00  0.00    +0.000 C 
ATOM      4  N   UNL     1       1.852   4.882  21.001  0.00  0.00    +0.000 NA
ATOM      5  C   UNL     1       2.065   5.938  20.223  0.00  0.00    +0.000 A 
ATOM      6  C   UNL     1       1.341   7.082  20.541  0.00  0.00    +0.000 A 
ATOM      7  C   UNL     1       1.474   8.265  19.820  0.00  0.00    +0.000 A 
ATOM      8  C   UNL     1       2.315   8.288  18.726  0.00  0.00    +0.000 A 
ATOM      9 CL   UNL     1       2.514   9.739  17.827  0.00  0.00    +0.000 Cl
ATOM     10  C   UNL     1       3.018   7.135  18.362  0.00  0.00    +0.000 A 
ATOM     11  C   UNL     1       2.966   5.936  19.132  0.00  0.00    +0.000 A 
ATOM     12  C   UNL     1       3.735   4.733  18.898  0.00  0.00    +0.000 A 
ENDROOT
BRANCH  12  13
ATOM     13  C   UNL     1       4.742   4.662  17.784  0.00  0.00    +0.000 A 
ATOM     14  C   UNL     1       6.098   4.991  17.988  0.00  0.00    +0.000 A 
ATOM     15  C   UNL     1       7.021   5.033  16.936  0.00  0.00    +0.000 A 
ATOM     16  C   UNL     1       6.638   4.645  15.659  0.00  0.00    +0.000 A 
ATOM     17  C   UNL     1       5.327   4.240  15.435  0.00  0.00    +0.000 A 
ATOM     18  C   UNL     1       4.386   4.282  16.474  0.00  0.00    +0.000 A 
ENDBRANCH  12  13
BRANCH   1  19
ATOM     19  C   UNL     1       4.287   2.377  19.678  0.00  0.00    +0.000 C 
ATOM     20  O   UNL     1       5.131   2.055  20.491  0.00  0.00    +0.000 OA
BRANCH  19  22
ATOM     21  C   UNL     1       2.490   1.660  18.320  0.00  0.00    +0.000 C 
ATOM     22  O   UNL     1       3.901   1.679  18.580  0.00  0.00    +0.000 OA
ENDBRANCH  19  22
ENDBRANCH   1  19
TORSDOF 3
ENDMDL
MODEL 6
REMARK VINA RESULT:      -7.6      3.175      5.169
REMARK  Name = 
REMARK  5 active torsions:
REMARK  status: ('A' for Active; 'I' for Inactive)
REMARK    1  A    between atoms: C_1  and  O_2
REMARK    2  A    between atoms: O_2  and  C_3
REMARK    3  A    between atoms: C_3  and  C_5
REMARK    4  A    between atoms: C_6  and  C_7
REMARK    5  A    between atoms: C_16  and  C_17
REMARK                            x       y       z     vdW  Elec       q    Type
REMARK                         _______ _______ _______ _____ _____    ______ ____
ROOT
ATOM      1  C   UNL     1       2.967   4.564  17.959  0.00  0.00    +0.000 A 
ATOM      2  C   UNL     1       3.765   3.478  17.582  0.00  0.00    +0.000 A 
ATOM      3  C   UNL     1       3.285   2.061  17.439  0.00  0.00    +0.000 C 
ATOM      4  N   UNL     1       5.085   3.611  17.312  0.00  0.00    +0.000 NA
ATOM      5  C   UNL     1       5.656   4.809  17.398  0.00  0.00    +0.000 A 
ATOM      6  C   UNL     1       7.004   4.863  17.059  0.00  0.00    +0.000 A 
ATOM      7  C   UNL     1       7.725   6.053  17.090  0.00  0.00    +0.000 A 
ATOM      8  C   UNL     1       7.094   7.204  17.517  0.00  0.00    +0.000 A 
ATOM      9 CL   UNL     1       7.955   8.692  17.549  0.00  0.00    +0.000 Cl
ATOM     10  C   UNL     1       5.752   7.161  17.905  0.00  0.00    +0.000 A 
ATOM     11  C   UNL     1       4.967   5.976  17.802  0.00  0.00    +0.000 A 
ATOM     12  C   UNL     1       3.551   5.859  18.077  0.00  0.00    +0.000 A 
ENDROOT
BRANCH  12  13
ATOM     13  C   UNL     1       2.738   7.059  18.475  0.00  0.00    +0.000 A 
ATOM     14  C   UNL     1       2.344   7.279  19.811  0.00  0.00    +0.000 A 
ATOM     15  C   UNL     1       1.496   8.332  20.175  0.00  0.00    +0.000 A 
ATOM     16  C   UNL     1       1.100   9.265  19.225  0.00  0.00    +0.000 A 
ATOM     17  C   UNL     1       1.532   9.125  17.911  0.00  0.00    +0.000 A 
ATOM     18  C   UNL     1       2.310   8.020  17.537  0.00  0.00    +0.000 A 
ENDBRANCH  12  13
BRANCH   1  19
ATOM     19  C   UNL     1       1.512   4.340  18.123  0.00  0.00    +0.000 C 
ATOM     20  O   UNL     1       0.725   4.299  17.198  0.00  0.00    +0.000 OA
BRANCH  19  22
ATOM     21  C   UNL     1       0.747   2.885  19.822  0.00  0.00    +0.000 C 
ATOM     22  O   UNL     1       1.234   4.179  19.442  0.00  0.00    +0.000 OA
ENDBRANCH  19  22
ENDBRANCH   1  19
TORSDOF 3
ENDMDL
MODEL 7
REMARK VINA RESULT:      -7.5      3.485      6.068
REMARK  Name = 
REMARK  5 active torsions:
REMARK  status: ('A' for Active; 'I' for Inactive)
REMARK    1  A    between atoms: C_1  and  O_2
REMARK    2  A    between atoms: O_2  and  C_3
REMARK    3  A    between atoms: C_3  and  C_5
REMARK    4  A    between atoms: C_6  and  C_7
REMARK    5  A    between atoms: C_16  and  C_17
REMARK                            x       y       z     vdW  Elec       q    Type
REMARK                         _______ _______ _______ _____ _____    ______ ____
ROOT
ATOM      1  C   UNL     1       3.338   3.495  19.632  0.00  0.00    +0.000 A 
ATOM      2  C   UNL     1       2.369   3.611  20.635  0.00  0.00    +0.000 A 
ATOM      3  C   UNL     1       1.947   2.505  21.562  0.00  0.00    +0.000 C 
ATOM      4  N   UNL     1       1.699   4.765  20.862  0.00  0.00    +0.000 NA
ATOM      5  C   UNL     1       1.963   5.836  20.119  0.00  0.00    +0.000 A 
ATOM      6  C   UNL     1       1.263   6.991  20.450  0.00  0.00    +0.000 A 
ATOM      7  C   UNL     1       1.449   8.188  19.766  0.00  0.00    +0.000 A 
ATOM      8  C   UNL     1       2.320   8.216  18.695  0.00  0.00    +0.000 A 
ATOM      9 CL   UNL     1       2.584   9.685  17.842  0.00  0.00    +0.000 Cl
ATOM     10  C   UNL     1       2.999   7.054  18.318  0.00  0.00    +0.000 A 
ATOM     11  C   UNL     1       2.893   5.837  19.054  0.00  0.00    +0.000 A 
ATOM     12  C   UNL     1       3.633   4.619  18.807  0.00  0.00    +0.000 A 
ENDROOT
BRANCH  12  13
ATOM     13  C   UNL     1       4.668   4.549  17.718  0.00  0.00    +0.000 A 
ATOM     14  C   UNL     1       4.333   4.181  16.399  0.00  0.00    +0.000 A 
ATOM     15  C   UNL     1       5.303   4.007  15.404  0.00  0.00    +0.000 A 
ATOM     16  C   UNL     1       6.634   4.299  15.673  0.00  0.00    +0.000 A 
ATOM     17  C   UNL     1       6.991   4.739  16.942  0.00  0.00    +0.000 A 
ATOM     18  C   UNL     1       6.029   4.829  17.957  0.00  0.00    +0.000 A 
ENDBRANCH  12  13
BRANCH   1  19
ATOM     19  C   UNL     1       4.098   2.227  19.536  0.00  0.00    +0.000 C 
ATOM     20  O   UNL     1       3.835   1.339  18.749  0.00  0.00    +0.000 OA
BRANCH  19  22
ATOM     21  C   UNL     1       5.289   1.042  21.198  0.00  0.00    +0.000 C 
ATOM     22  O   UNL     1       5.110   2.247  20.440  0.00  0.00    +0.000 OA
ENDBRANCH  19  22
ENDBRANCH   1  19
TORSDOF 3
ENDMDL
MODEL 8
REMARK VINA RESULT:      -7.5      0.071      1.024
REMARK  Name = 
REMARK  5 active torsions:
REMARK  status: ('A' for Active; 'I' for Inactive)
REMARK    1  A    between atoms: C_1  and  O_2
REMARK    2  A    between atoms: O_2  and  C_3
REMARK    3  A    between atoms: C_3  and  C_5
REMARK    4  A    between atoms: C_6  and  C_7
REMARK    5  A    between atoms: C_16  and  C_17
REMARK                            x       y       z     vdW  Elec       q    Type
REMARK                         _______ _______ _______ _____ _____    ______ ____
ROOT
ATOM      1  C   UNL     1       6.034   5.427  17.622  0.00  0.00    +0.000 A 
ATOM      2  C   UNL     1       7.113   6.186  17.153  0.00  0.00    +0.000 A 
ATOM      3  C   UNL     1       7.891   7.179  17.971  0.00  0.00    +0.000 C 
ATOM      4  N   UNL     1       7.561   6.096  15.880  0.00  0.00    +0.000 NA
ATOM      5  C   UNL     1       6.971   5.258  15.033  0.00  0.00    +0.000 A 
ATOM      6  C   UNL     1       7.524   5.194  13.759  0.00  0.00    +0.000 A 
ATOM      7  C   UNL     1       7.017   4.350  12.775  0.00  0.00    +0.000 A 
ATOM      8  C   UNL     1       5.900   3.589  13.060  0.00  0.00    +0.000 A 
ATOM      9 CL   UNL     1       5.262   2.524  11.871  0.00  0.00    +0.000 Cl
ATOM     10  C   UNL     1       5.303   3.673  14.321  0.00  0.00    +0.000 A 
ATOM     11  C   UNL     1       5.851   4.463  15.374  0.00  0.00    +0.000 A 
ATOM     12  C   UNL     1       5.369   4.531  16.735  0.00  0.00    +0.000 A 
ENDROOT
BRANCH  12  13
ATOM     13  C   UNL     1       4.207   3.690  17.188  0.00  0.00    +0.000 A 
ATOM     14  C   UNL     1       4.395   2.424  17.782  0.00  0.00    +0.000 A 
ATOM     15  C   UNL     1       3.322   1.587  18.108  0.00  0.00    +0.000 A 
ATOM     16  C   UNL     1       2.017   2.035  17.945  0.00  0.00    +0.000 A 
ATOM     17  C   UNL     1       1.793   3.308  17.435  0.00  0.00    +0.000 A 
ATOM     18  C   UNL     1       2.871   4.108  17.030  0.00  0.00    +0.000 A 
ENDBRANCH  12  13
BRANCH   1  19
ATOM     19  C   UNL     1       5.691   5.511  19.060  0.00  0.00    +0.000 C 
ATOM     20  O   UNL     1       6.361   5.019  19.946  0.00  0.00    +0.000 OA
BRANCH  19  22
ATOM     21  C   UNL     1       3.512   5.597  19.974  0.00  0.00    +0.000 C 
ATOM     22  O   UNL     1       4.544   6.225  19.200  0.00  0.00    +0.000 OA
ENDBRANCH  19  22
ENDBRANCH   1  19
TORSDOF 3
ENDMDL
MODEL 9
REMARK VINA RESULT:      -7.0      3.978      5.875
REMARK  Name = 
REMARK  5 active torsions:
REMARK  status: ('A' for Active; 'I' for Inactive)
REMARK    1  A    between atoms: C_1  and  O_2
REMARK    2  A    between atoms: O_2  and  C_3
REMARK    3  A    between atoms: C_3  and  C_5
REMARK    4  A    between atoms: C_6  and  C_7
REMARK    5  A    between atoms: C_16  and  C_17
REMARK                            x       y       z     vdW  Elec       q    Type
REMARK                         _______ _______ _______ _____ _____    ______ ____
ROOT
ATOM      1  C   UNL     1       3.721   5.583  17.900  0.00  0.00    +0.000 A 
ATOM      2  C   UNL     1       4.176   6.599  17.052  0.00  0.00    +0.000 A 
ATOM      3  C   UNL     1       5.214   6.429  15.978  0.00  0.00    +0.000 C 
ATOM      4  N   UNL     1       3.711   7.868  17.131  0.00  0.00    +0.000 NA
ATOM      5  C   UNL     1       2.787   8.174  18.036  0.00  0.00    +0.000 A 
ATOM      6  C   UNL     1       2.332   9.488  18.017  0.00  0.00    +0.000 A 
ATOM      7  C   UNL     1       1.357   9.945  18.899  0.00  0.00    +0.000 A 
ATOM      8  C   UNL     1       0.861   9.077  19.852  0.00  0.00    +0.000 A 
ATOM      9 CL   UNL     1      -0.357   9.607  20.943  0.00  0.00    +0.000 Cl
ATOM     10  C   UNL     1       1.338   7.765  19.916  0.00  0.00    +0.000 A 
ATOM     11  C   UNL     1       2.273   7.247  18.973  0.00  0.00    +0.000 A 
ATOM     12  C   UNL     1       2.743   5.881  18.893  0.00  0.00    +0.000 A 
ENDROOT
BRANCH  12  13
ATOM     13  C   UNL     1       2.218   4.826  19.827  0.00  0.00    +0.000 A 
ATOM     14  C   UNL     1       2.867   4.520  21.040  0.00  0.00    +0.000 A 
ATOM     15  C   UNL     1       2.451   3.467  21.864  0.00  0.00    +0.000 A 
ATOM     16  C   UNL     1       1.303   2.751  21.550  0.00  0.00    +0.000 A 
ATOM     17  C   UNL     1       0.592   3.076  20.400  0.00  0.00    +0.000 A 
ATOM     18  C   UNL     1       1.062   4.074  19.535  0.00  0.00    +0.000 A 
ENDBRANCH  12  13
BRANCH   1  19
ATOM     19  C   UNL     1       4.205   4.203  17.662  0.00  0.00    +0.000 C 
ATOM     20  O   UNL     1       5.247   3.765  18.108  0.00  0.00    +0.000 OA
BRANCH  19  22
ATOM     21  C   UNL     1       2.971   2.215  17.332  0.00  0.00    +0.000 C 
ATOM     22  O   UNL     1       3.299   3.542  16.898  0.00  0.00    +0.000 OA
ENDBRANCH  19  22
ENDBRANCH   1  19
TORSDOF 3
ENDMDL
