MODEL 1
REMARK VINA RESULT:      -8.0      0.000      0.000
REMARK  Name = 
REMARK  0 active torsions:
REMARK  status: ('A' for Active; 'I' for Inactive)
REMARK                            x       y       z     vdW  Elec       q    Type
REMARK                         _______ _______ _______ _____ _____    ______ ____
ROOT
ATOM      1  O   UNL     1       0.638  12.331  18.593  0.00  0.00    +0.000 OA
ATOM      2  C   UNL     1       1.049  11.175  18.686  0.00  0.00    +0.000 A 
ATOM      3  N   UNL     1       1.753  10.543  17.677  0.00  0.00    +0.000 N 
ATOM      4  N   UNL     1       2.245   9.252  17.693  0.00  0.00    +0.000 NA
ATOM      5  C   UNL     1       2.039   8.517  18.753  0.00  0.00    +0.000 A 
ATOM      6  C   UNL     1       1.290   9.086  19.916  0.00  0.00    +0.000 A 
ATOM      7  C   UNL     1       1.060   8.315  21.040  0.00  0.00    +0.000 A 
ATOM      8  C   UNL     1       0.370   8.831  22.141  0.00  0.00    +0.000 A 
ATOM      9  C   UNL     1      -0.112  10.140  22.125  0.00  0.00    +0.000 A 
ATOM     10  C   UNL     1       0.109  10.918  20.987  0.00  0.00    +0.000 A 
ATOM     11  C   UNL     1       0.808  10.389  19.890  0.00  0.00    +0.000 A 
ATOM     12  N   UNL     1       1.495   7.007  21.061  0.00  0.00    +0.000 N 
ATOM     13  C   UNL     1       2.205   6.418  20.052  0.00  0.00    +0.000 C 
ATOM     14  C   UNL     1       2.557   7.033  18.866  0.00  0.00    +0.000 C 
ATOM     15  C   UNL     1       3.403   6.513  17.565  0.00  0.00    +0.000 C 
ATOM     16  C   UNL     1       4.191   5.097  17.017  0.00  0.00    +0.000 C 
ATOM     17  C   UNL     1       4.516   3.633  17.667  0.00  0.00    +0.000 C 
ATOM     18  C   UNL     1       3.946   3.231  19.046  0.00  0.00    +0.000 C 
ATOM     19  C   UNL     1       3.291   4.491  19.366  0.00  0.00    +0.000 C 
ATOM     20  C   UNL     1       2.527   4.981  20.496  0.00  0.00    +0.000 C 
ATOM     21  H   UNL     1       1.916  11.083  16.834  0.00  0.00    +0.000 HD
ATOM     22  H   UNL     1       1.347   6.477  21.916  0.00  0.00    +0.000 HD
ENDROOT
TORSDOF 0
ENDMDL
MODEL 2
REMARK VINA RESULT:      -8.0      2.788      6.752
REMARK  Name = 
REMARK  0 active torsions:
REMARK  status: ('A' for Active; 'I' for Inactive)
REMARK                            x       y       z     vdW  Elec       q    Type
REMARK                         _______ _______ _______ _____ _____    ______ ____
ROOT
ATOM      1  O   UNL     1       4.768   2.370  19.580  0.00  0.00    +0.000 OA
ATOM      2  C   UNL     1       4.205   3.464  19.554  0.00  0.00    +0.000 A 
ATOM      3  N   UNL     1       3.304   3.870  20.521  0.00  0.00    +0.000 N 
ATOM      4  N   UNL     1       2.625   5.072  20.569  0.00  0.00    +0.000 NA
ATOM      5  C   UNL     1       2.825   5.942  19.615  0.00  0.00    +0.000 A 
ATOM      6  C   UNL     1       3.779   5.622  18.508  0.00  0.00    +0.000 A 
ATOM      7  C   UNL     1       3.993   6.532  17.490  0.00  0.00    +0.000 A 
ATOM      8  C   UNL     1       4.887   6.256  16.451  0.00  0.00    +0.000 A 
ATOM      9  C   UNL     1       5.581   5.046  16.415  0.00  0.00    +0.000 A 
ATOM     10  C   UNL     1       5.360   4.121  17.437  0.00  0.00    +0.000 A 
ATOM     11  C   UNL     1       4.462   4.413  18.477  0.00  0.00    +0.000 A 
ATOM     12  N   UNL     1       3.289   7.718  17.486  0.00  0.00    +0.000 N 
ATOM     13  C   UNL     1       2.418   8.096  18.469  0.00  0.00    +0.000 C 
ATOM     14  C   UNL     1       2.096   7.338  19.578  0.00  0.00    +0.000 C 
ATOM     15  C   UNL     1       1.107   7.617  20.852  0.00  0.00    +0.000 C 
ATOM     16  C   UNL     1       0.043   8.828  21.422  0.00  0.00    +0.000 C 
ATOM     17  C   UNL     1      -0.357  10.336  20.932  0.00  0.00    +0.000 C 
ATOM     18  C   UNL     1       0.172  10.905  19.596  0.00  0.00    +0.000 C 
ATOM     19  C   UNL     1       1.015   9.779  19.221  0.00  0.00    +0.000 C 
ATOM     20  C   UNL     1       1.891   9.494  18.101  0.00  0.00    +0.000 C 
ATOM     21  H   UNL     1       3.116   3.210  21.268  0.00  0.00    +0.000 HD
ATOM     22  H   UNL     1       3.496   8.384  16.746  0.00  0.00    +0.000 HD
ENDROOT
TORSDOF 0
ENDMDL
MODEL 3
REMARK VINA RESULT:      -7.9      2.914      6.044
REMARK  Name = 
REMARK  0 active torsions:
REMARK  status: ('A' for Active; 'I' for Inactive)
REMARK                            x       y       z     vdW  Elec       q    Type
REMARK                         _______ _______ _______ _____ _____    ______ ____
ROOT
ATOM      1  O   UNL     1       4.441   2.455  17.444  0.00  0.00    +0.000 OA
ATOM      2  C   UNL     1       3.947   3.512  17.834  0.00  0.00    +0.000 A 
ATOM      3  N   UNL     1       3.968   4.674  17.086  0.00  0.00    +0.000 N 
ATOM      4  N   UNL     1       3.445   5.902  17.446  0.00  0.00    +0.000 NA
ATOM      5  C   UNL     1       2.867   6.018  18.611  0.00  0.00    +0.000 A 
ATOM      6  C   UNL     1       2.778   4.830  19.517  0.00  0.00    +0.000 A 
ATOM      7  C   UNL     1       2.174   4.943  20.755  0.00  0.00    +0.000 A 
ATOM      8  C   UNL     1       2.074   3.843  21.612  0.00  0.00    +0.000 A 
ATOM      9  C   UNL     1       2.591   2.603  21.238  0.00  0.00    +0.000 A 
ATOM     10  C   UNL     1       3.210   2.488  19.992  0.00  0.00    +0.000 A 
ATOM     11  C   UNL     1       3.300   3.599  19.139  0.00  0.00    +0.000 A 
ATOM     12  N   UNL     1       1.691   6.170  21.160  0.00  0.00    +0.000 N 
ATOM     13  C   UNL     1       1.712   7.296  20.387  0.00  0.00    +0.000 C 
ATOM     14  C   UNL     1       2.244   7.375  19.115  0.00  0.00    +0.000 C 
ATOM     15  C   UNL     1       2.348   8.605  18.040  0.00  0.00    +0.000 C 
ATOM     16  C   UNL     1       1.937  10.261  17.925  0.00  0.00    +0.000 C 
ATOM     17  C   UNL     1       1.129  11.316  18.877  0.00  0.00    +0.000 C 
ATOM     18  C   UNL     1       0.667  10.916  20.296  0.00  0.00    +0.000 C 
ATOM     19  C   UNL     1       1.103   9.527  20.262  0.00  0.00    +0.000 C 
ATOM     20  C   UNL     1       1.039   8.419  21.195  0.00  0.00    +0.000 C 
ATOM     21  H   UNL     1       4.424   4.621  16.182  0.00  0.00    +0.000 HD
ATOM     22  H   UNL     1       1.217   6.213  22.060  0.00  0.00    +0.000 HD
ENDROOT
TORSDOF 0
ENDMDL
MODEL 4
REMARK VINA RESULT:      -7.7      2.630      6.003
REMARK  Name = 
REMARK  0 active torsions:
REMARK  status: ('A' for Active; 'I' for Inactive)
REMARK                            x       y       z     vdW  Elec       q    Type
REMARK                         _______ _______ _______ _____ _____    ______ ____
ROOT
ATOM      1  O   UNL     1       5.495   3.869  16.516  0.00  0.00    +0.000 OA
ATOM      2  C   UNL     1       4.796   4.709  17.081  0.00  0.00    +0.000 A 
ATOM      3  N   UNL     1       4.614   5.989  16.591  0.00  0.00    +0.000 N 
ATOM      4  N   UNL     1       3.855   6.994  17.160  0.00  0.00    +0.000 NA
ATOM      5  C   UNL     1       3.232   6.749  18.281  0.00  0.00    +0.000 A 
ATOM      6  C   UNL     1       3.348   5.399  18.915  0.00  0.00    +0.000 A 
ATOM      7  C   UNL     1       2.700   5.131  20.106  0.00  0.00    +0.000 A 
ATOM      8  C   UNL     1       2.789   3.873  20.709  0.00  0.00    +0.000 A 
ATOM      9  C   UNL     1       3.545   2.858  20.123  0.00  0.00    +0.000 A 
ATOM     10  C   UNL     1       4.210   3.128  18.926  0.00  0.00    +0.000 A 
ATOM     11  C   UNL     1       4.108   4.395  18.328  0.00  0.00    +0.000 A 
ATOM     12  N   UNL     1       1.978   6.133  20.721  0.00  0.00    +0.000 N 
ATOM     13  C   UNL     1       1.803   7.384  20.199  0.00  0.00    +0.000 C 
ATOM     14  C   UNL     1       2.346   7.830  19.010  0.00  0.00    +0.000 C 
ATOM     15  C   UNL     1       2.242   9.260  18.221  0.00  0.00    +0.000 C 
ATOM     16  C   UNL     1       1.523  10.799  18.422  0.00  0.00    +0.000 C 
ATOM     17  C   UNL     1       0.501  11.460  19.513  0.00  0.00    +0.000 C 
ATOM     18  C   UNL     1       0.085  10.686  20.784  0.00  0.00    +0.000 C 
ATOM     19  C   UNL     1       0.781   9.441  20.495  0.00  0.00    +0.000 C 
ATOM     20  C   UNL     1       0.905   8.165  21.173  0.00  0.00    +0.000 C 
ATOM     21  H   UNL     1       5.097   6.215  15.729  0.00  0.00    +0.000 HD
ATOM     22  H   UNL     1       1.480   5.895  21.575  0.00  0.00    +0.000 HD
ENDROOT
TORSDOF 0
ENDMDL
MODEL 5
REMARK VINA RESULT:      -7.2      2.502      6.622
REMARK  Name = 
REMARK  0 active torsions:
REMARK  status: ('A' for Active; 'I' for Inactive)
REMARK                            x       y       z     vdW  Elec       q    Type
REMARK                         _______ _______ _______ _____ _____    ______ ____
ROOT
ATOM      1  O   UNL     1       3.431   2.741  20.300  0.00  0.00    +0.000 OA
ATOM      2  C   UNL     1       3.036   3.898  20.158  0.00  0.00    +0.000 A 
ATOM      3  N   UNL     1       2.168   4.511  21.042  0.00  0.00    +0.000 N 
ATOM      4  N   UNL     1       1.671   5.798  20.959  0.00  0.00    +0.000 NA
ATOM      5  C   UNL     1       2.032   6.543  19.949  0.00  0.00    +0.000 A 
ATOM      6  C   UNL     1       2.970   5.995  18.920  0.00  0.00    +0.000 A 
ATOM      7  C   UNL     1       3.352   6.772  17.843  0.00  0.00    +0.000 A 
ATOM      8  C   UNL     1       4.235   6.281  16.876  0.00  0.00    +0.000 A 
ATOM      9  C   UNL     1       4.744   4.987  16.973  0.00  0.00    +0.000 A 
ATOM     10  C   UNL     1       4.352   4.195  18.054  0.00  0.00    +0.000 A 
ATOM     11  C   UNL     1       3.469   4.702  19.021  0.00  0.00    +0.000 A 
ATOM     12  N   UNL     1       2.830   8.041  17.708  0.00  0.00    +0.000 N 
ATOM     13  C   UNL     1       1.988   8.625  18.612  0.00  0.00    +0.000 C 
ATOM     14  C   UNL     1       1.517   8.020  19.762  0.00  0.00    +0.000 C 
ATOM     15  C   UNL     1       0.533   8.548  20.958  0.00  0.00    +0.000 C 
ATOM     16  C   UNL     1      -0.363   9.944  21.375  0.00  0.00    +0.000 C 
ATOM     17  C   UNL     1      -0.519  11.444  20.745  0.00  0.00    +0.000 C 
ATOM     18  C   UNL     1       0.137  11.813  19.395  0.00  0.00    +0.000 C 
ATOM     19  C   UNL     1       0.820  10.550  19.154  0.00  0.00    +0.000 C 
ATOM     20  C   UNL     1       1.685  10.045  18.106  0.00  0.00    +0.000 C 
ATOM     21  H   UNL     1       1.858   3.953  21.830  0.00  0.00    +0.000 HD
ATOM     22  H   UNL     1       3.161   8.604  16.927  0.00  0.00    +0.000 HD
ENDROOT
TORSDOF 0
ENDMDL
MODEL 6
REMARK VINA RESULT:      -7.1      1.195      1.641
REMARK  Name = 
REMARK  0 active torsions:
REMARK  status: ('A' for Active; 'I' for Inactive)
REMARK                            x       y       z     vdW  Elec       q    Type
REMARK                         _______ _______ _______ _____ _____    ______ ____
ROOT
ATOM      1  O   UNL     1      -0.672  13.411  19.798  0.00  0.00    +0.000 OA
ATOM      2  C   UNL     1      -0.120  12.314  19.713  0.00  0.00    +0.000 A 
ATOM      3  N   UNL     1       0.621  11.928  18.612  0.00  0.00    +0.000 N 
ATOM      4  N   UNL     1       1.268  10.720  18.430  0.00  0.00    +0.000 NA
ATOM      5  C   UNL     1       1.191   9.821  19.375  0.00  0.00    +0.000 A 
ATOM      6  C   UNL     1       0.417  10.118  20.620  0.00  0.00    +0.000 A 
ATOM      7  C   UNL     1       0.322   9.171  21.623  0.00  0.00    +0.000 A 
ATOM      8  C   UNL     1      -0.388   9.432  22.798  0.00  0.00    +0.000 A 
ATOM      9  C   UNL     1      -1.028  10.658  22.982  0.00  0.00    +0.000 A 
ATOM     10  C   UNL     1      -0.942  11.613  21.967  0.00  0.00    +0.000 A 
ATOM     11  C   UNL     1      -0.221  11.340  20.794  0.00  0.00    +0.000 A 
ATOM     12  N   UNL     1       0.915   7.938  21.444  0.00  0.00    +0.000 N 
ATOM     13  C   UNL     1       1.657   7.595  20.349  0.00  0.00    +0.000 C 
ATOM     14  C   UNL     1       1.889   8.413  19.260  0.00  0.00    +0.000 C 
ATOM     15  C   UNL     1       2.749   8.196  17.884  0.00  0.00    +0.000 C 
ATOM     16  C   UNL     1       3.685   6.985  17.121  0.00  0.00    +0.000 C 
ATOM     17  C   UNL     1       4.208   5.496  17.545  0.00  0.00    +0.000 C 
ATOM     18  C   UNL     1       3.740   4.831  18.859  0.00  0.00    +0.000 C 
ATOM     19  C   UNL     1       2.947   5.939  19.370  0.00  0.00    +0.000 C 
ATOM     20  C   UNL     1       2.167   6.161  20.572  0.00  0.00    +0.000 C 
ATOM     21  H   UNL     1       0.688  12.599  17.855  0.00  0.00    +0.000 HD
ATOM     22  H   UNL     1       0.862   7.277  22.215  0.00  0.00    +0.000 HD
ENDROOT
TORSDOF 0
ENDMDL
MODEL 7
REMARK VINA RESULT:      -7.1      2.559      6.010
REMARK  Name = 
REMARK  0 active torsions:
REMARK  status: ('A' for Active; 'I' for Inactive)
REMARK                            x       y       z     vdW  Elec       q    Type
REMARK                         _______ _______ _______ _____ _____    ______ ____
ROOT
ATOM      1  O   UNL     1       6.145   5.049  15.594  0.00  0.00    +0.000 OA
ATOM      2  C   UNL     1       5.337   5.677  16.277  0.00  0.00    +0.000 A 
ATOM      3  N   UNL     1       4.872   6.932  15.929  0.00  0.00    +0.000 N 
ATOM      4  N   UNL     1       3.973   7.707  16.636  0.00  0.00    +0.000 NA
ATOM      5  C   UNL     1       3.492   7.243  17.758  0.00  0.00    +0.000 A 
ATOM      6  C   UNL     1       3.916   5.893  18.244  0.00  0.00    +0.000 A 
ATOM      7  C   UNL     1       3.420   5.394  19.434  0.00  0.00    +0.000 A 
ATOM      8  C   UNL     1       3.797   4.132  19.901  0.00  0.00    +0.000 A 
ATOM      9  C   UNL     1       4.695   3.347  19.177  0.00  0.00    +0.000 A 
ATOM     10  C   UNL     1       5.206   3.852  17.980  0.00  0.00    +0.000 A 
ATOM     11  C   UNL     1       4.815   5.120  17.519  0.00  0.00    +0.000 A 
ATOM     12  N   UNL     1       2.561   6.170  20.184  0.00  0.00    +0.000 N 
ATOM     13  C   UNL     1       2.107   7.401  19.802  0.00  0.00    +0.000 C 
ATOM     14  C   UNL     1       2.465   8.052  18.637  0.00  0.00    +0.000 C 
ATOM     15  C   UNL     1       2.025   9.496  18.004  0.00  0.00    +0.000 C 
ATOM     16  C   UNL     1       1.034  10.833  18.397  0.00  0.00    +0.000 C 
ATOM     17  C   UNL     1      -0.017  11.173  19.601  0.00  0.00    +0.000 C 
ATOM     18  C   UNL     1      -0.182  10.221  20.808  0.00  0.00    +0.000 C 
ATOM     19  C   UNL     1       0.723   9.173  20.358  0.00  0.00    +0.000 C 
ATOM     20  C   UNL     1       1.144   7.894  20.895  0.00  0.00    +0.000 C 
ATOM     21  H   UNL     1       5.238   7.326  15.070  0.00  0.00    +0.000 HD
ATOM     22  H   UNL     1       2.182   5.761  21.035  0.00  0.00    +0.000 HD
ENDROOT
TORSDOF 0
ENDMDL
MODEL 8
REMARK VINA RESULT:      -7.1      2.092      3.890
REMARK  Name = 
REMARK  0 active torsions:
REMARK  status: ('A' for Active; 'I' for Inactive)
REMARK                            x       y       z     vdW  Elec       q    Type
REMARK                         _______ _______ _______ _____ _____    ______ ____
ROOT
ATOM      1  O   UNL     1      -1.866  11.934  23.510  0.00  0.00    +0.000 OA
ATOM      2  C   UNL     1      -1.210  11.216  22.755  0.00  0.00    +0.000 A 
ATOM      3  N   UNL     1      -0.831   9.928  23.081  0.00  0.00    +0.000 N 
ATOM      4  N   UNL     1      -0.093   9.057  22.301  0.00  0.00    +0.000 NA
ATOM      5  C   UNL     1       0.311   9.461  21.126  0.00  0.00    +0.000 A 
ATOM      6  C   UNL     1      -0.035  10.837  20.654  0.00  0.00    +0.000 A 
ATOM      7  C   UNL     1       0.394  11.277  19.416  0.00  0.00    +0.000 A 
ATOM      8  C   UNL     1       0.074  12.557  18.954  0.00  0.00    +0.000 A 
ATOM      9  C   UNL     1      -0.682  13.426  19.740  0.00  0.00    +0.000 A 
ATOM     10  C   UNL     1      -1.109  12.989  20.995  0.00  0.00    +0.000 A 
ATOM     11  C   UNL     1      -0.785  11.699  21.446  0.00  0.00    +0.000 A 
ATOM     12  N   UNL     1       1.176  10.447  18.640  0.00  0.00    +0.000 N 
ATOM     13  C   UNL     1       1.517   9.170  18.985  0.00  0.00    +0.000 C 
ATOM     14  C   UNL     1       1.160   8.545  20.164  0.00  0.00    +0.000 C 
ATOM     15  C   UNL     1       1.451   7.043  20.745  0.00  0.00    +0.000 C 
ATOM     16  C   UNL     1       2.275   5.616  20.287  0.00  0.00    +0.000 C 
ATOM     17  C   UNL     1       3.069   5.124  18.946  0.00  0.00    +0.000 C 
ATOM     18  C   UNL     1       3.328   6.096  17.773  0.00  0.00    +0.000 C 
ATOM     19  C   UNL     1       2.615   7.247  18.307  0.00  0.00    +0.000 C 
ATOM     20  C   UNL     1       2.348   8.589  17.829  0.00  0.00    +0.000 C 
ATOM     21  H   UNL     1      -1.117   9.590  23.993  0.00  0.00    +0.000 HD
ATOM     22  H   UNL     1       1.443  10.783  17.717  0.00  0.00    +0.000 HD
ENDROOT
TORSDOF 0
ENDMDL
MODEL 9
REMARK VINA RESULT:      -7.0      2.259      5.834
REMARK  Name = 
REMARK  0 active torsions:
REMARK  status: ('A' for Active; 'I' for Inactive)
REMARK                            x       y       z     vdW  Elec       q    Type
REMARK                         _______ _______ _______ _____ _____    ______ ____
ROOT
ATOM      1  O   UNL     1       4.803   4.804  16.751  0.00  0.00    +0.000 OA
ATOM      2  C   UNL     1       4.113   5.622  17.360  0.00  0.00    +0.000 A 
ATOM      3  N   UNL     1       3.929   6.922  16.928  0.00  0.00    +0.000 N 
ATOM      4  N   UNL     1       3.180   7.904  17.548  0.00  0.00    +0.000 NA
ATOM      5  C   UNL     1       2.570   7.613  18.666  0.00  0.00    +0.000 A 
ATOM      6  C   UNL     1       2.690   6.236  19.240  0.00  0.00    +0.000 A 
ATOM      7  C   UNL     1       2.056   5.919  20.426  0.00  0.00    +0.000 A 
ATOM      8  C   UNL     1       2.148   4.637  20.974  0.00  0.00    +0.000 A 
ATOM      9  C   UNL     1       2.895   3.646  20.336  0.00  0.00    +0.000 A 
ATOM     10  C   UNL     1       3.545   3.965  19.143  0.00  0.00    +0.000 A 
ATOM     11  C   UNL     1       3.440   5.256  18.601  0.00  0.00    +0.000 A 
ATOM     12  N   UNL     1       1.345   6.895  21.092  0.00  0.00    +0.000 N 
ATOM     13  C   UNL     1       1.167   8.168  20.627  0.00  0.00    +0.000 C 
ATOM     14  C   UNL     1       1.697   8.663  19.451  0.00  0.00    +0.000 C 
ATOM     15  C   UNL     1       1.586  10.126  18.725  0.00  0.00    +0.000 C 
ATOM     16  C   UNL     1       0.875  11.657  19.000  0.00  0.00    +0.000 C 
ATOM     17  C   UNL     1      -0.132  12.273  20.131  0.00  0.00    +0.000 C 
ATOM     18  C   UNL     1      -0.535  11.447  21.374  0.00  0.00    +0.000 C 
ATOM     19  C   UNL     1       0.154  10.213  21.023  0.00  0.00    +0.000 C 
ATOM     20  C   UNL     1       0.283   8.909  21.644  0.00  0.00    +0.000 C 
ATOM     21  H   UNL     1       4.401   7.183  16.070  0.00  0.00    +0.000 HD
ATOM     22  H   UNL     1       0.856   6.622  21.942  0.00  0.00    +0.000 HD
ENDROOT
TORSDOF 0
ENDMDL
