MODEL 1
REMARK VINA RESULT:      -7.9      0.000      0.000
REMARK  Name = 
REMARK  4 active torsions:
REMARK  status: ('A' for Active; 'I' for Inactive)
REMARK    1  A    between atoms: O_1  and  C_2
REMARK    2  A    between atoms: C_5  and  C_6
REMARK    3  A    between atoms: C_9  and  C_10
REMARK    4  A    between atoms: C_14  and  O_15
REMARK                            x       y       z     vdW  Elec       q    Type
REMARK                         _______ _______ _______ _____ _____    ______ ____
ROOT
ATOM      1  C   UNL     1       3.266   6.699  18.045  0.00  0.00    +0.000 A 
ATOM      2  C   UNL     1       2.802   7.955  17.628  0.00  0.00    +0.000 A 
ATOM      3  C   UNL     1       2.029   8.771  18.469  0.00  0.00    +0.000 A 
ATOM      4  C   UNL     1       1.653   8.356  19.754  0.00  0.00    +0.000 A 
ATOM      5  C   UNL     1       2.099   7.090  20.163  0.00  0.00    +0.000 A 
ATOM      6  C   UNL     1       2.897   6.287  19.336  0.00  0.00    +0.000 A 
ENDROOT
BRANCH   1  10
ATOM      7  C   UNL     1       5.686   4.226  15.485  0.00  0.00    +0.000 A 
ATOM      8  C   UNL     1       4.875   3.636  16.445  0.00  0.00    +0.000 A 
ATOM      9  C   UNL     1       4.092   4.445  17.276  0.00  0.00    +0.000 A 
ATOM     10  C   UNL     1       4.114   5.851  17.175  0.00  0.00    +0.000 A 
ATOM     11  C   UNL     1       4.963   6.410  16.200  0.00  0.00    +0.000 A 
ATOM     12  C   UNL     1       5.737   5.606  15.357  0.00  0.00    +0.000 A 
BRANCH   7  13
ATOM     13  O   UNL     1       6.451   3.478  14.642  0.00  0.00    +0.000 OA
ATOM     14  H   UNL     1       6.114   3.592  13.739  0.00  0.00    +0.000 HD
ENDBRANCH   7  13
ENDBRANCH   1  10
BRANCH   4  15
ATOM     15  C   UNL     1       0.831   9.211  20.641  0.00  0.00    +0.000 A 
ATOM     16  C   UNL     1       0.067  10.280  20.132  0.00  0.00    +0.000 A 
ATOM     17  C   UNL     1      -0.708  11.089  20.970  0.00  0.00    +0.000 A 
ATOM     18  C   UNL     1      -0.752  10.842  22.338  0.00  0.00    +0.000 A 
ATOM     19  C   UNL     1      -0.009   9.789  22.856  0.00  0.00    +0.000 A 
ATOM     20  C   UNL     1       0.777   8.990  22.029  0.00  0.00    +0.000 A 
BRANCH  19  21
ATOM     21  O   UNL     1      -0.021   9.499  24.189  0.00  0.00    +0.000 OA
ATOM     22  H   UNL     1       0.798   9.837  24.586  0.00  0.00    +0.000 HD
ENDBRANCH  19  21
ENDBRANCH   4  15
TORSDOF 4
ENDMDL
MODEL 2
REMARK VINA RESULT:      -7.9      0.059      1.070
REMARK  Name = 
REMARK  4 active torsions:
REMARK  status: ('A' for Active; 'I' for Inactive)
REMARK    1  A    between atoms: O_1  and  C_2
REMARK    2  A    between atoms: C_5  and  C_6
REMARK    3  A    between atoms: C_9  and  C_10
REMARK    4  A    between atoms: C_14  and  O_15
REMARK                            x       y       z     vdW  Elec       q    Type
REMARK                         _______ _______ _______ _____ _____    ______ ____
ROOT
ATOM      1  C   UNL     1       3.317   6.702  18.032  0.00  0.00    +0.000 A 
ATOM      2  C   UNL     1       2.977   6.303  19.333  0.00  0.00    +0.000 A 
ATOM      3  C   UNL     1       2.168   7.100  20.159  0.00  0.00    +0.000 A 
ATOM      4  C   UNL     1       1.690   8.349  19.738  0.00  0.00    +0.000 A 
ATOM      5  C   UNL     1       2.049   8.757  18.445  0.00  0.00    +0.000 A 
ATOM      6  C   UNL     1       2.830   7.949  17.607  0.00  0.00    +0.000 A 
ENDROOT
BRANCH   1  10
ATOM      7  C   UNL     1       5.658   4.212  15.416  0.00  0.00    +0.000 A 
ATOM      8  C   UNL     1       4.850   3.627  16.382  0.00  0.00    +0.000 A 
ATOM      9  C   UNL     1       4.094   4.442  17.231  0.00  0.00    +0.000 A 
ATOM     10  C   UNL     1       4.138   5.848  17.142  0.00  0.00    +0.000 A 
ATOM     11  C   UNL     1       4.982   6.401  16.161  0.00  0.00    +0.000 A 
ATOM     12  C   UNL     1       5.730   5.592  15.300  0.00  0.00    +0.000 A 
BRANCH   7  13
ATOM     13  O   UNL     1       6.398   3.459  14.555  0.00  0.00    +0.000 OA
ATOM     14  H   UNL     1       7.316   3.443  14.873  0.00  0.00    +0.000 HD
ENDBRANCH   7  13
ENDBRANCH   1  10
BRANCH   4  15
ATOM     15  C   UNL     1       0.844   9.195  20.611  0.00  0.00    +0.000 A 
ATOM     16  C   UNL     1       0.065  10.245  20.087  0.00  0.00    +0.000 A 
ATOM     17  C   UNL     1      -0.734  11.045  20.911  0.00  0.00    +0.000 A 
ATOM     18  C   UNL     1      -0.786  10.807  22.281  0.00  0.00    +0.000 A 
ATOM     19  C   UNL     1      -0.028   9.773  22.814  0.00  0.00    +0.000 A 
ATOM     20  C   UNL     1       0.780   8.982  22.000  0.00  0.00    +0.000 A 
BRANCH  19  21
ATOM     21  O   UNL     1      -0.048   9.492  24.149  0.00  0.00    +0.000 OA
ATOM     22  H   UNL     1       0.236  10.284  24.635  0.00  0.00    +0.000 HD
ENDBRANCH  19  21
ENDBRANCH   4  15
TORSDOF 4
ENDMDL
MODEL 3
REMARK VINA RESULT:      -7.8      0.041      1.517
REMARK  Name = 
REMARK  4 active torsions:
REMARK  status: ('A' for Active; 'I' for Inactive)
REMARK    1  A    between atoms: O_1  and  C_2
REMARK    2  A    between atoms: C_5  and  C_6
REMARK    3  A    between atoms: C_9  and  C_10
REMARK    4  A    between atoms: C_14  and  O_15
REMARK                            x       y       z     vdW  Elec       q    Type
REMARK                         _______ _______ _______ _____ _____    ______ ____
ROOT
ATOM      1  C   UNL     1       3.292   6.703  18.025  0.00  0.00    +0.000 A 
ATOM      2  C   UNL     1       2.932   6.288  19.315  0.00  0.00    +0.000 A 
ATOM      3  C   UNL     1       2.132   7.085  20.149  0.00  0.00    +0.000 A 
ATOM      4  C   UNL     1       1.683   8.350  19.746  0.00  0.00    +0.000 A 
ATOM      5  C   UNL     1       2.061   8.775  18.464  0.00  0.00    +0.000 A 
ATOM      6  C   UNL     1       2.834   7.967  17.618  0.00  0.00    +0.000 A 
ENDROOT
BRANCH   1  10
ATOM      7  C   UNL     1       5.695   4.230  15.448  0.00  0.00    +0.000 A 
ATOM      8  C   UNL     1       5.736   5.611  15.311  0.00  0.00    +0.000 A 
ATOM      9  C   UNL     1       4.951   6.409  16.150  0.00  0.00    +0.000 A 
ATOM     10  C   UNL     1       4.104   5.848  17.127  0.00  0.00    +0.000 A 
ATOM     11  C   UNL     1       4.078   4.444  17.222  0.00  0.00    +0.000 A 
ATOM     12  C   UNL     1       4.872   3.641  16.396  0.00  0.00    +0.000 A 
BRANCH   7  13
ATOM     13  O   UNL     1       6.455   3.413  14.667  0.00  0.00    +0.000 OA
ATOM     14  H   UNL     1       6.552   3.827  13.794  0.00  0.00    +0.000 HD
ENDBRANCH   7  13
ENDBRANCH   1  10
BRANCH   4  15
ATOM     15  C   UNL     1       0.845   9.197  20.627  0.00  0.00    +0.000 A 
ATOM     16  C   UNL     1       0.064  10.249  20.110  0.00  0.00    +0.000 A 
ATOM     17  C   UNL     1      -0.727  11.050  20.942  0.00  0.00    +0.000 A 
ATOM     18  C   UNL     1      -0.768  10.811  22.312  0.00  0.00    +0.000 A 
ATOM     19  C   UNL     1      -0.008   9.775  22.837  0.00  0.00    +0.000 A 
ATOM     20  C   UNL     1       0.793   8.984  22.016  0.00  0.00    +0.000 A 
BRANCH  19  21
ATOM     21  O   UNL     1      -0.017   9.493  24.172  0.00  0.00    +0.000 OA
ATOM     22  H   UNL     1      -0.151  10.321  24.662  0.00  0.00    +0.000 HD
ENDBRANCH  19  21
ENDBRANCH   4  15
TORSDOF 4
ENDMDL
MODEL 4
REMARK VINA RESULT:      -7.7      1.109      1.541
REMARK  Name = 
REMARK  4 active torsions:
REMARK  status: ('A' for Active; 'I' for Inactive)
REMARK    1  A    between atoms: O_1  and  C_2
REMARK    2  A    between atoms: C_5  and  C_6
REMARK    3  A    between atoms: C_9  and  C_10
REMARK    4  A    between atoms: C_14  and  O_15
REMARK                            x       y       z     vdW  Elec       q    Type
REMARK                         _______ _______ _______ _____ _____    ______ ____
ROOT
ATOM      1  C   UNL     1       3.051   6.788  18.295  0.00  0.00    +0.000 A 
ATOM      2  C   UNL     1       2.576   8.037  17.870  0.00  0.00    +0.000 A 
ATOM      3  C   UNL     1       1.804   8.856  18.709  0.00  0.00    +0.000 A 
ATOM      4  C   UNL     1       1.442   8.451  20.002  0.00  0.00    +0.000 A 
ATOM      5  C   UNL     1       1.901   7.192  20.419  0.00  0.00    +0.000 A 
ATOM      6  C   UNL     1       2.697   6.387  19.593  0.00  0.00    +0.000 A 
ENDROOT
BRANCH   1  10
ATOM      7  C   UNL     1       5.468   4.309  15.737  0.00  0.00    +0.000 A 
ATOM      8  C   UNL     1       4.615   3.720  16.661  0.00  0.00    +0.000 A 
ATOM      9  C   UNL     1       3.834   4.531  17.492  0.00  0.00    +0.000 A 
ATOM     10  C   UNL     1       3.898   5.937  17.426  0.00  0.00    +0.000 A 
ATOM     11  C   UNL     1       4.787   6.495  16.487  0.00  0.00    +0.000 A 
ATOM     12  C   UNL     1       5.560   5.689  15.645  0.00  0.00    +0.000 A 
BRANCH   7  13
ATOM     13  O   UNL     1       6.233   3.560  14.896  0.00  0.00    +0.000 OA
ATOM     14  H   UNL     1       6.446   4.097  14.115  0.00  0.00    +0.000 HD
ENDBRANCH   7  13
ENDBRANCH   1  10
BRANCH   4  15
ATOM     15  C   UNL     1       0.622   9.310  20.887  0.00  0.00    +0.000 A 
ATOM     16  C   UNL     1       0.478   9.027  22.259  0.00  0.00    +0.000 A 
ATOM     17  C   UNL     1      -0.298   9.837  23.096  0.00  0.00    +0.000 A 
ATOM     18  C   UNL     1      -0.939  10.961  22.585  0.00  0.00    +0.000 A 
ATOM     19  C   UNL     1      -0.804  11.257  21.235  0.00  0.00    +0.000 A 
ATOM     20  C   UNL     1      -0.044  10.446  20.395  0.00  0.00    +0.000 A 
BRANCH  19  21
ATOM     21  O   UNL     1      -1.405  12.351  20.684  0.00  0.00    +0.000 OA
ATOM     22  H   UNL     1      -1.358  12.274  19.717  0.00  0.00    +0.000 HD
ENDBRANCH  19  21
ENDBRANCH   4  15
TORSDOF 4
ENDMDL
MODEL 5
REMARK VINA RESULT:      -7.7      1.133      1.891
REMARK  Name = 
REMARK  4 active torsions:
REMARK  status: ('A' for Active; 'I' for Inactive)
REMARK    1  A    between atoms: O_1  and  C_2
REMARK    2  A    between atoms: C_5  and  C_6
REMARK    3  A    between atoms: C_9  and  C_10
REMARK    4  A    between atoms: C_14  and  O_15
REMARK                            x       y       z     vdW  Elec       q    Type
REMARK                         _______ _______ _______ _____ _____    ______ ____
ROOT
ATOM      1  C   UNL     1       2.984   6.830  18.302  0.00  0.00    +0.000 A 
ATOM      2  C   UNL     1       2.513   8.082  17.881  0.00  0.00    +0.000 A 
ATOM      3  C   UNL     1       1.753   8.906  18.726  0.00  0.00    +0.000 A 
ATOM      4  C   UNL     1       1.397   8.502  20.021  0.00  0.00    +0.000 A 
ATOM      5  C   UNL     1       1.850   7.240  20.434  0.00  0.00    +0.000 A 
ATOM      6  C   UNL     1       2.635   6.430  19.603  0.00  0.00    +0.000 A 
ENDROOT
BRANCH   1  10
ATOM      7  C   UNL     1       5.451   4.349  15.795  0.00  0.00    +0.000 A 
ATOM      8  C   UNL     1       5.559   5.731  15.716  0.00  0.00    +0.000 A 
ATOM      9  C   UNL     1       4.753   6.532  16.531  0.00  0.00    +0.000 A 
ATOM     10  C   UNL     1       3.819   5.974  17.427  0.00  0.00    +0.000 A 
ATOM     11  C   UNL     1       3.728   4.569  17.464  0.00  0.00    +0.000 A 
ATOM     12  C   UNL     1       4.542   3.763  16.662  0.00  0.00    +0.000 A 
BRANCH   7  13
ATOM     13  O   UNL     1       6.228   3.529  15.034  0.00  0.00    +0.000 OA
ATOM     14  H   UNL     1       5.647   2.931  14.536  0.00  0.00    +0.000 HD
ENDBRANCH   7  13
ENDBRANCH   1  10
BRANCH   4  15
ATOM     15  C   UNL     1       0.588   9.365  20.912  0.00  0.00    +0.000 A 
ATOM     16  C   UNL     1       0.405   9.052  22.273  0.00  0.00    +0.000 A 
ATOM     17  C   UNL     1      -0.360   9.866  23.115  0.00  0.00    +0.000 A 
ATOM     18  C   UNL     1      -0.951  11.025  22.621  0.00  0.00    +0.000 A 
ATOM     19  C   UNL     1      -0.777  11.352  21.284  0.00  0.00    +0.000 A 
ATOM     20  C   UNL     1      -0.028  10.537  20.437  0.00  0.00    +0.000 A 
BRANCH  19  21
ATOM     21  O   UNL     1      -1.329  12.480  20.750  0.00  0.00    +0.000 OA
ATOM     22  H   UNL     1      -1.028  13.245  21.267  0.00  0.00    +0.000 HD
ENDBRANCH  19  21
ENDBRANCH   4  15
TORSDOF 4
ENDMDL
MODEL 6
REMARK VINA RESULT:      -7.7      1.306      8.329
REMARK  Name = 
REMARK  4 active torsions:
REMARK  status: ('A' for Active; 'I' for Inactive)
REMARK    1  A    between atoms: O_1  and  C_2
REMARK    2  A    between atoms: C_5  and  C_6
REMARK    3  A    between atoms: C_9  and  C_10
REMARK    4  A    between atoms: C_14  and  O_15
REMARK                            x       y       z     vdW  Elec       q    Type
REMARK                         _______ _______ _______ _____ _____    ______ ____
ROOT
ATOM      1  C   UNL     1       1.045   8.916  20.232  0.00  0.00    +0.000 A 
ATOM      2  C   UNL     1       1.397   9.220  18.909  0.00  0.00    +0.000 A 
ATOM      3  C   UNL     1       2.153   8.334  18.125  0.00  0.00    +0.000 A 
ATOM      4  C   UNL     1       2.624   7.117  18.638  0.00  0.00    +0.000 A 
ATOM      5  C   UNL     1       2.290   6.823  19.968  0.00  0.00    +0.000 A 
ATOM      6  C   UNL     1       1.509   7.692  20.742  0.00  0.00    +0.000 A 
ENDROOT
BRANCH   1  10
ATOM      7  C   UNL     1      -1.412  11.550  22.587  0.00  0.00    +0.000 A 
ATOM      8  C   UNL     1      -1.129  11.871  21.266  0.00  0.00    +0.000 A 
ATOM      9  C   UNL     1      -0.328  11.012  20.506  0.00  0.00    +0.000 A 
ATOM     10  C   UNL     1       0.215   9.830  21.050  0.00  0.00    +0.000 A 
ATOM     11  C   UNL     1      -0.082   9.551  22.398  0.00  0.00    +0.000 A 
ATOM     12  C   UNL     1      -0.894  10.398  23.159  0.00  0.00    +0.000 A 
BRANCH   7  13
ATOM     13  O   UNL     1      -2.202  12.346  23.360  0.00  0.00    +0.000 OA
ATOM     14  H   UNL     1      -1.635  12.984  23.823  0.00  0.00    +0.000 HD
ENDBRANCH   7  13
ENDBRANCH   1  10
BRANCH   4  15
ATOM     15  C   UNL     1       3.429   6.184  17.816  0.00  0.00    +0.000 A 
ATOM     16  C   UNL     1       3.146   4.805  17.777  0.00  0.00    +0.000 A 
ATOM     17  C   UNL     1       3.906   3.923  17.002  0.00  0.00    +0.000 A 
ATOM     18  C   UNL     1       4.964   4.400  16.233  0.00  0.00    +0.000 A 
ATOM     19  C   UNL     1       5.254   5.757  16.256  0.00  0.00    +0.000 A 
ATOM     20  C   UNL     1       4.509   6.638  17.037  0.00  0.00    +0.000 A 
BRANCH  19  21
ATOM     21  O   UNL     1       6.275   6.278  15.516  0.00  0.00    +0.000 OA
ATOM     22  H   UNL     1       5.897   6.731  14.745  0.00  0.00    +0.000 HD
ENDBRANCH  19  21
ENDBRANCH   4  15
TORSDOF 4
ENDMDL
MODEL 7
REMARK VINA RESULT:      -7.7      1.136      2.175
REMARK  Name = 
REMARK  4 active torsions:
REMARK  status: ('A' for Active; 'I' for Inactive)
REMARK    1  A    between atoms: O_1  and  C_2
REMARK    2  A    between atoms: C_5  and  C_6
REMARK    3  A    between atoms: C_9  and  C_10
REMARK    4  A    between atoms: C_14  and  O_15
REMARK                            x       y       z     vdW  Elec       q    Type
REMARK                         _______ _______ _______ _____ _____    ______ ____
ROOT
ATOM      1  C   UNL     1       3.017   6.835  18.318  0.00  0.00    +0.000 A 
ATOM      2  C   UNL     1       2.675   6.437  19.619  0.00  0.00    +0.000 A 
ATOM      3  C   UNL     1       1.877   7.240  20.449  0.00  0.00    +0.000 A 
ATOM      4  C   UNL     1       1.412   8.496  20.031  0.00  0.00    +0.000 A 
ATOM      5  C   UNL     1       1.772   8.902  18.738  0.00  0.00    +0.000 A 
ATOM      6  C   UNL     1       2.543   8.088  17.897  0.00  0.00    +0.000 A 
ENDROOT
BRANCH   1  10
ATOM      7  C   UNL     1       5.411   4.337  15.757  0.00  0.00    +0.000 A 
ATOM      8  C   UNL     1       5.519   5.719  15.668  0.00  0.00    +0.000 A 
ATOM      9  C   UNL     1       4.736   6.525  16.501  0.00  0.00    +0.000 A 
ATOM     10  C   UNL     1       3.826   5.973  17.425  0.00  0.00    +0.000 A 
ATOM     11  C   UNL     1       3.735   4.569  17.472  0.00  0.00    +0.000 A 
ATOM     12  C   UNL     1       4.525   3.757  16.652  0.00  0.00    +0.000 A 
BRANCH   7  13
ATOM     13  O   UNL     1       6.166   3.512  14.980  0.00  0.00    +0.000 OA
ATOM     14  H   UNL     1       5.569   2.941  14.469  0.00  0.00    +0.000 HD
ENDBRANCH   7  13
ENDBRANCH   1  10
BRANCH   4  15
ATOM     15  C   UNL     1       0.577   9.349  20.908  0.00  0.00    +0.000 A 
ATOM     16  C   UNL     1       0.432   9.075  22.281  0.00  0.00    +0.000 A 
ATOM     17  C   UNL     1      -0.358   9.880  23.109  0.00  0.00    +0.000 A 
ATOM     18  C   UNL     1      -1.014  10.990  22.587  0.00  0.00    +0.000 A 
ATOM     19  C   UNL     1      -0.879  11.278  21.236  0.00  0.00    +0.000 A 
ATOM     20  C   UNL     1      -0.105  10.471  20.404  0.00  0.00    +0.000 A 
BRANCH  19  21
ATOM     21  O   UNL     1      -1.494  12.359  20.674  0.00  0.00    +0.000 OA
ATOM     22  H   UNL     1      -2.436  12.332  20.906  0.00  0.00    +0.000 HD
ENDBRANCH  19  21
ENDBRANCH   4  15
TORSDOF 4
ENDMDL
MODEL 8
REMARK VINA RESULT:      -7.7      1.114      1.878
REMARK  Name = 
REMARK  4 active torsions:
REMARK  status: ('A' for Active; 'I' for Inactive)
REMARK    1  A    between atoms: O_1  and  C_2
REMARK    2  A    between atoms: C_5  and  C_6
REMARK    3  A    between atoms: C_9  and  C_10
REMARK    4  A    between atoms: C_14  and  O_15
REMARK                            x       y       z     vdW  Elec       q    Type
REMARK                         _______ _______ _______ _____ _____    ______ ____
ROOT
ATOM      1  C   UNL     1       3.062   6.814  18.316  0.00  0.00    +0.000 A 
ATOM      2  C   UNL     1       2.725   6.412  19.616  0.00  0.00    +0.000 A 
ATOM      3  C   UNL     1       1.924   7.210  20.449  0.00  0.00    +0.000 A 
ATOM      4  C   UNL     1       1.451   8.463  20.035  0.00  0.00    +0.000 A 
ATOM      5  C   UNL     1       1.807   8.874  18.741  0.00  0.00    +0.000 A 
ATOM      6  C   UNL     1       2.581   8.066  17.897  0.00  0.00    +0.000 A 
ENDROOT
BRANCH   1  10
ATOM      7  C   UNL     1       5.380   4.325  15.679  0.00  0.00    +0.000 A 
ATOM      8  C   UNL     1       4.538   3.739  16.615  0.00  0.00    +0.000 A 
ATOM      9  C   UNL     1       3.789   4.553  17.471  0.00  0.00    +0.000 A 
ATOM     10  C   UNL     1       3.875   5.959  17.419  0.00  0.00    +0.000 A 
ATOM     11  C   UNL     1       4.754   6.512  16.468  0.00  0.00    +0.000 A 
ATOM     12  C   UNL     1       5.494   5.704  15.600  0.00  0.00    +0.000 A 
BRANCH   7  13
ATOM     13  O   UNL     1       6.115   3.572  14.813  0.00  0.00    +0.000 OA
ATOM     14  H   UNL     1       5.610   2.771  14.598  0.00  0.00    +0.000 HD
ENDBRANCH   7  13
ENDBRANCH   1  10
BRANCH   4  15
ATOM     15  C   UNL     1       0.613   9.310  20.914  0.00  0.00    +0.000 A 
ATOM     16  C   UNL     1       0.473   9.033  22.288  0.00  0.00    +0.000 A 
ATOM     17  C   UNL     1      -0.320   9.832  23.119  0.00  0.00    +0.000 A 
ATOM     18  C   UNL     1      -0.984  10.939  22.600  0.00  0.00    +0.000 A 
ATOM     19  C   UNL     1      -0.854  11.230  21.249  0.00  0.00    +0.000 A 
ATOM     20  C   UNL     1      -0.077  10.429  20.414  0.00  0.00    +0.000 A 
BRANCH  19  21
ATOM     21  O   UNL     1      -1.478  12.306  20.690  0.00  0.00    +0.000 OA
ATOM     22  H   UNL     1      -1.344  13.075  21.268  0.00  0.00    +0.000 HD
ENDBRANCH  19  21
ENDBRANCH   4  15
TORSDOF 4
ENDMDL
MODEL 9
REMARK VINA RESULT:      -7.7      1.301      8.327
REMARK  Name = 
REMARK  4 active torsions:
REMARK  status: ('A' for Active; 'I' for Inactive)
REMARK    1  A    between atoms: O_1  and  C_2
REMARK    2  A    between atoms: C_5  and  C_6
REMARK    3  A    between atoms: C_9  and  C_10
REMARK    4  A    between atoms: C_14  and  O_15
REMARK                            x       y       z     vdW  Elec       q    Type
REMARK                         _______ _______ _______ _____ _____    ______ ____
ROOT
ATOM      1  C   UNL     1       1.062   8.857  20.222  0.00  0.00    +0.000 A 
ATOM      2  C   UNL     1       1.504   7.623  20.721  0.00  0.00    +0.000 A 
ATOM      3  C   UNL     1       2.286   6.752  19.946  0.00  0.00    +0.000 A 
ATOM      4  C   UNL     1       2.633   7.056  18.622  0.00  0.00    +0.000 A 
ATOM      5  C   UNL     1       2.172   8.281  18.116  0.00  0.00    +0.000 A 
ATOM      6  C   UNL     1       1.418   9.166  18.899  0.00  0.00    +0.000 A 
ENDROOT
BRANCH   1  10
ATOM      7  C   UNL     1      -1.194  11.601  22.652  0.00  0.00    +0.000 A 
ATOM      8  C   UNL     1      -0.874  10.345  23.149  0.00  0.00    +0.000 A 
ATOM      9  C   UNL     1      -0.143   9.456  22.353  0.00  0.00    +0.000 A 
ATOM     10  C   UNL     1       0.270   9.797  21.049  0.00  0.00    +0.000 A 
ATOM     11  C   UNL     1      -0.089  11.073  20.577  0.00  0.00    +0.000 A 
ATOM     12  C   UNL     1      -0.808  11.972  21.373  0.00  0.00    +0.000 A 
BRANCH   7  13
ATOM     13  O   UNL     1      -1.888  12.506  23.396  0.00  0.00    +0.000 OA
ATOM     14  H   UNL     1      -1.280  13.214  23.665  0.00  0.00    +0.000 HD
ENDBRANCH   7  13
ENDBRANCH   1  10
BRANCH   4  15
ATOM     15  C   UNL     1       3.450   6.135  17.799  0.00  0.00    +0.000 A 
ATOM     16  C   UNL     1       3.168   4.757  17.735  0.00  0.00    +0.000 A 
ATOM     17  C   UNL     1       3.940   3.887  16.959  0.00  0.00    +0.000 A 
ATOM     18  C   UNL     1       5.009   4.374  16.213  0.00  0.00    +0.000 A 
ATOM     19  C   UNL     1       5.299   5.731  16.261  0.00  0.00    +0.000 A 
ATOM     20  C   UNL     1       4.542   6.600  17.044  0.00  0.00    +0.000 A 
BRANCH  19  21
ATOM     21  O   UNL     1       6.331   6.263  15.544  0.00  0.00    +0.000 OA
ATOM     22  H   UNL     1       6.029   6.414  14.634  0.00  0.00    +0.000 HD
ENDBRANCH  19  21
ENDBRANCH   4  15
TORSDOF 4
ENDMDL
