MODEL 1
REMARK VINA RESULT:      -7.6      0.000      0.000
REMARK  Name = 
REMARK  9 active torsions:
REMARK  status: ('A' for Active; 'I' for Inactive)
REMARK    1  A    between atoms: C_1  and  C_2
REMARK    2  A    between atoms: C_2  and  C_3
REMARK    3  A    between atoms: C_3  and  C_4
REMARK    4  A    between atoms: C_4  and  C_5
REMARK    5  A    between atoms: C_5  and  C_6
REMARK    6  A    between atoms: C_6  and  C_7
REMARK    7  A    between atoms: C_7  and  O_8
REMARK    8  A    between atoms: O_8  and  C_9
REMARK    9  A    between atoms: C_9  and  N_10
REMARK                            x       y       z     vdW  Elec       q    Type
REMARK                         _______ _______ _______ _____ _____    ______ ____
ROOT
ATOM      1  N   UNL     1       6.168   6.178  18.125  0.00  0.00    +0.000 N 
ATOM      2  C   UNL     1       5.239   5.263  18.620  0.00  0.00    +0.000 A 
ATOM      3  N   UNL     1       5.633   4.036  19.005  0.00  0.00    +0.000 NA
ATOM      4  N   UNL     1       4.775   3.243  19.643  0.00  0.00    +0.000 N 
ATOM      5  O   UNL     1       5.247   2.124  19.991  0.00  0.00    +0.000 OA
ATOM      6  C   UNL     1       3.467   3.614  19.928  0.00  0.00    +0.000 A 
ATOM      7  C   UNL     1       2.600   2.818  20.712  0.00  0.00    +0.000 A 
ATOM      8  C   UNL     1       1.312   3.256  21.013  0.00  0.00    +0.000 A 
ATOM      9  C   UNL     1       0.836   4.449  20.472  0.00  0.00    +0.000 A 
ATOM     10  C   UNL     1       1.670   5.226  19.665  0.00  0.00    +0.000 A 
ATOM     11  C   UNL     1       3.004   4.846  19.425  0.00  0.00    +0.000 A 
ATOM     12  N   UNL     1       3.906   5.674  18.750  0.00  0.00    +0.000 N 
ATOM     13  O   UNL     1       3.533   6.812  18.282  0.00  0.00    +0.000 OA
ATOM     14  H   UNL     1       5.676   6.885  17.573  0.00  0.00    +0.000 HD
ENDROOT
BRANCH   1  15
ATOM     15  C   UNL     1       7.313   5.616  17.481  0.00  0.00    +0.000 C 
BRANCH  15  16
ATOM     16  O   UNL     1       7.142   5.784  16.081  0.00  0.00    +0.000 OA
BRANCH  16  17
ATOM     17  C   UNL     1       7.297   4.541  15.406  0.00  0.00    +0.000 C 
BRANCH  17  18
ATOM     18  C   UNL     1       5.923   3.944  15.129  0.00  0.00    +0.000 C 
BRANCH  18  19
ATOM     19  C   UNL     1       5.512   4.202  13.681  0.00  0.00    +0.000 C 
BRANCH  19  20
ATOM     20  C   UNL     1       6.242   3.275  12.711  0.00  0.00    +0.000 C 
BRANCH  20  21
ATOM     21  C   UNL     1       5.281   2.734  11.653  0.00  0.00    +0.000 C 
BRANCH  21  23
ATOM     22  C   UNL     1       3.338   3.388  10.200  0.00  0.00    +0.000 C 
ATOM     23  C   UNL     1       4.037   3.611  11.532  0.00  0.00    +0.000 C 
ENDBRANCH  21  23
ENDBRANCH  20  21
ENDBRANCH  19  20
ENDBRANCH  18  19
ENDBRANCH  17  18
ENDBRANCH  16  17
ENDBRANCH  15  16
ENDBRANCH   1  15
TORSDOF 8
ENDMDL
MODEL 2
REMARK VINA RESULT:      -7.4      1.057      2.488
REMARK  Name = 
REMARK  9 active torsions:
REMARK  status: ('A' for Active; 'I' for Inactive)
REMARK    1  A    between atoms: C_1  and  C_2
REMARK    2  A    between atoms: C_2  and  C_3
REMARK    3  A    between atoms: C_3  and  C_4
REMARK    4  A    between atoms: C_4  and  C_5
REMARK    5  A    between atoms: C_5  and  C_6
REMARK    6  A    between atoms: C_6  and  C_7
REMARK    7  A    between atoms: C_7  and  O_8
REMARK    8  A    between atoms: O_8  and  C_9
REMARK    9  A    between atoms: C_9  and  N_10
REMARK                            x       y       z     vdW  Elec       q    Type
REMARK                         _______ _______ _______ _____ _____    ______ ____
ROOT
ATOM      1  N   UNL     1       6.588   3.928  18.436  0.00  0.00    +0.000 N 
ATOM      2  C   UNL     1       5.350   4.274  18.977  0.00  0.00    +0.000 A 
ATOM      3  N   UNL     1       4.831   5.496  18.757  0.00  0.00    +0.000 NA
ATOM      4  N   UNL     1       3.576   5.748  19.122  0.00  0.00    +0.000 N 
ATOM      5  O   UNL     1       3.168   6.912  18.846  0.00  0.00    +0.000 OA
ATOM      6  C   UNL     1       2.760   4.807  19.738  0.00  0.00    +0.000 A 
ATOM      7  C   UNL     1       1.393   5.041  20.010  0.00  0.00    +0.000 A 
ATOM      8  C   UNL     1       0.603   4.048  20.585  0.00  0.00    +0.000 A 
ATOM      9  C   UNL     1       1.176   2.839  20.975  0.00  0.00    +0.000 A 
ATOM     10  C   UNL     1       2.534   2.609  20.746  0.00  0.00    +0.000 A 
ATOM     11  C   UNL     1       3.328   3.565  20.083  0.00  0.00    +0.000 A 
ATOM     12  N   UNL     1       4.649   3.305  19.706  0.00  0.00    +0.000 N 
ATOM     13  O   UNL     1       5.207   2.182  19.989  0.00  0.00    +0.000 OA
ATOM     14  H   UNL     1       6.976   3.146  18.969  0.00  0.00    +0.000 HD
ENDROOT
BRANCH   1  15
ATOM     15  C   UNL     1       7.499   5.009  18.223  0.00  0.00    +0.000 C 
BRANCH  15  16
ATOM     16  O   UNL     1       7.934   4.941  16.872  0.00  0.00    +0.000 OA
BRANCH  16  17
ATOM     17  C   UNL     1       7.047   5.664  16.026  0.00  0.00    +0.000 C 
BRANCH  17  18
ATOM     18  C   UNL     1       7.094   5.071  14.624  0.00  0.00    +0.000 C 
BRANCH  18  19
ATOM     19  C   UNL     1       6.170   3.859  14.526  0.00  0.00    +0.000 C 
BRANCH  19  20
ATOM     20  C   UNL     1       5.403   3.836  13.206  0.00  0.00    +0.000 C 
BRANCH  20  21
ATOM     21  C   UNL     1       6.241   3.186  12.105  0.00  0.00    +0.000 C 
BRANCH  21  23
ATOM     22  C   UNL     1       6.407   0.918  11.037  0.00  0.00    +0.000 C 
ATOM     23  C   UNL     1       5.477   2.059  11.416  0.00  0.00    +0.000 C 
ENDBRANCH  21  23
ENDBRANCH  20  21
ENDBRANCH  19  20
ENDBRANCH  18  19
ENDBRANCH  17  18
ENDBRANCH  16  17
ENDBRANCH  15  16
ENDBRANCH   1  15
TORSDOF 8
ENDMDL
MODEL 3
REMARK VINA RESULT:      -7.3      0.768      2.291
REMARK  Name = 
REMARK  9 active torsions:
REMARK  status: ('A' for Active; 'I' for Inactive)
REMARK    1  A    between atoms: C_1  and  C_2
REMARK    2  A    between atoms: C_2  and  C_3
REMARK    3  A    between atoms: C_3  and  C_4
REMARK    4  A    between atoms: C_4  and  C_5
REMARK    5  A    between atoms: C_5  and  C_6
REMARK    6  A    between atoms: C_6  and  C_7
REMARK    7  A    between atoms: C_7  and  O_8
REMARK    8  A    between atoms: O_8  and  C_9
REMARK    9  A    between atoms: C_9  and  N_10
REMARK                            x       y       z     vdW  Elec       q    Type
REMARK                         _______ _______ _______ _____ _____    ______ ____
ROOT
ATOM      1  N   UNL     1       6.305   4.018  17.723  0.00  0.00    +0.000 N 
ATOM      2  C   UNL     1       5.111   4.330  18.373  0.00  0.00    +0.000 A 
ATOM      3  N   UNL     1       4.416   5.429  18.026  0.00  0.00    +0.000 NA
ATOM      4  N   UNL     1       3.195   5.614  18.524  0.00  0.00    +0.000 N 
ATOM      5  O   UNL     1       2.610   6.657  18.115  0.00  0.00    +0.000 OA
ATOM      6  C   UNL     1       2.593   4.727  19.408  0.00  0.00    +0.000 A 
ATOM      7  C   UNL     1       1.253   4.866  19.836  0.00  0.00    +0.000 A 
ATOM      8  C   UNL     1       0.676   3.924  20.684  0.00  0.00    +0.000 A 
ATOM      9  C   UNL     1       1.445   2.875  21.187  0.00  0.00    +0.000 A 
ATOM     10  C   UNL     1       2.781   2.748  20.802  0.00  0.00    +0.000 A 
ATOM     11  C   UNL     1       3.355   3.638  19.874  0.00  0.00    +0.000 A 
ATOM     12  N   UNL     1       4.639   3.449  19.355  0.00  0.00    +0.000 N 
ATOM     13  O   UNL     1       5.368   2.463  19.742  0.00  0.00    +0.000 OA
ATOM     14  H   UNL     1       6.854   3.395  18.319  0.00  0.00    +0.000 HD
ENDROOT
BRANCH   1  15
ATOM     15  C   UNL     1       7.035   5.127  17.194  0.00  0.00    +0.000 C 
BRANCH  15  16
ATOM     16  O   UNL     1       6.456   5.459  15.939  0.00  0.00    +0.000 OA
BRANCH  16  17
ATOM     17  C   UNL     1       7.153   4.810  14.881  0.00  0.00    +0.000 C 
BRANCH  17  18
ATOM     18  C   UNL     1       6.220   3.819  14.198  0.00  0.00    +0.000 C 
BRANCH  18  19
ATOM     19  C   UNL     1       6.568   3.693  12.717  0.00  0.00    +0.000 C 
BRANCH  19  20
ATOM     20  C   UNL     1       5.502   2.917  11.947  0.00  0.00    +0.000 C 
BRANCH  20  21
ATOM     21  C   UNL     1       4.350   3.836  11.543  0.00  0.00    +0.000 C 
BRANCH  21  23
ATOM     22  C   UNL     1       2.828   4.175   9.573  0.00  0.00    +0.000 C 
ATOM     23  C   UNL     1       3.426   3.160  10.534  0.00  0.00    +0.000 C 
ENDBRANCH  21  23
ENDBRANCH  20  21
ENDBRANCH  19  20
ENDBRANCH  18  19
ENDBRANCH  17  18
ENDBRANCH  16  17
ENDBRANCH  15  16
ENDBRANCH   1  15
TORSDOF 8
ENDMDL
MODEL 4
REMARK VINA RESULT:      -7.2      1.684      1.908
REMARK  Name = 
REMARK  9 active torsions:
REMARK  status: ('A' for Active; 'I' for Inactive)
REMARK    1  A    between atoms: C_1  and  C_2
REMARK    2  A    between atoms: C_2  and  C_3
REMARK    3  A    between atoms: C_3  and  C_4
REMARK    4  A    between atoms: C_4  and  C_5
REMARK    5  A    between atoms: C_5  and  C_6
REMARK    6  A    between atoms: C_6  and  C_7
REMARK    7  A    between atoms: C_7  and  O_8
REMARK    8  A    between atoms: O_8  and  C_9
REMARK    9  A    between atoms: C_9  and  N_10
REMARK                            x       y       z     vdW  Elec       q    Type
REMARK                         _______ _______ _______ _____ _____    ______ ____
ROOT
ATOM      1  N   UNL     1       6.587   4.317  17.548  0.00  0.00    +0.000 N 
ATOM      2  C   UNL     1       5.219   4.243  17.808  0.00  0.00    +0.000 A 
ATOM      3  N   UNL     1       4.409   3.543  16.994  0.00  0.00    +0.000 NA
ATOM      4  N   UNL     1       3.145   3.330  17.354  0.00  0.00    +0.000 N 
ATOM      5  O   UNL     1       2.473   2.635  16.540  0.00  0.00    +0.000 OA
ATOM      6  C   UNL     1       2.602   3.811  18.539  0.00  0.00    +0.000 A 
ATOM      7  C   UNL     1       1.298   3.479  18.972  0.00  0.00    +0.000 A 
ATOM      8  C   UNL     1       0.814   3.945  20.193  0.00  0.00    +0.000 A 
ATOM      9  C   UNL     1       1.585   4.815  20.962  0.00  0.00    +0.000 A 
ATOM     10  C   UNL     1       2.860   5.182  20.527  0.00  0.00    +0.000 A 
ATOM     11  C   UNL     1       3.402   4.648  19.341  0.00  0.00    +0.000 A 
ATOM     12  N   UNL     1       4.727   4.875  18.959  0.00  0.00    +0.000 N 
ATOM     13  O   UNL     1       5.498   5.623  19.664  0.00  0.00    +0.000 OA
ATOM     14  H   UNL     1       6.972   5.136  18.024  0.00  0.00    +0.000 HD
ENDROOT
BRANCH   1  15
ATOM     15  C   UNL     1       6.967   4.196  16.176  0.00  0.00    +0.000 C 
BRANCH  15  16
ATOM     16  O   UNL     1       6.826   5.478  15.579  0.00  0.00    +0.000 OA
BRANCH  16  17
ATOM     17  C   UNL     1       6.621   5.355  14.176  0.00  0.00    +0.000 C 
BRANCH  17  18
ATOM     18  C   UNL     1       5.866   4.064  13.889  0.00  0.00    +0.000 C 
BRANCH  18  19
ATOM     19  C   UNL     1       6.338   3.452  12.573  0.00  0.00    +0.000 C 
BRANCH  19  20
ATOM     20  C   UNL     1       5.183   2.832  11.789  0.00  0.00    +0.000 C 
BRANCH  20  21
ATOM     21  C   UNL     1       4.562   3.856  10.840  0.00  0.00    +0.000 C 
BRANCH  21  23
ATOM     22  C   UNL     1       2.631   4.331   9.304  0.00  0.00    +0.000 C 
ATOM     23  C   UNL     1       3.151   3.444  10.424  0.00  0.00    +0.000 C 
ENDBRANCH  21  23
ENDBRANCH  20  21
ENDBRANCH  19  20
ENDBRANCH  18  19
ENDBRANCH  17  18
ENDBRANCH  16  17
ENDBRANCH  15  16
ENDBRANCH   1  15
TORSDOF 8
ENDMDL
MODEL 5
REMARK VINA RESULT:      -7.1      3.293      6.051
REMARK  Name = 
REMARK  9 active torsions:
REMARK  status: ('A' for Active; 'I' for Inactive)
REMARK    1  A    between atoms: C_1  and  C_2
REMARK    2  A    between atoms: C_2  and  C_3
REMARK    3  A    between atoms: C_3  and  C_4
REMARK    4  A    between atoms: C_4  and  C_5
REMARK    5  A    between atoms: C_5  and  C_6
REMARK    6  A    between atoms: C_6  and  C_7
REMARK    7  A    between atoms: C_7  and  O_8
REMARK    8  A    between atoms: O_8  and  C_9
REMARK    9  A    between atoms: C_9  and  N_10
REMARK                            x       y       z     vdW  Elec       q    Type
REMARK                         _______ _______ _______ _____ _____    ______ ____
ROOT
ATOM      1  N   UNL     1       5.974   6.129  18.179  0.00  0.00    +0.000 N 
ATOM      2  C   UNL     1       5.092   5.155  18.644  0.00  0.00    +0.000 A 
ATOM      3  N   UNL     1       5.550   3.944  19.012  0.00  0.00    +0.000 NA
ATOM      4  N   UNL     1       4.730   3.093  19.624  0.00  0.00    +0.000 N 
ATOM      5  O   UNL     1       5.260   1.996  19.959  0.00  0.00    +0.000 OA
ATOM      6  C   UNL     1       3.399   3.384  19.898  0.00  0.00    +0.000 A 
ATOM      7  C   UNL     1       2.569   2.527  20.655  0.00  0.00    +0.000 A 
ATOM      8  C   UNL     1       1.254   2.885  20.946  0.00  0.00    +0.000 A 
ATOM      9  C   UNL     1       0.719   4.060  20.420  0.00  0.00    +0.000 A 
ATOM     10  C   UNL     1       1.517   4.898  19.639  0.00  0.00    +0.000 A 
ATOM     11  C   UNL     1       2.874   4.597  19.411  0.00  0.00    +0.000 A 
ATOM     12  N   UNL     1       3.736   5.487  18.762  0.00  0.00    +0.000 N 
ATOM     13  O   UNL     1       3.306   6.611  18.310  0.00  0.00    +0.000 OA
ATOM     14  H   UNL     1       5.450   6.817  17.633  0.00  0.00    +0.000 HD
ENDROOT
BRANCH   1  15
ATOM     15  C   UNL     1       7.158   5.645  17.541  0.00  0.00    +0.000 C 
BRANCH  15  16
ATOM     16  O   UNL     1       7.761   6.742  16.869  0.00  0.00    +0.000 OA
BRANCH  16  17
ATOM     17  C   UNL     1       7.290   7.974  17.404  0.00  0.00    +0.000 C 
BRANCH  17  18
ATOM     18  C   UNL     1       8.410   8.641  18.192  0.00  0.00    +0.000 C 
BRANCH  18  19
ATOM     19  C   UNL     1       8.455  10.137  17.892  0.00  0.00    +0.000 C 
BRANCH  19  20
ATOM     20  C   UNL     1       9.645  10.816  18.566  0.00  0.00    +0.000 C 
BRANCH  20  21
ATOM     21  C   UNL     1       9.556  10.678  20.086  0.00  0.00    +0.000 C 
BRANCH  21  23
ATOM     22  C   UNL     1      11.572  12.171  19.953  0.00  0.00    +0.000 C 
ATOM     23  C   UNL     1      10.373  11.758  20.791  0.00  0.00    +0.000 C 
ENDBRANCH  21  23
ENDBRANCH  20  21
ENDBRANCH  19  20
ENDBRANCH  18  19
ENDBRANCH  17  18
ENDBRANCH  16  17
ENDBRANCH  15  16
ENDBRANCH   1  15
TORSDOF 8
ENDMDL
MODEL 6
REMARK VINA RESULT:      -7.1      3.676      6.169
REMARK  Name = 
REMARK  9 active torsions:
REMARK  status: ('A' for Active; 'I' for Inactive)
REMARK    1  A    between atoms: C_1  and  C_2
REMARK    2  A    between atoms: C_2  and  C_3
REMARK    3  A    between atoms: C_3  and  C_4
REMARK    4  A    between atoms: C_4  and  C_5
REMARK    5  A    between atoms: C_5  and  C_6
REMARK    6  A    between atoms: C_6  and  C_7
REMARK    7  A    between atoms: C_7  and  O_8
REMARK    8  A    between atoms: O_8  and  C_9
REMARK    9  A    between atoms: C_9  and  N_10
REMARK                            x       y       z     vdW  Elec       q    Type
REMARK                         _______ _______ _______ _____ _____    ______ ____
ROOT
ATOM      1  N   UNL     1       6.138   6.171  18.450  0.00  0.00    +0.000 N 
ATOM      2  C   UNL     1       5.284   5.078  18.592  0.00  0.00    +0.000 A 
ATOM      3  N   UNL     1       5.652   4.020  19.338  0.00  0.00    +0.000 NA
ATOM      4  N   UNL     1       4.760   3.072  19.614  0.00  0.00    +0.000 N 
ATOM      5  O   UNL     1       5.191   2.137  20.346  0.00  0.00    +0.000 OA
ATOM      6  C   UNL     1       3.448   3.108  19.156  0.00  0.00    +0.000 A 
ATOM      7  C   UNL     1       2.474   2.163  19.554  0.00  0.00    +0.000 A 
ATOM      8  C   UNL     1       1.158   2.269  19.108  0.00  0.00    +0.000 A 
ATOM      9  C   UNL     1       0.809   3.263  18.196  0.00  0.00    +0.000 A 
ATOM     10  C   UNL     1       1.771   4.180  17.766  0.00  0.00    +0.000 A 
ATOM     11  C   UNL     1       3.083   4.145  18.276  0.00  0.00    +0.000 A 
ATOM     12  N   UNL     1       4.024   5.136  17.982  0.00  0.00    +0.000 N 
ATOM     13  O   UNL     1       3.733   6.108  17.193  0.00  0.00    +0.000 OA
ATOM     14  H   UNL     1       5.874   6.691  17.610  0.00  0.00    +0.000 HD
ENDROOT
BRANCH   1  15
ATOM     15  C   UNL     1       7.535   5.888  18.557  0.00  0.00    +0.000 C 
BRANCH  15  16
ATOM     16  O   UNL     1       8.221   7.131  18.598  0.00  0.00    +0.000 OA
BRANCH  16  17
ATOM     17  C   UNL     1       7.777   7.981  17.547  0.00  0.00    +0.000 C 
BRANCH  17  18
ATOM     18  C   UNL     1       8.133   9.424  17.883  0.00  0.00    +0.000 C 
BRANCH  18  19
ATOM     19  C   UNL     1       9.153   9.471  19.018  0.00  0.00    +0.000 C 
BRANCH  19  20
ATOM     20  C   UNL     1       9.664  10.889  19.262  0.00  0.00    +0.000 C 
BRANCH  20  21
ATOM     21  C   UNL     1      10.339  11.444  18.009  0.00  0.00    +0.000 C 
BRANCH  21  23
ATOM     22  C   UNL     1      11.705  13.346  18.920  0.00  0.00    +0.000 C 
ATOM     23  C   UNL     1      11.746  11.952  18.313  0.00  0.00    +0.000 C 
ENDBRANCH  21  23
ENDBRANCH  20  21
ENDBRANCH  19  20
ENDBRANCH  18  19
ENDBRANCH  17  18
ENDBRANCH  16  17
ENDBRANCH  15  16
ENDBRANCH   1  15
TORSDOF 8
ENDMDL
MODEL 7
REMARK VINA RESULT:      -7.1      3.094      5.614
REMARK  Name = 
REMARK  9 active torsions:
REMARK  status: ('A' for Active; 'I' for Inactive)
REMARK    1  A    between atoms: C_1  and  C_2
REMARK    2  A    between atoms: C_2  and  C_3
REMARK    3  A    between atoms: C_3  and  C_4
REMARK    4  A    between atoms: C_4  and  C_5
REMARK    5  A    between atoms: C_5  and  C_6
REMARK    6  A    between atoms: C_6  and  C_7
REMARK    7  A    between atoms: C_7  and  O_8
REMARK    8  A    between atoms: O_8  and  C_9
REMARK    9  A    between atoms: C_9  and  N_10
REMARK                            x       y       z     vdW  Elec       q    Type
REMARK                         _______ _______ _______ _____ _____    ______ ____
ROOT
ATOM      1  N   UNL     1       5.646   5.258  17.571  0.00  0.00    +0.000 N 
ATOM      2  C   UNL     1       4.841   4.425  18.347  0.00  0.00    +0.000 A 
ATOM      3  N   UNL     1       5.386   3.423  19.059  0.00  0.00    +0.000 NA
ATOM      4  N   UNL     1       4.635   2.756  19.932  0.00  0.00    +0.000 N 
ATOM      5  O   UNL     1       5.244   1.855  20.575  0.00  0.00    +0.000 OA
ATOM      6  C   UNL     1       3.290   3.035  20.145  0.00  0.00    +0.000 A 
ATOM      7  C   UNL     1       2.531   2.408  21.159  0.00  0.00    +0.000 A 
ATOM      8  C   UNL     1       1.198   2.756  21.367  0.00  0.00    +0.000 A 
ATOM      9  C   UNL     1       0.575   3.670  20.518  0.00  0.00    +0.000 A 
ATOM     10  C   UNL     1       1.304   4.269  19.489  0.00  0.00    +0.000 A 
ATOM     11  C   UNL     1       2.676   3.999  19.321  0.00  0.00    +0.000 A 
ATOM     12  N   UNL     1       3.466   4.693  18.400  0.00  0.00    +0.000 N 
ATOM     13  O   UNL     1       2.953   5.588  17.634  0.00  0.00    +0.000 OA
ATOM     14  H   UNL     1       5.069   5.706  16.856  0.00  0.00    +0.000 HD
ENDROOT
BRANCH   1  15
ATOM     15  C   UNL     1       6.854   4.673  17.078  0.00  0.00    +0.000 C 
BRANCH  15  16
ATOM     16  O   UNL     1       7.881   5.647  17.201  0.00  0.00    +0.000 OA
BRANCH  16  17
ATOM     17  C   UNL     1       7.517   6.639  18.155  0.00  0.00    +0.000 C 
BRANCH  17  18
ATOM     18  C   UNL     1       7.729   8.021  17.549  0.00  0.00    +0.000 C 
BRANCH  18  19
ATOM     19  C   UNL     1       8.656   8.852  18.433  0.00  0.00    +0.000 C 
BRANCH  19  20
ATOM     20  C   UNL     1       8.588  10.338  18.086  0.00  0.00    +0.000 C 
BRANCH  20  21
ATOM     21  C   UNL     1       9.562  11.140  18.948  0.00  0.00    +0.000 C 
BRANCH  21  23
ATOM     22  C   UNL     1      11.017  12.907  17.913  0.00  0.00    +0.000 C 
ATOM     23  C   UNL     1      10.863  11.422  18.200  0.00  0.00    +0.000 C 
ENDBRANCH  21  23
ENDBRANCH  20  21
ENDBRANCH  19  20
ENDBRANCH  18  19
ENDBRANCH  17  18
ENDBRANCH  16  17
ENDBRANCH  15  16
ENDBRANCH   1  15
TORSDOF 8
ENDMDL
MODEL 8
REMARK VINA RESULT:      -7.0      1.353      1.383
REMARK  Name = 
REMARK  9 active torsions:
REMARK  status: ('A' for Active; 'I' for Inactive)
REMARK    1  A    between atoms: C_1  and  C_2
REMARK    2  A    between atoms: C_2  and  C_3
REMARK    3  A    between atoms: C_3  and  C_4
REMARK    4  A    between atoms: C_4  and  C_5
REMARK    5  A    between atoms: C_5  and  C_6
REMARK    6  A    between atoms: C_6  and  C_7
REMARK    7  A    between atoms: C_7  and  O_8
REMARK    8  A    between atoms: O_8  and  C_9
REMARK    9  A    between atoms: C_9  and  N_10
REMARK                            x       y       z     vdW  Elec       q    Type
REMARK                         _______ _______ _______ _____ _____    ______ ____
ROOT
ATOM      1  N   UNL     1       4.997   6.239  17.001  0.00  0.00    +0.000 N 
ATOM      2  C   UNL     1       4.180   5.257  17.560  0.00  0.00    +0.000 A 
ATOM      3  N   UNL     1       4.302   3.973  17.177  0.00  0.00    +0.000 NA
ATOM      4  N   UNL     1       3.649   3.025  17.846  0.00  0.00    +0.000 N 
ATOM      5  O   UNL     1       3.852   1.849  17.431  0.00  0.00    +0.000 OA
ATOM      6  C   UNL     1       2.823   3.294  18.930  0.00  0.00    +0.000 A 
ATOM      7  C   UNL     1       2.231   2.275  19.711  0.00  0.00    +0.000 A 
ATOM      8  C   UNL     1       1.450   2.593  20.820  0.00  0.00    +0.000 A 
ATOM      9  C   UNL     1       1.176   3.926  21.121  0.00  0.00    +0.000 A 
ATOM     10  C   UNL     1       1.723   4.942  20.335  0.00  0.00    +0.000 A 
ATOM     11  C   UNL     1       2.590   4.642  19.266  0.00  0.00    +0.000 A 
ATOM     12  N   UNL     1       3.272   5.636  18.557  0.00  0.00    +0.000 N 
ATOM     13  O   UNL     1       3.100   6.879  18.834  0.00  0.00    +0.000 OA
ATOM     14  H   UNL     1       4.552   7.151  17.126  0.00  0.00    +0.000 HD
ENDROOT
BRANCH   1  15
ATOM     15  C   UNL     1       5.460   5.983  15.673  0.00  0.00    +0.000 C 
BRANCH  15  16
ATOM     16  O   UNL     1       6.834   5.635  15.760  0.00  0.00    +0.000 OA
BRANCH  16  17
ATOM     17  C   UNL     1       7.272   5.024  14.552  0.00  0.00    +0.000 C 
BRANCH  17  18
ATOM     18  C   UNL     1       6.190   4.078  14.046  0.00  0.00    +0.000 C 
BRANCH  18  19
ATOM     19  C   UNL     1       6.240   3.976  12.524  0.00  0.00    +0.000 C 
BRANCH  19  20
ATOM     20  C   UNL     1       6.222   2.524  12.052  0.00  0.00    +0.000 C 
BRANCH  20  21
ATOM     21  C   UNL     1       5.064   2.284  11.084  0.00  0.00    +0.000 C 
BRANCH  21  23
ATOM     22  C   UNL     1       3.104   3.464  10.046  0.00  0.00    +0.000 C 
ATOM     23  C   UNL     1       3.937   3.290  11.305  0.00  0.00    +0.000 C 
ENDBRANCH  21  23
ENDBRANCH  20  21
ENDBRANCH  19  20
ENDBRANCH  18  19
ENDBRANCH  17  18
ENDBRANCH  16  17
ENDBRANCH  15  16
ENDBRANCH   1  15
TORSDOF 8
ENDMDL
MODEL 9
REMARK VINA RESULT:      -7.0      0.844      1.131
REMARK  Name = 
REMARK  9 active torsions:
REMARK  status: ('A' for Active; 'I' for Inactive)
REMARK    1  A    between atoms: C_1  and  C_2
REMARK    2  A    between atoms: C_2  and  C_3
REMARK    3  A    between atoms: C_3  and  C_4
REMARK    4  A    between atoms: C_4  and  C_5
REMARK    5  A    between atoms: C_5  and  C_6
REMARK    6  A    between atoms: C_6  and  C_7
REMARK    7  A    between atoms: C_7  and  O_8
REMARK    8  A    between atoms: O_8  and  C_9
REMARK    9  A    between atoms: C_9  and  N_10
REMARK                            x       y       z     vdW  Elec       q    Type
REMARK                         _______ _______ _______ _____ _____    ______ ____
ROOT
ATOM      1  N   UNL     1       6.240   5.993  18.511  0.00  0.00    +0.000 N 
ATOM      2  C   UNL     1       5.277   5.068  18.912  0.00  0.00    +0.000 A 
ATOM      3  N   UNL     1       5.641   3.832  19.297  0.00  0.00    +0.000 NA
ATOM      4  N   UNL     1       4.736   3.026  19.848  0.00  0.00    +0.000 N 
ATOM      5  O   UNL     1       5.181   1.898  20.206  0.00  0.00    +0.000 OA
ATOM      6  C   UNL     1       3.410   3.392  20.040  0.00  0.00    +0.000 A 
ATOM      7  C   UNL     1       2.485   2.579  20.736  0.00  0.00    +0.000 A 
ATOM      8  C   UNL     1       1.178   3.011  20.947  0.00  0.00    +0.000 A 
ATOM      9  C   UNL     1       0.745   4.217  20.398  0.00  0.00    +0.000 A 
ATOM     10  C   UNL     1       1.638   5.012  19.676  0.00  0.00    +0.000 A 
ATOM     11  C   UNL     1       2.987   4.635  19.532  0.00  0.00    +0.000 A 
ATOM     12  N   UNL     1       3.937   5.478  18.947  0.00  0.00    +0.000 N 
ATOM     13  O   UNL     1       3.601   6.627  18.478  0.00  0.00    +0.000 OA
ATOM     14  H   UNL     1       5.792   6.713  17.939  0.00  0.00    +0.000 HD
ENDROOT
BRANCH   1  15
ATOM     15  C   UNL     1       7.433   5.445  17.945  0.00  0.00    +0.000 C 
BRANCH  15  16
ATOM     16  O   UNL     1       7.320   5.546  16.532  0.00  0.00    +0.000 OA
BRANCH  16  17
ATOM     17  C   UNL     1       7.372   4.256  15.934  0.00  0.00    +0.000 C 
BRANCH  17  18
ATOM     18  C   UNL     1       5.989   3.887  15.413  0.00  0.00    +0.000 C 
BRANCH  18  19
ATOM     19  C   UNL     1       5.517   4.911  14.384  0.00  0.00    +0.000 C 
BRANCH  19  20
ATOM     20  C   UNL     1       5.118   4.250  13.067  0.00  0.00    +0.000 C 
BRANCH  20  21
ATOM     21  C   UNL     1       6.194   3.266  12.608  0.00  0.00    +0.000 C 
BRANCH  21  23
ATOM     22  C   UNL     1       6.737   1.404  11.011  0.00  0.00    +0.000 C 
ATOM     23  C   UNL     1       5.627   2.234  11.637  0.00  0.00    +0.000 C 
ENDBRANCH  21  23
ENDBRANCH  20  21
ENDBRANCH  19  20
ENDBRANCH  18  19
ENDBRANCH  17  18
ENDBRANCH  16  17
ENDBRANCH  15  16
ENDBRANCH   1  15
TORSDOF 8
ENDMDL
