MODEL 1
REMARK VINA RESULT:      -6.9      0.000      0.000
REMARK  Name = 
REMARK  7 active torsions:
REMARK  status: ('A' for Active; 'I' for Inactive)
REMARK    1  A    between atoms: C_1  and  C_2
REMARK    2  A    between atoms: C_2  and  C_3
REMARK    3  A    between atoms: C_3  and  N_4
REMARK    4  A    between atoms: C_7  and  C_8
REMARK    5  A    between atoms: N_10  and  C_11
REMARK    6  A    between atoms: C_11  and  C_12
REMARK    7  A    between atoms: C_19  and  C_20
REMARK                            x       y       z     vdW  Elec       q    Type
REMARK                         _______ _______ _______ _____ _____    ______ ____
ROOT
ATOM      1  C   UNL     1       3.508   4.789  17.414  0.00  0.00    +0.000 C 
ATOM      2  O   UNL     1       2.400   5.241  17.709  0.00  0.00    +0.000 OA
ATOM      3  N   UNL     1       3.697   3.429  17.281  0.00  0.00    +0.000 N 
ATOM      4  H   UNL     1       4.612   3.053  17.073  0.00  0.00    +0.000 HD
ENDROOT
BRANCH   1   8
ATOM      5  N   UNL     1       6.573   6.717  17.470  0.00  0.00    +0.000 N 
ATOM      6  N   UNL     1       6.152   7.104  16.249  0.00  0.00    +0.000 NA
ATOM      7  C   UNL     1       4.995   6.460  16.088  0.00  0.00    +0.000 A 
ATOM      8  C   UNL     1       4.659   5.646  17.192  0.00  0.00    +0.000 A 
ATOM      9  C   UNL     1       5.711   5.837  18.080  0.00  0.00    +0.000 A 
ATOM     10  C   UNL     1       5.979   5.274  19.434  0.00  0.00    +0.000 C 
BRANCH   5  11
ATOM     11  C   UNL     1       7.826   7.234  17.984  0.00  0.00    +0.000 C 
BRANCH  11  13
ATOM     12  C   UNL     1       8.776   9.412  18.807  0.00  0.00    +0.000 C 
ATOM     13  C   UNL     1       8.001   8.722  17.698  0.00  0.00    +0.000 C 
ENDBRANCH  11  13
ENDBRANCH   5  11
ENDBRANCH   1   8
BRANCH   3  14
ATOM     14  C   UNL     1       2.596   2.536  17.554  0.00  0.00    +0.000 C 
BRANCH  14  15
ATOM     15  C   UNL     1       2.538   2.080  19.014  0.00  0.00    +0.000 C 
ATOM     16  C   UNL     1       3.859   2.276  19.775  0.00  0.00    +0.000 C 
ATOM     17  C   UNL     1       3.510   2.135  21.252  0.00  0.00    +0.000 C 
ATOM     18  S   UNL     1       2.001   3.059  21.436  0.00  0.00    +0.000 S 
ATOM     19  O   UNL     1       2.344   4.448  21.667  0.00  0.00    +0.000 OA
ATOM     20  O   UNL     1       1.098   2.330  22.299  0.00  0.00    +0.000 OA
ATOM     21  C   UNL     1       1.462   2.894  19.748  0.00  0.00    +0.000 C 
ENDBRANCH  14  15
ENDBRANCH   3  14
TORSDOF 5
ENDMDL
MODEL 2
REMARK VINA RESULT:      -6.9      2.488      3.891
REMARK  Name = 
REMARK  7 active torsions:
REMARK  status: ('A' for Active; 'I' for Inactive)
REMARK    1  A    between atoms: C_1  and  C_2
REMARK    2  A    between atoms: C_2  and  C_3
REMARK    3  A    between atoms: C_3  and  N_4
REMARK    4  A    between atoms: C_7  and  C_8
REMARK    5  A    between atoms: N_10  and  C_11
REMARK    6  A    between atoms: C_11  and  C_12
REMARK    7  A    between atoms: C_19  and  C_20
REMARK                            x       y       z     vdW  Elec       q    Type
REMARK                         _______ _______ _______ _____ _____    ______ ____
ROOT
ATOM      1  C   UNL     1       5.597   4.465  18.860  0.00  0.00    +0.000 C 
ATOM      2  O   UNL     1       5.483   5.299  19.759  0.00  0.00    +0.000 OA
ATOM      3  N   UNL     1       5.181   3.164  19.053  0.00  0.00    +0.000 N 
ATOM      4  H   UNL     1       5.305   2.470  18.329  0.00  0.00    +0.000 HD
ENDROOT
BRANCH   1   8
ATOM      5  N   UNL     1       6.437   5.048  15.386  0.00  0.00    +0.000 N 
ATOM      6  N   UNL     1       7.575   5.537  15.920  0.00  0.00    +0.000 NA
ATOM      7  C   UNL     1       7.409   5.378  17.233  0.00  0.00    +0.000 A 
ATOM      8  C   UNL     1       6.166   4.797  17.565  0.00  0.00    +0.000 A 
ATOM      9  C   UNL     1       5.554   4.591  16.334  0.00  0.00    +0.000 A 
ATOM     10  C   UNL     1       4.229   4.013  15.971  0.00  0.00    +0.000 C 
BRANCH   5  11
ATOM     11  C   UNL     1       6.269   5.060  13.946  0.00  0.00    +0.000 C 
BRANCH  11  13
ATOM     12  C   UNL     1       5.515   3.388  12.225  0.00  0.00    +0.000 C 
ATOM     13  C   UNL     1       6.521   3.692  13.320  0.00  0.00    +0.000 C 
ENDBRANCH  11  13
ENDBRANCH   5  11
ENDBRANCH   1   8
BRANCH   3  14
ATOM     14  C   UNL     1       4.668   2.775  20.345  0.00  0.00    +0.000 C 
BRANCH  14  15
ATOM     15  C   UNL     1       3.144   2.634  20.371  0.00  0.00    +0.000 C 
ATOM     16  C   UNL     1       2.409   3.933  20.738  0.00  0.00    +0.000 C 
ATOM     17  C   UNL     1       0.953   3.709  20.347  0.00  0.00    +0.000 C 
ATOM     18  S   UNL     1       1.043   2.924  18.754  0.00  0.00    +0.000 S 
ATOM     19  O   UNL     1       1.138   3.959  17.743  0.00  0.00    +0.000 OA
ATOM     20  O   UNL     1       0.060   1.865  18.688  0.00  0.00    +0.000 OA
ATOM     21  C   UNL     1       2.660   2.215  18.974  0.00  0.00    +0.000 C 
ENDBRANCH  14  15
ENDBRANCH   3  14
TORSDOF 5
ENDMDL
MODEL 3
REMARK VINA RESULT:      -6.9      2.458      3.769
REMARK  Name = 
REMARK  7 active torsions:
REMARK  status: ('A' for Active; 'I' for Inactive)
REMARK    1  A    between atoms: C_1  and  C_2
REMARK    2  A    between atoms: C_2  and  C_3
REMARK    3  A    between atoms: C_3  and  N_4
REMARK    4  A    between atoms: C_7  and  C_8
REMARK    5  A    between atoms: N_10  and  C_11
REMARK    6  A    between atoms: C_11  and  C_12
REMARK    7  A    between atoms: C_19  and  C_20
REMARK                            x       y       z     vdW  Elec       q    Type
REMARK                         _______ _______ _______ _____ _____    ______ ____
ROOT
ATOM      1  C   UNL     1       4.460   5.902  18.635  0.00  0.00    +0.000 C 
ATOM      2  O   UNL     1       4.973   5.744  19.744  0.00  0.00    +0.000 OA
ATOM      3  N   UNL     1       3.145   6.302  18.522  0.00  0.00    +0.000 N 
ATOM      4  H   UNL     1       2.710   6.399  17.615  0.00  0.00    +0.000 HD
ENDROOT
BRANCH   1   8
ATOM      5  N   UNL     1       6.004   4.746  15.570  0.00  0.00    +0.000 N 
ATOM      6  N   UNL     1       6.562   5.974  15.588  0.00  0.00    +0.000 NA
ATOM      7  C   UNL     1       6.077   6.531  16.698  0.00  0.00    +0.000 A 
ATOM      8  C   UNL     1       5.197   5.682  17.402  0.00  0.00    +0.000 A 
ATOM      9  C   UNL     1       5.172   4.520  16.639  0.00  0.00    +0.000 A 
ATOM     10  C   UNL     1       4.443   3.232  16.820  0.00  0.00    +0.000 C 
BRANCH   5  11
ATOM     11  C   UNL     1       6.317   3.842  14.481  0.00  0.00    +0.000 C 
BRANCH  11  13
ATOM     12  C   UNL     1       5.809   3.188  12.106  0.00  0.00    +0.000 C 
ATOM     13  C   UNL     1       5.336   3.968  13.320  0.00  0.00    +0.000 C 
ENDBRANCH  11  13
ENDBRANCH   5  11
ENDBRANCH   1   8
BRANCH   3  14
ATOM     14  C   UNL     1       2.356   6.471  19.720  0.00  0.00    +0.000 C 
BRANCH  14  15
ATOM     15  C   UNL     1       1.618   5.199  20.141  0.00  0.00    +0.000 C 
ATOM     16  C   UNL     1       1.547   4.132  19.036  0.00  0.00    +0.000 C 
ATOM     17  C   UNL     1       1.136   2.841  19.733  0.00  0.00    +0.000 C 
ATOM     18  S   UNL     1       2.122   2.810  21.213  0.00  0.00    +0.000 S 
ATOM     19  O   UNL     1       3.402   2.210  20.893  0.00  0.00    +0.000 OA
ATOM     20  O   UNL     1       1.308   2.355  22.319  0.00  0.00    +0.000 OA
ATOM     21  C   UNL     1       2.350   4.570  21.336  0.00  0.00    +0.000 C 
ENDBRANCH  14  15
ENDBRANCH   3  14
TORSDOF 5
ENDMDL
MODEL 4
REMARK VINA RESULT:      -6.7      4.623      6.126
REMARK  Name = 
REMARK  7 active torsions:
REMARK  status: ('A' for Active; 'I' for Inactive)
REMARK    1  A    between atoms: C_1  and  C_2
REMARK    2  A    between atoms: C_2  and  C_3
REMARK    3  A    between atoms: C_3  and  N_4
REMARK    4  A    between atoms: C_7  and  C_8
REMARK    5  A    between atoms: N_10  and  C_11
REMARK    6  A    between atoms: C_11  and  C_12
REMARK    7  A    between atoms: C_19  and  C_20
REMARK                            x       y       z     vdW  Elec       q    Type
REMARK                         _______ _______ _______ _____ _____    ______ ____
ROOT
ATOM      1  C   UNL     1       2.623   5.855  19.562  0.00  0.00    +0.000 C 
ATOM      2  O   UNL     1       1.937   4.897  19.200  0.00  0.00    +0.000 OA
ATOM      3  N   UNL     1       3.986   5.722  19.717  0.00  0.00    +0.000 N 
ATOM      4  H   UNL     1       4.546   6.497  20.047  0.00  0.00    +0.000 HD
ENDROOT
BRANCH   1   8
ATOM      5  N   UNL     1       1.350   9.245  19.619  0.00  0.00    +0.000 N 
ATOM      6  N   UNL     1       1.018   8.918  20.884  0.00  0.00    +0.000 NA
ATOM      7  C   UNL     1       1.444   7.661  21.014  0.00  0.00    +0.000 A 
ATOM      8  C   UNL     1       2.044   7.158  19.840  0.00  0.00    +0.000 A 
ATOM      9  C   UNL     1       1.969   8.219  18.945  0.00  0.00    +0.000 A 
ATOM     10  C   UNL     1       2.419   8.356  17.530  0.00  0.00    +0.000 C 
BRANCH   5  11
ATOM     11  C   UNL     1       1.033  10.570  19.123  0.00  0.00    +0.000 C 
BRANCH  11  13
ATOM     12  C   UNL     1      -1.079  10.160  17.821  0.00  0.00    +0.000 C 
ATOM     13  C   UNL     1      -0.470  10.818  19.047  0.00  0.00    +0.000 C 
ENDBRANCH  11  13
ENDBRANCH   5  11
ENDBRANCH   1   8
BRANCH   3  14
ATOM     14  C   UNL     1       4.595   4.429  19.513  0.00  0.00    +0.000 C 
BRANCH  14  15
ATOM     15  C   UNL     1       5.415   4.346  18.223  0.00  0.00    +0.000 C 
ATOM     16  C   UNL     1       4.599   3.900  16.999  0.00  0.00    +0.000 C 
ATOM     17  C   UNL     1       5.455   4.239  15.785  0.00  0.00    +0.000 C 
ATOM     18  S   UNL     1       6.089   5.863  16.136  0.00  0.00    +0.000 S 
ATOM     19  O   UNL     1       5.110   6.837  15.696  0.00  0.00    +0.000 OA
ATOM     20  O   UNL     1       7.479   5.929  15.739  0.00  0.00    +0.000 OA
ATOM     21  C   UNL     1       5.988   5.737  17.907  0.00  0.00    +0.000 C 
ENDBRANCH  14  15
ENDBRANCH   3  14
TORSDOF 5
ENDMDL
MODEL 5
REMARK VINA RESULT:      -6.6      2.474      3.678
REMARK  Name = 
REMARK  7 active torsions:
REMARK  status: ('A' for Active; 'I' for Inactive)
REMARK    1  A    between atoms: C_1  and  C_2
REMARK    2  A    between atoms: C_2  and  C_3
REMARK    3  A    between atoms: C_3  and  N_4
REMARK    4  A    between atoms: C_7  and  C_8
REMARK    5  A    between atoms: N_10  and  C_11
REMARK    6  A    between atoms: C_11  and  C_12
REMARK    7  A    between atoms: C_19  and  C_20
REMARK                            x       y       z     vdW  Elec       q    Type
REMARK                         _______ _______ _______ _____ _____    ______ ____
ROOT
ATOM      1  C   UNL     1       5.110   5.574  18.653  0.00  0.00    +0.000 C 
ATOM      2  O   UNL     1       5.479   5.663  19.825  0.00  0.00    +0.000 OA
ATOM      3  N   UNL     1       3.801   5.835  18.309  0.00  0.00    +0.000 N 
ATOM      4  H   UNL     1       3.487   5.730  17.354  0.00  0.00    +0.000 HD
ENDROOT
BRANCH   1   8
ATOM      5  N   UNL     1       6.949   4.976  15.591  0.00  0.00    +0.000 N 
ATOM      6  N   UNL     1       7.775   4.304  16.419  0.00  0.00    +0.000 NA
ATOM      7  C   UNL     1       7.206   4.435  17.617  0.00  0.00    +0.000 A 
ATOM      8  C   UNL     1       6.018   5.196  17.583  0.00  0.00    +0.000 A 
ATOM      9  C   UNL     1       5.876   5.534  16.242  0.00  0.00    +0.000 A 
ATOM     10  C   UNL     1       4.836   6.326  15.525  0.00  0.00    +0.000 C 
BRANCH   5  11
ATOM     11  C   UNL     1       7.264   5.043  14.177  0.00  0.00    +0.000 C 
BRANCH  11  13
ATOM     12  C   UNL     1       7.038   3.902  11.948  0.00  0.00    +0.000 C 
ATOM     13  C   UNL     1       6.493   4.010  13.361  0.00  0.00    +0.000 C 
ENDBRANCH  11  13
ENDBRANCH   5  11
ENDBRANCH   1   8
BRANCH   3  14
ATOM     14  C   UNL     1       2.851   6.153  19.348  0.00  0.00    +0.000 C 
BRANCH  14  15
ATOM     15  C   UNL     1       2.019   4.948  19.794  0.00  0.00    +0.000 C 
ATOM     16  C   UNL     1       2.216   3.702  18.914  0.00  0.00    +0.000 C 
ATOM     17  C   UNL     1       1.633   2.539  19.707  0.00  0.00    +0.000 C 
ATOM     18  S   UNL     1       2.220   2.802  21.366  0.00  0.00    +0.000 S 
ATOM     19  O   UNL     1       3.534   2.202  21.483  0.00  0.00    +0.000 OA
ATOM     20  O   UNL     1       1.153   2.519  22.300  0.00  0.00    +0.000 OA
ATOM     21  C   UNL     1       2.426   4.564  21.225  0.00  0.00    +0.000 C 
ENDBRANCH  14  15
ENDBRANCH   3  14
TORSDOF 5
ENDMDL
MODEL 6
REMARK VINA RESULT:      -6.5      4.694      5.876
REMARK  Name = 
REMARK  7 active torsions:
REMARK  status: ('A' for Active; 'I' for Inactive)
REMARK    1  A    between atoms: C_1  and  C_2
REMARK    2  A    between atoms: C_2  and  C_3
REMARK    3  A    between atoms: C_3  and  N_4
REMARK    4  A    between atoms: C_7  and  C_8
REMARK    5  A    between atoms: N_10  and  C_11
REMARK    6  A    between atoms: C_11  and  C_12
REMARK    7  A    between atoms: C_19  and  C_20
REMARK                            x       y       z     vdW  Elec       q    Type
REMARK                         _______ _______ _______ _____ _____    ______ ____
ROOT
ATOM      1  C   UNL     1       2.841   6.316  18.936  0.00  0.00    +0.000 C 
ATOM      2  O   UNL     1       3.222   5.922  20.040  0.00  0.00    +0.000 OA
ATOM      3  N   UNL     1       2.872   5.475  17.843  0.00  0.00    +0.000 N 
ATOM      4  H   UNL     1       2.592   5.805  16.929  0.00  0.00    +0.000 HD
ENDROOT
BRANCH   1   8
ATOM      5  N   UNL     1       1.363   9.620  19.034  0.00  0.00    +0.000 N 
ATOM      6  N   UNL     1       1.875   9.701  17.789  0.00  0.00    +0.000 NA
ATOM      7  C   UNL     1       2.461   8.518  17.605  0.00  0.00    +0.000 A 
ATOM      8  C   UNL     1       2.346   7.665  18.724  0.00  0.00    +0.000 A 
ATOM      9  C   UNL     1       1.620   8.415  19.642  0.00  0.00    +0.000 A 
ATOM     10  C   UNL     1       1.152   8.108  21.024  0.00  0.00    +0.000 C 
BRANCH   5  11
ATOM     11  C   UNL     1       0.638  10.753  19.576  0.00  0.00    +0.000 C 
BRANCH  11  13
ATOM     12  C   UNL     1      -1.573  10.345  18.449  0.00  0.00    +0.000 C 
ATOM     13  C   UNL     1      -0.401  11.299  18.602  0.00  0.00    +0.000 C 
ENDBRANCH  11  13
ENDBRANCH   5  11
ENDBRANCH   1   8
BRANCH   3  14
ATOM     14  C   UNL     1       3.415   4.146  17.994  0.00  0.00    +0.000 C 
BRANCH  14  15
ATOM     15  C   UNL     1       4.805   3.989  17.373  0.00  0.00    +0.000 C 
ATOM     16  C   UNL     1       5.058   4.926  16.181  0.00  0.00    +0.000 C 
ATOM     17  C   UNL     1       6.564   4.905  15.950  0.00  0.00    +0.000 C 
ATOM     18  S   UNL     1       7.259   5.012  17.584  0.00  0.00    +0.000 S 
ATOM     19  O   UNL     1       7.351   6.412  17.947  0.00  0.00    +0.000 OA
ATOM     20  O   UNL     1       8.385   4.110  17.684  0.00  0.00    +0.000 OA
ATOM     21  C   UNL     1       5.865   4.309  18.438  0.00  0.00    +0.000 C 
ENDBRANCH  14  15
ENDBRANCH   3  14
TORSDOF 5
ENDMDL
MODEL 7
REMARK VINA RESULT:      -6.3      4.667      5.550
REMARK  Name = 
REMARK  7 active torsions:
REMARK  status: ('A' for Active; 'I' for Inactive)
REMARK    1  A    between atoms: C_1  and  C_2
REMARK    2  A    between atoms: C_2  and  C_3
REMARK    3  A    between atoms: C_3  and  N_4
REMARK    4  A    between atoms: C_7  and  C_8
REMARK    5  A    between atoms: N_10  and  C_11
REMARK    6  A    between atoms: C_11  and  C_12
REMARK    7  A    between atoms: C_19  and  C_20
REMARK                            x       y       z     vdW  Elec       q    Type
REMARK                         _______ _______ _______ _____ _____    ______ ____
ROOT
ATOM      1  C   UNL     1       2.784   6.266  18.934  0.00  0.00    +0.000 C 
ATOM      2  O   UNL     1       3.051   5.851  20.063  0.00  0.00    +0.000 OA
ATOM      3  N   UNL     1       2.895   5.437  17.838  0.00  0.00    +0.000 N 
ATOM      4  H   UNL     1       2.710   5.785  16.907  0.00  0.00    +0.000 HD
ENDROOT
BRANCH   1   8
ATOM      5  N   UNL     1       1.442   9.630  18.966  0.00  0.00    +0.000 N 
ATOM      6  N   UNL     1       1.960   9.666  17.721  0.00  0.00    +0.000 NA
ATOM      7  C   UNL     1       2.498   8.456  17.562  0.00  0.00    +0.000 A 
ATOM      8  C   UNL     1       2.345   7.631  18.696  0.00  0.00    +0.000 A 
ATOM      9  C   UNL     1       1.648   8.427  19.598  0.00  0.00    +0.000 A 
ATOM     10  C   UNL     1       1.165   8.165  20.984  0.00  0.00    +0.000 C 
BRANCH   5  11
ATOM     11  C   UNL     1       0.764  10.802  19.484  0.00  0.00    +0.000 C 
BRANCH  11  13
ATOM     12  C   UNL     1       1.840  12.963  20.190  0.00  0.00    +0.000 C 
ATOM     13  C   UNL     1       1.408  12.102  19.015  0.00  0.00    +0.000 C 
ENDBRANCH  11  13
ENDBRANCH   5  11
ENDBRANCH   1   8
BRANCH   3  14
ATOM     14  C   UNL     1       3.388   4.093  18.021  0.00  0.00    +0.000 C 
BRANCH  14  15
ATOM     15  C   UNL     1       4.782   3.876  17.426  0.00  0.00    +0.000 C 
ATOM     16  C   UNL     1       5.022   4.648  16.119  0.00  0.00    +0.000 C 
ATOM     17  C   UNL     1       6.529   4.620  15.893  0.00  0.00    +0.000 C 
ATOM     18  S   UNL     1       7.218   4.958  17.498  0.00  0.00    +0.000 S 
ATOM     19  O   UNL     1       7.287   6.396  17.668  0.00  0.00    +0.000 OA
ATOM     20  O   UNL     1       8.359   4.096  17.718  0.00  0.00    +0.000 OA
ATOM     21  C   UNL     1       5.834   4.354  18.438  0.00  0.00    +0.000 C 
ENDBRANCH  14  15
ENDBRANCH   3  14
TORSDOF 5
ENDMDL
MODEL 8
REMARK VINA RESULT:      -6.3      5.176      6.439
REMARK  Name = 
REMARK  7 active torsions:
REMARK  status: ('A' for Active; 'I' for Inactive)
REMARK    1  A    between atoms: C_1  and  C_2
REMARK    2  A    between atoms: C_2  and  C_3
REMARK    3  A    between atoms: C_3  and  N_4
REMARK    4  A    between atoms: C_7  and  C_8
REMARK    5  A    between atoms: N_10  and  C_11
REMARK    6  A    between atoms: C_11  and  C_12
REMARK    7  A    between atoms: C_19  and  C_20
REMARK                            x       y       z     vdW  Elec       q    Type
REMARK                         _______ _______ _______ _____ _____    ______ ____
ROOT
ATOM      1  C   UNL     1       2.163   6.428  20.240  0.00  0.00    +0.000 C 
ATOM      2  O   UNL     1       1.491   5.454  20.583  0.00  0.00    +0.000 OA
ATOM      3  N   UNL     1       3.419   6.256  19.697  0.00  0.00    +0.000 N 
ATOM      4  H   UNL     1       3.987   7.054  19.447  0.00  0.00    +0.000 HD
ENDROOT
BRANCH   1   8
ATOM      5  N   UNL     1       1.070   9.867  19.938  0.00  0.00    +0.000 N 
ATOM      6  N   UNL     1       0.857   9.737  21.264  0.00  0.00    +0.000 NA
ATOM      7  C   UNL     1       1.233   8.486  21.529  0.00  0.00    +0.000 A 
ATOM      8  C   UNL     1       1.681   7.791  20.385  0.00  0.00    +0.000 A 
ATOM      9  C   UNL     1       1.564   8.722  19.360  0.00  0.00    +0.000 A 
ATOM     10  C   UNL     1       1.868   8.636  17.904  0.00  0.00    +0.000 C 
BRANCH   5  11
ATOM     11  C   UNL     1       0.766  11.129  19.293  0.00  0.00    +0.000 C 
BRANCH  11  13
ATOM     12  C   UNL     1      -1.117  12.392  18.205  0.00  0.00    +0.000 C 
ATOM     13  C   UNL     1      -0.721  11.464  19.340  0.00  0.00    +0.000 C 
ENDBRANCH  11  13
ENDBRANCH   5  11
ENDBRANCH   1   8
BRANCH   3  14
ATOM     14  C   UNL     1       3.964   4.923  19.593  0.00  0.00    +0.000 C 
BRANCH  14  15
ATOM     15  C   UNL     1       4.734   4.687  18.292  0.00  0.00    +0.000 C 
ATOM     16  C   UNL     1       4.190   5.488  17.098  0.00  0.00    +0.000 C 
ATOM     17  C   UNL     1       5.275   5.427  16.030  0.00  0.00    +0.000 C 
ATOM     18  S   UNL     1       6.787   5.703  16.925  0.00  0.00    +0.000 S 
ATOM     19  O   UNL     1       6.997   7.133  17.033  0.00  0.00    +0.000 OA
ATOM     20  O   UNL     1       7.806   4.805  16.427  0.00  0.00    +0.000 OA
ATOM     21  C   UNL     1       6.197   5.109  18.495  0.00  0.00    +0.000 C 
ENDBRANCH  14  15
ENDBRANCH   3  14
TORSDOF 5
ENDMDL
MODEL 9
REMARK VINA RESULT:      -6.3      6.661      7.357
REMARK  Name = 
REMARK  7 active torsions:
REMARK  status: ('A' for Active; 'I' for Inactive)
REMARK    1  A    between atoms: C_1  and  C_2
REMARK    2  A    between atoms: C_2  and  C_3
REMARK    3  A    between atoms: C_3  and  N_4
REMARK    4  A    between atoms: C_7  and  C_8
REMARK    5  A    between atoms: N_10  and  C_11
REMARK    6  A    between atoms: C_11  and  C_12
REMARK    7  A    between atoms: C_19  and  C_20
REMARK                            x       y       z     vdW  Elec       q    Type
REMARK                         _______ _______ _______ _____ _____    ______ ____
ROOT
ATOM      1  C   UNL     1       1.263   8.617  20.418  0.00  0.00    +0.000 C 
ATOM      2  O   UNL     1       1.438   8.992  19.258  0.00  0.00    +0.000 OA
ATOM      3  N   UNL     1       1.672   7.363  20.819  0.00  0.00    +0.000 N 
ATOM      4  H   UNL     1       1.499   7.040  21.762  0.00  0.00    +0.000 HD
ENDROOT
BRANCH   1   8
ATOM      5  N   UNL     1      -0.410  11.151  22.394  0.00  0.00    +0.000 N 
ATOM      6  N   UNL     1      -0.227  10.255  23.386  0.00  0.00    +0.000 NA
ATOM      7  C   UNL     1       0.402   9.241  22.792  0.00  0.00    +0.000 A 
ATOM      8  C   UNL     1       0.626   9.461  21.416  0.00  0.00    +0.000 A 
ATOM      9  C   UNL     1       0.084  10.720  21.186  0.00  0.00    +0.000 A 
ATOM     10  C   UNL     1      -0.013  11.546  19.949  0.00  0.00    +0.000 C 
BRANCH   5  11
ATOM     11  C   UNL     1      -1.078  12.404  22.685  0.00  0.00    +0.000 C 
BRANCH  11  13
ATOM     12  C   UNL     1      -3.345  12.336  23.771  0.00  0.00    +0.000 C 
ATOM     13  C   UNL     1      -2.584  12.328  22.458  0.00  0.00    +0.000 C 
ENDBRANCH  11  13
ENDBRANCH   5  11
ENDBRANCH   1   8
BRANCH   3  14
ATOM     14  C   UNL     1       2.252   6.468  19.846  0.00  0.00    +0.000 C 
BRANCH  14  15
ATOM     15  C   UNL     1       2.668   5.120  20.439  0.00  0.00    +0.000 C 
ATOM     16  C   UNL     1       1.527   4.091  20.493  0.00  0.00    +0.000 C 
ATOM     17  C   UNL     1       2.195   2.745  20.740  0.00  0.00    +0.000 C 
ATOM     18  S   UNL     1       3.604   2.750  19.654  0.00  0.00    +0.000 S 
ATOM     19  O   UNL     1       3.175   2.280  18.352  0.00  0.00    +0.000 OA
ATOM     20  O   UNL     1       4.741   2.184  20.346  0.00  0.00    +0.000 OA
ATOM     21  C   UNL     1       3.784   4.518  19.573  0.00  0.00    +0.000 C 
ENDBRANCH  14  15
ENDBRANCH   3  14
TORSDOF 5
ENDMDL
