MODEL 1
REMARK VINA RESULT:      -6.9      0.000      0.000
REMARK  Name = 
REMARK  8 active torsions:
REMARK  status: ('A' for Active; 'I' for Inactive)
REMARK    1  A    between atoms: C_1  and  C_2
REMARK    2  A    between atoms: C_2  and  C_3
REMARK    3  A    between atoms: C_3  and  C_4
REMARK    4  A    between atoms: C_3  and  C_5
REMARK    5  A    between atoms: N_13  and  C_14
REMARK    6  A    between atoms: C_14  and  O_15
REMARK    7  A    between atoms: O_15  and  C_16
REMARK    8  A    between atoms: C_16  and  C_18
REMARK                            x       y       z     vdW  Elec       q    Type
REMARK                         _______ _______ _______ _____ _____    ______ ____
ROOT
ATOM      1  C   UNL     1       6.062   3.929  12.882  0.00  0.00    +0.000 A 
ATOM      2  C   UNL     1       7.160   4.329  12.086  0.00  0.00    +0.000 A 
ATOM      3  C   UNL     1       8.209   5.118  12.597  0.00  0.00    +0.000 A 
ATOM      4  C   UNL     1       8.210   5.508  13.927  0.00  0.00    +0.000 A 
ATOM      5  C   UNL     1       7.126   5.128  14.697  0.00  0.00    +0.000 A 
ATOM      6  C   UNL     1       6.050   4.385  14.204  0.00  0.00    +0.000 A 
ATOM      7  C   UNL     1       5.018   4.169  15.250  0.00  0.00    +0.000 C 
ATOM      8  O   UNL     1       3.885   3.769  15.082  0.00  0.00    +0.000 OA
ATOM      9  N   UNL     1       5.541   4.562  16.493  0.00  0.00    +0.000 N 
ATOM     10  S   UNL     1       6.964   5.422  16.403  0.00  0.00    +0.000 S 
ATOM     11  O   UNL     1       6.689   6.826  16.603  0.00  0.00    +0.000 OA
ATOM     12  O   UNL     1       8.025   4.711  17.078  0.00  0.00    +0.000 OA
ENDROOT
BRANCH   1  13
ATOM     13  C   UNL     1       4.994   3.007  12.313  0.00  0.00    +0.000 C 
ATOM     14  C   UNL     1       5.637   1.901  11.460  0.00  0.00    +0.000 C 
BRANCH  13  16
ATOM     15  C   UNL     1       3.375   2.926  10.332  0.00  0.00    +0.000 C 
ATOM     16  C   UNL     1       3.918   3.745  11.495  0.00  0.00    +0.000 C 
ENDBRANCH  13  16
ENDBRANCH   1  13
BRANCH   9  17
ATOM     17  C   UNL     1       4.865   4.440  17.761  0.00  0.00    +0.000 C 
BRANCH  17  18
ATOM     18  O   UNL     1       4.956   3.090  18.208  0.00  0.00    +0.000 OA
BRANCH  18  19
ATOM     19  C   UNL     1       3.808   2.375  18.192  0.00  0.00    +0.000 C 
ATOM     20  O   UNL     1       3.523   1.507  17.388  0.00  0.00    +0.000 OA
BRANCH  19  21
ATOM     21  C   UNL     1       2.966   2.777  19.343  0.00  0.00    +0.000 A 
ATOM     22  C   UNL     1       1.825   3.574  19.136  0.00  0.00    +0.000 A 
ATOM     23 CL   UNL     1       1.291   4.102  17.576  0.00  0.00    +0.000 Cl
ATOM     24  C   UNL     1       1.029   3.974  20.222  0.00  0.00    +0.000 A 
ATOM     25  C   UNL     1       1.346   3.569  21.516  0.00  0.00    +0.000 A 
ATOM     26  C   UNL     1       2.471   2.784  21.732  0.00  0.00    +0.000 A 
ATOM     27  C   UNL     1       3.291   2.405  20.662  0.00  0.00    +0.000 A 
ATOM     28 CL   UNL     1       4.726   1.532  21.097  0.00  0.00    +0.000 Cl
ENDBRANCH  19  21
ENDBRANCH  18  19
ENDBRANCH  17  18
ENDBRANCH   9  17
TORSDOF 6
ENDMDL
MODEL 2
REMARK VINA RESULT:      -6.9      0.194      1.751
REMARK  Name = 
REMARK  8 active torsions:
REMARK  status: ('A' for Active; 'I' for Inactive)
REMARK    1  A    between atoms: C_1  and  C_2
REMARK    2  A    between atoms: C_2  and  C_3
REMARK    3  A    between atoms: C_3  and  C_4
REMARK    4  A    between atoms: C_3  and  C_5
REMARK    5  A    between atoms: N_13  and  C_14
REMARK    6  A    between atoms: C_14  and  O_15
REMARK    7  A    between atoms: O_15  and  C_16
REMARK    8  A    between atoms: C_16  and  C_18
REMARK                            x       y       z     vdW  Elec       q    Type
REMARK                         _______ _______ _______ _____ _____    ______ ____
ROOT
ATOM      1  C   UNL     1       6.189   4.022  12.844  0.00  0.00    +0.000 A 
ATOM      2  C   UNL     1       7.313   4.418  12.083  0.00  0.00    +0.000 A 
ATOM      3  C   UNL     1       8.329   5.236  12.615  0.00  0.00    +0.000 A 
ATOM      4  C   UNL     1       8.270   5.660  13.933  0.00  0.00    +0.000 A 
ATOM      5  C   UNL     1       7.161   5.283  14.669  0.00  0.00    +0.000 A 
ATOM      6  C   UNL     1       6.117   4.512  14.153  0.00  0.00    +0.000 A 
ATOM      7  C   UNL     1       5.047   4.307  15.162  0.00  0.00    +0.000 C 
ATOM      8  O   UNL     1       3.928   3.885  14.959  0.00  0.00    +0.000 OA
ATOM      9  N   UNL     1       5.513   4.739  16.414  0.00  0.00    +0.000 N 
ATOM     10  S   UNL     1       6.927   5.618  16.358  0.00  0.00    +0.000 S 
ATOM     11  O   UNL     1       6.624   7.022  16.510  0.00  0.00    +0.000 OA
ATOM     12  O   UNL     1       7.969   4.940  17.094  0.00  0.00    +0.000 OA
ENDROOT
BRANCH   1  13
ATOM     13  C   UNL     1       5.158   3.070  12.257  0.00  0.00    +0.000 C 
ATOM     14  C   UNL     1       5.853   1.909  11.526  0.00  0.00    +0.000 C 
BRANCH  13  16
ATOM     15  C   UNL     1       3.152   2.794  10.691  0.00  0.00    +0.000 C 
ATOM     16  C   UNL     1       4.151   3.758  11.317  0.00  0.00    +0.000 C 
ENDBRANCH  13  16
ENDBRANCH   1  13
BRANCH   9  17
ATOM     17  C   UNL     1       4.788   4.640  17.657  0.00  0.00    +0.000 C 
BRANCH  17  18
ATOM     18  O   UNL     1       4.990   3.341  18.209  0.00  0.00    +0.000 OA
BRANCH  18  19
ATOM     19  C   UNL     1       3.923   2.509  18.186  0.00  0.00    +0.000 C 
ATOM     20  O   UNL     1       3.746   1.604  17.392  0.00  0.00    +0.000 OA
BRANCH  19  21
ATOM     21  C   UNL     1       3.024   2.837  19.317  0.00  0.00    +0.000 A 
ATOM     22  C   UNL     1       3.339   2.400  20.617  0.00  0.00    +0.000 A 
ATOM     23 CL   UNL     1       4.771   1.510  21.010  0.00  0.00    +0.000 Cl
ATOM     24  C   UNL     1       2.486   2.692  21.693  0.00  0.00    +0.000 A 
ATOM     25  C   UNL     1       1.326   3.437  21.492  0.00  0.00    +0.000 A 
ATOM     26  C   UNL     1       1.005   3.872  20.214  0.00  0.00    +0.000 A 
ATOM     27  C   UNL     1       1.831   3.561  19.126  0.00  0.00    +0.000 A 
ATOM     28 CL   UNL     1       1.240   4.064  17.575  0.00  0.00    +0.000 Cl
ENDBRANCH  19  21
ENDBRANCH  18  19
ENDBRANCH  17  18
ENDBRANCH   9  17
TORSDOF 6
ENDMDL
MODEL 3
REMARK VINA RESULT:      -6.9      2.114      2.382
REMARK  Name = 
REMARK  8 active torsions:
REMARK  status: ('A' for Active; 'I' for Inactive)
REMARK    1  A    between atoms: C_1  and  C_2
REMARK    2  A    between atoms: C_2  and  C_3
REMARK    3  A    between atoms: C_3  and  C_4
REMARK    4  A    between atoms: C_3  and  C_5
REMARK    5  A    between atoms: N_13  and  C_14
REMARK    6  A    between atoms: C_14  and  O_15
REMARK    7  A    between atoms: O_15  and  C_16
REMARK    8  A    between atoms: C_16  and  C_18
REMARK                            x       y       z     vdW  Elec       q    Type
REMARK                         _______ _______ _______ _____ _____    ______ ____
ROOT
ATOM      1  C   UNL     1       6.090   3.951  12.890  0.00  0.00    +0.000 A 
ATOM      2  C   UNL     1       7.149   4.458  12.102  0.00  0.00    +0.000 A 
ATOM      3  C   UNL     1       8.177   5.251  12.649  0.00  0.00    +0.000 A 
ATOM      4  C   UNL     1       8.197   5.538  14.004  0.00  0.00    +0.000 A 
ATOM      5  C   UNL     1       7.151   5.053  14.767  0.00  0.00    +0.000 A 
ATOM      6  C   UNL     1       6.094   4.304  14.243  0.00  0.00    +0.000 A 
ATOM      7  C   UNL     1       5.101   3.964  15.294  0.00  0.00    +0.000 C 
ATOM      8  O   UNL     1       3.981   3.529  15.121  0.00  0.00    +0.000 OA
ATOM      9  N   UNL     1       5.640   4.282  16.551  0.00  0.00    +0.000 N 
ATOM     10  S   UNL     1       7.023   5.208  16.494  0.00  0.00    +0.000 S 
ATOM     11  O   UNL     1       6.695   6.579  16.809  0.00  0.00    +0.000 OA
ATOM     12  O   UNL     1       8.130   4.494  17.087  0.00  0.00    +0.000 OA
ENDROOT
BRANCH   1  13
ATOM     13  C   UNL     1       5.047   3.030  12.276  0.00  0.00    +0.000 C 
ATOM     14  C   UNL     1       5.723   1.935  11.435  0.00  0.00    +0.000 C 
BRANCH  13  16
ATOM     15  C   UNL     1       3.296   2.876  10.414  0.00  0.00    +0.000 C 
ATOM     16  C   UNL     1       3.995   3.771  11.430  0.00  0.00    +0.000 C 
ENDBRANCH  13  16
ENDBRANCH   1  13
BRANCH   9  17
ATOM     17  C   UNL     1       5.003   4.035  17.821  0.00  0.00    +0.000 C 
BRANCH  17  18
ATOM     18  O   UNL     1       4.292   5.205  18.218  0.00  0.00    +0.000 OA
BRANCH  18  19
ATOM     19  C   UNL     1       2.942   5.113  18.218  0.00  0.00    +0.000 C 
ATOM     20  O   UNL     1       2.286   4.292  17.605  0.00  0.00    +0.000 OA
BRANCH  19  21
ATOM     21  C   UNL     1       2.383   6.142  19.127  0.00  0.00    +0.000 A 
ATOM     22  C   UNL     1       2.398   7.497  18.750  0.00  0.00    +0.000 A 
ATOM     23 CL   UNL     1       3.008   8.066  17.232  0.00  0.00    +0.000 Cl
ATOM     24  C   UNL     1       1.885   8.481  19.610  0.00  0.00    +0.000 A 
ATOM     25  C   UNL     1       1.334   8.127  20.839  0.00  0.00    +0.000 A 
ATOM     26  C   UNL     1       1.315   6.793  21.221  0.00  0.00    +0.000 A 
ATOM     27  C   UNL     1       1.852   5.804  20.387  0.00  0.00    +0.000 A 
ATOM     28 CL   UNL     1       1.870   4.201  21.048  0.00  0.00    +0.000 Cl
ENDBRANCH  19  21
ENDBRANCH  18  19
ENDBRANCH  17  18
ENDBRANCH   9  17
TORSDOF 6
ENDMDL
MODEL 4
REMARK VINA RESULT:      -6.8      2.035      2.683
REMARK  Name = 
REMARK  8 active torsions:
REMARK  status: ('A' for Active; 'I' for Inactive)
REMARK    1  A    between atoms: C_1  and  C_2
REMARK    2  A    between atoms: C_2  and  C_3
REMARK    3  A    between atoms: C_3  and  C_4
REMARK    4  A    between atoms: C_3  and  C_5
REMARK    5  A    between atoms: N_13  and  C_14
REMARK    6  A    between atoms: C_14  and  O_15
REMARK    7  A    between atoms: O_15  and  C_16
REMARK    8  A    between atoms: C_16  and  C_18
REMARK                            x       y       z     vdW  Elec       q    Type
REMARK                         _______ _______ _______ _____ _____    ______ ____
ROOT
ATOM      1  C   UNL     1       6.173   3.954  12.793  0.00  0.00    +0.000 A 
ATOM      2  C   UNL     1       7.229   4.509  12.034  0.00  0.00    +0.000 A 
ATOM      3  C   UNL     1       8.220   5.326  12.614  0.00  0.00    +0.000 A 
ATOM      4  C   UNL     1       8.204   5.590  13.974  0.00  0.00    +0.000 A 
ATOM      5  C   UNL     1       7.160   5.058  14.708  0.00  0.00    +0.000 A 
ATOM      6  C   UNL     1       6.140   4.284  14.152  0.00  0.00    +0.000 A 
ATOM      7  C   UNL     1       5.138   3.893  15.177  0.00  0.00    +0.000 C 
ATOM      8  O   UNL     1       4.038   3.424  14.975  0.00  0.00    +0.000 OA
ATOM      9  N   UNL     1       5.642   4.208  16.449  0.00  0.00    +0.000 N 
ATOM     10  S   UNL     1       6.994   5.179  16.435  0.00  0.00    +0.000 S 
ATOM     11  O   UNL     1       6.615   6.533  16.765  0.00  0.00    +0.000 OA
ATOM     12  O   UNL     1       8.113   4.493  17.037  0.00  0.00    +0.000 OA
ENDROOT
BRANCH   1  13
ATOM     13  C   UNL     1       5.173   3.009  12.143  0.00  0.00    +0.000 C 
ATOM     14  C   UNL     1       5.900   1.826  11.484  0.00  0.00    +0.000 C 
BRANCH  13  16
ATOM     15  C   UNL     1       3.081   2.830  10.679  0.00  0.00    +0.000 C 
ATOM     16  C   UNL     1       4.251   3.699  11.121  0.00  0.00    +0.000 C 
ENDBRANCH  13  16
ENDBRANCH   1  13
BRANCH   9  17
ATOM     17  C   UNL     1       4.990   3.918  17.702  0.00  0.00    +0.000 C 
BRANCH  17  18
ATOM     18  O   UNL     1       4.303   5.084  18.148  0.00  0.00    +0.000 OA
BRANCH  18  19
ATOM     19  C   UNL     1       2.951   5.027  18.125  0.00  0.00    +0.000 C 
ATOM     20  O   UNL     1       2.284   4.256  17.463  0.00  0.00    +0.000 OA
BRANCH  19  21
ATOM     21  C   UNL     1       2.405   6.021  19.080  0.00  0.00    +0.000 A 
ATOM     22  C   UNL     1       1.855   5.594  20.303  0.00  0.00    +0.000 A 
ATOM     23 CL   UNL     1       1.804   3.938  20.807  0.00  0.00    +0.000 Cl
ATOM     24  C   UNL     1       1.321   6.525  21.207  0.00  0.00    +0.000 A 
ATOM     25  C   UNL     1       1.348   7.887  20.917  0.00  0.00    +0.000 A 
ATOM     26  C   UNL     1       1.887   8.320  19.713  0.00  0.00    +0.000 A 
ATOM     27  C   UNL     1       2.395   7.399  18.787  0.00  0.00    +0.000 A 
ATOM     28 CL   UNL     1       2.922   8.073  17.278  0.00  0.00    +0.000 Cl
ENDBRANCH  19  21
ENDBRANCH  18  19
ENDBRANCH  17  18
ENDBRANCH   9  17
TORSDOF 6
ENDMDL
MODEL 5
REMARK VINA RESULT:      -6.7      1.323      1.619
REMARK  Name = 
REMARK  8 active torsions:
REMARK  status: ('A' for Active; 'I' for Inactive)
REMARK    1  A    between atoms: C_1  and  C_2
REMARK    2  A    between atoms: C_2  and  C_3
REMARK    3  A    between atoms: C_3  and  C_4
REMARK    4  A    between atoms: C_3  and  C_5
REMARK    5  A    between atoms: N_13  and  C_14
REMARK    6  A    between atoms: C_14  and  O_15
REMARK    7  A    between atoms: O_15  and  C_16
REMARK    8  A    between atoms: C_16  and  C_18
REMARK                            x       y       z     vdW  Elec       q    Type
REMARK                         _______ _______ _______ _____ _____    ______ ____
ROOT
ATOM      1  C   UNL     1       6.081   3.981  12.854  0.00  0.00    +0.000 A 
ATOM      2  C   UNL     1       7.149   4.469  12.066  0.00  0.00    +0.000 A 
ATOM      3  C   UNL     1       8.181   5.259  12.610  0.00  0.00    +0.000 A 
ATOM      4  C   UNL     1       8.194   5.563  13.962  0.00  0.00    +0.000 A 
ATOM      5  C   UNL     1       7.139   5.097  14.724  0.00  0.00    +0.000 A 
ATOM      6  C   UNL     1       6.079   4.351  14.203  0.00  0.00    +0.000 A 
ATOM      7  C   UNL     1       5.076   4.032  15.250  0.00  0.00    +0.000 C 
ATOM      8  O   UNL     1       3.954   3.605  15.076  0.00  0.00    +0.000 OA
ATOM      9  N   UNL     1       5.609   4.362  16.507  0.00  0.00    +0.000 N 
ATOM     10  S   UNL     1       7.001   5.275  16.448  0.00  0.00    +0.000 S 
ATOM     11  O   UNL     1       6.683   6.652  16.743  0.00  0.00    +0.000 OA
ATOM     12  O   UNL     1       8.098   4.559  17.057  0.00  0.00    +0.000 OA
ENDROOT
BRANCH   1  13
ATOM     13  C   UNL     1       5.034   3.061  12.244  0.00  0.00    +0.000 C 
ATOM     14  C   UNL     1       5.708   1.929  11.452  0.00  0.00    +0.000 C 
BRANCH  13  16
ATOM     15  C   UNL     1       3.249   2.867  10.419  0.00  0.00    +0.000 C 
ATOM     16  C   UNL     1       4.016   3.795  11.352  0.00  0.00    +0.000 C 
ENDBRANCH  13  16
ENDBRANCH   1  13
BRANCH   9  17
ATOM     17  C   UNL     1       4.962   4.136  17.776  0.00  0.00    +0.000 C 
BRANCH  17  18
ATOM     18  O   UNL     1       4.040   5.195  18.020  0.00  0.00    +0.000 OA
BRANCH  18  19
ATOM     19  C   UNL     1       2.730   4.856  18.034  0.00  0.00    +0.000 C 
ATOM     20  O   UNL     1       1.924   5.102  17.156  0.00  0.00    +0.000 OA
BRANCH  19  21
ATOM     21  C   UNL     1       2.437   4.087  19.266  0.00  0.00    +0.000 A 
ATOM     22  C   UNL     1       2.215   4.762  20.481  0.00  0.00    +0.000 A 
ATOM     23 CL   UNL     1       2.220   6.486  20.637  0.00  0.00    +0.000 Cl
ATOM     24  C   UNL     1       1.952   4.043  21.657  0.00  0.00    +0.000 A 
ATOM     25  C   UNL     1       1.886   2.651  21.634  0.00  0.00    +0.000 A 
ATOM     26  C   UNL     1       2.104   1.975  20.442  0.00  0.00    +0.000 A 
ATOM     27  C   UNL     1       2.399   2.679  19.267  0.00  0.00    +0.000 A 
ATOM     28 CL   UNL     1       2.769   1.698  17.885  0.00  0.00    +0.000 Cl
ENDBRANCH  19  21
ENDBRANCH  18  19
ENDBRANCH  17  18
ENDBRANCH   9  17
TORSDOF 6
ENDMDL
MODEL 6
REMARK VINA RESULT:      -6.7      1.337      1.737
REMARK  Name = 
REMARK  8 active torsions:
REMARK  status: ('A' for Active; 'I' for Inactive)
REMARK    1  A    between atoms: C_1  and  C_2
REMARK    2  A    between atoms: C_2  and  C_3
REMARK    3  A    between atoms: C_3  and  C_4
REMARK    4  A    between atoms: C_3  and  C_5
REMARK    5  A    between atoms: N_13  and  C_14
REMARK    6  A    between atoms: C_14  and  O_15
REMARK    7  A    between atoms: O_15  and  C_16
REMARK    8  A    between atoms: C_16  and  C_18
REMARK                            x       y       z     vdW  Elec       q    Type
REMARK                         _______ _______ _______ _____ _____    ______ ____
ROOT
ATOM      1  C   UNL     1       6.050   3.953  12.898  0.00  0.00    +0.000 A 
ATOM      2  C   UNL     1       7.108   4.432  12.091  0.00  0.00    +0.000 A 
ATOM      3  C   UNL     1       8.140   5.239  12.609  0.00  0.00    +0.000 A 
ATOM      4  C   UNL     1       8.165   5.568  13.955  0.00  0.00    +0.000 A 
ATOM      5  C   UNL     1       7.120   5.110  14.736  0.00  0.00    +0.000 A 
ATOM      6  C   UNL     1       6.060   4.347  14.239  0.00  0.00    +0.000 A 
ATOM      7  C   UNL     1       5.069   4.042  15.303  0.00  0.00    +0.000 C 
ATOM      8  O   UNL     1       3.948   3.605  15.148  0.00  0.00    +0.000 OA
ATOM      9  N   UNL     1       5.613   4.399  16.548  0.00  0.00    +0.000 N 
ATOM     10  S   UNL     1       6.998   5.319  16.458  0.00  0.00    +0.000 S 
ATOM     11  O   UNL     1       6.674   6.700  16.731  0.00  0.00    +0.000 OA
ATOM     12  O   UNL     1       8.105   4.621  17.069  0.00  0.00    +0.000 OA
ENDROOT
BRANCH   1  13
ATOM     13  C   UNL     1       5.003   3.015  12.316  0.00  0.00    +0.000 C 
ATOM     14  C   UNL     1       5.668   1.951  11.427  0.00  0.00    +0.000 C 
BRANCH  13  16
ATOM     15  C   UNL     1       3.404   2.964  10.318  0.00  0.00    +0.000 C 
ATOM     16  C   UNL     1       3.896   3.743  11.530  0.00  0.00    +0.000 C 
ENDBRANCH  13  16
ENDBRANCH   1  13
BRANCH   9  17
ATOM     17  C   UNL     1       4.979   4.193  17.827  0.00  0.00    +0.000 C 
BRANCH  17  18
ATOM     18  O   UNL     1       4.082   5.271  18.078  0.00  0.00    +0.000 OA
BRANCH  18  19
ATOM     19  C   UNL     1       2.764   4.967  18.070  0.00  0.00    +0.000 C 
ATOM     20  O   UNL     1       1.971   5.267  17.197  0.00  0.00    +0.000 OA
BRANCH  19  21
ATOM     21  C   UNL     1       2.441   4.159  19.270  0.00  0.00    +0.000 A 
ATOM     22  C   UNL     1       2.295   2.764  19.162  0.00  0.00    +0.000 A 
ATOM     23 CL   UNL     1       2.511   1.888  17.684  0.00  0.00    +0.000 Cl
ATOM     24  C   UNL     1       1.974   1.992  20.289  0.00  0.00    +0.000 A 
ATOM     25  C   UNL     1       1.818   2.593  21.536  0.00  0.00    +0.000 A 
ATOM     26  C   UNL     1       1.958   3.969  21.654  0.00  0.00    +0.000 A 
ATOM     27  C   UNL     1       2.247   4.756  20.532  0.00  0.00    +0.000 A 
ATOM     28 CL   UNL     1       2.271   6.468  20.809  0.00  0.00    +0.000 Cl
ENDBRANCH  19  21
ENDBRANCH  18  19
ENDBRANCH  17  18
ENDBRANCH   9  17
TORSDOF 6
ENDMDL
MODEL 7
REMARK VINA RESULT:      -6.5      3.013      7.571
REMARK  Name = 
REMARK  8 active torsions:
REMARK  status: ('A' for Active; 'I' for Inactive)
REMARK    1  A    between atoms: C_1  and  C_2
REMARK    2  A    between atoms: C_2  and  C_3
REMARK    3  A    between atoms: C_3  and  C_4
REMARK    4  A    between atoms: C_3  and  C_5
REMARK    5  A    between atoms: N_13  and  C_14
REMARK    6  A    between atoms: C_14  and  O_15
REMARK    7  A    between atoms: O_15  and  C_16
REMARK    8  A    between atoms: C_16  and  C_18
REMARK                            x       y       z     vdW  Elec       q    Type
REMARK                         _______ _______ _______ _____ _____    ______ ____
ROOT
ATOM      1  C   UNL     1       2.231   6.283  19.620  0.00  0.00    +0.000 A 
ATOM      2  C   UNL     1       1.120   5.678  20.252  0.00  0.00    +0.000 A 
ATOM      3  C   UNL     1       1.052   4.289  20.481  0.00  0.00    +0.000 A 
ATOM      4  C   UNL     1       2.104   3.466  20.114  0.00  0.00    +0.000 A 
ATOM      5  C   UNL     1       3.181   4.060  19.483  0.00  0.00    +0.000 A 
ATOM      6  C   UNL     1       3.254   5.426  19.201  0.00  0.00    +0.000 A 
ATOM      7  C   UNL     1       4.507   5.763  18.478  0.00  0.00    +0.000 C 
ATOM      8  O   UNL     1       4.758   6.801  17.903  0.00  0.00    +0.000 OA
ATOM      9  N   UNL     1       5.364   4.650  18.510  0.00  0.00    +0.000 N 
ATOM     10  S   UNL     1       4.644   3.240  19.025  0.00  0.00    +0.000 S 
ATOM     11  O   UNL     1       4.362   2.401  17.884  0.00  0.00    +0.000 OA
ATOM     12  O   UNL     1       5.280   2.762  20.231  0.00  0.00    +0.000 OA
ENDROOT
BRANCH   1  13
ATOM     13  C   UNL     1       2.300   7.795  19.469  0.00  0.00    +0.000 C 
ATOM     14  C   UNL     1       1.395   8.482  20.504  0.00  0.00    +0.000 C 
BRANCH  13  16
ATOM     15  C   UNL     1       0.978   9.460  18.043  0.00  0.00    +0.000 C 
ATOM     16  C   UNL     1       1.949   8.287  18.052  0.00  0.00    +0.000 C 
ENDBRANCH  13  16
ENDBRANCH   1  13
BRANCH   9  17
ATOM     17  C   UNL     1       6.702   4.609  17.973  0.00  0.00    +0.000 C 
BRANCH  17  18
ATOM     18  O   UNL     1       6.640   4.216  16.605  0.00  0.00    +0.000 OA
BRANCH  18  19
ATOM     19  C   UNL     1       6.973   5.161  15.695  0.00  0.00    +0.000 C 
ATOM     20  O   UNL     1       7.500   6.229  15.942  0.00  0.00    +0.000 OA
BRANCH  19  21
ATOM     21  C   UNL     1       6.643   4.668  14.337  0.00  0.00    +0.000 A 
ATOM     22  C   UNL     1       7.525   4.911  13.267  0.00  0.00    +0.000 A 
ATOM     23 CL   UNL     1       9.037   5.737  13.437  0.00  0.00    +0.000 Cl
ATOM     24  C   UNL     1       7.216   4.463  11.974  0.00  0.00    +0.000 A 
ATOM     25  C   UNL     1       6.042   3.753  11.735  0.00  0.00    +0.000 A 
ATOM     26  C   UNL     1       5.164   3.508  12.782  0.00  0.00    +0.000 A 
ATOM     27  C   UNL     1       5.445   3.977  14.072  0.00  0.00    +0.000 A 
ATOM     28 CL   UNL     1       4.202   3.706  15.250  0.00  0.00    +0.000 Cl
ENDBRANCH  19  21
ENDBRANCH  18  19
ENDBRANCH  17  18
ENDBRANCH   9  17
TORSDOF 6
ENDMDL
MODEL 8
REMARK VINA RESULT:      -6.5      5.019      7.259
REMARK  Name = 
REMARK  8 active torsions:
REMARK  status: ('A' for Active; 'I' for Inactive)
REMARK    1  A    between atoms: C_1  and  C_2
REMARK    2  A    between atoms: C_2  and  C_3
REMARK    3  A    between atoms: C_3  and  C_4
REMARK    4  A    between atoms: C_3  and  C_5
REMARK    5  A    between atoms: N_13  and  C_14
REMARK    6  A    between atoms: C_14  and  O_15
REMARK    7  A    between atoms: O_15  and  C_16
REMARK    8  A    between atoms: C_16  and  C_18
REMARK                            x       y       z     vdW  Elec       q    Type
REMARK                         _______ _______ _______ _____ _____    ______ ____
ROOT
ATOM      1  C   UNL     1       4.188   4.316  17.688  0.00  0.00    +0.000 A 
ATOM      2  C   UNL     1       4.321   2.987  17.224  0.00  0.00    +0.000 A 
ATOM      3  C   UNL     1       3.657   1.908  17.841  0.00  0.00    +0.000 A 
ATOM      4  C   UNL     1       2.817   2.125  18.921  0.00  0.00    +0.000 A 
ATOM      5  C   UNL     1       2.703   3.424  19.381  0.00  0.00    +0.000 A 
ATOM      6  C   UNL     1       3.385   4.506  18.818  0.00  0.00    +0.000 A 
ATOM      7  C   UNL     1       3.099   5.765  19.551  0.00  0.00    +0.000 C 
ATOM      8  O   UNL     1       3.701   6.814  19.456  0.00  0.00    +0.000 OA
ATOM      9  N   UNL     1       2.035   5.543  20.440  0.00  0.00    +0.000 N 
ATOM     10  S   UNL     1       1.637   3.940  20.654  0.00  0.00    +0.000 S 
ATOM     11  O   UNL     1       2.170   3.478  21.914  0.00  0.00    +0.000 OA
ATOM     12  O   UNL     1       0.280   3.697  20.222  0.00  0.00    +0.000 OA
ENDROOT
BRANCH   1  13
ATOM     13  C   UNL     1       4.855   5.461  16.942  0.00  0.00    +0.000 C 
ATOM     14  C   UNL     1       5.117   5.070  15.479  0.00  0.00    +0.000 C 
BRANCH  13  16
ATOM     15  C   UNL     1       7.181   4.837  17.810  0.00  0.00    +0.000 C 
ATOM     16  C   UNL     1       6.159   5.947  17.601  0.00  0.00    +0.000 C 
ENDBRANCH  13  16
ENDBRANCH   1  13
BRANCH   9  17
ATOM     17  C   UNL     1       1.423   6.544  21.279  0.00  0.00    +0.000 C 
BRANCH  17  18
ATOM     18  O   UNL     1       1.162   7.707  20.498  0.00  0.00    +0.000 OA
BRANCH  18  19
ATOM     19  C   UNL     1       1.198   8.889  21.155  0.00  0.00    +0.000 C 
ATOM     20  O   UNL     1       1.837   9.121  22.164  0.00  0.00    +0.000 OA
BRANCH  19  21
ATOM     21  C   UNL     1       0.377   9.881  20.421  0.00  0.00    +0.000 A 
ATOM     22  C   UNL     1      -0.592  10.637  21.107  0.00  0.00    +0.000 A 
ATOM     23 CL   UNL     1      -0.875  10.518  22.811  0.00  0.00    +0.000 Cl
ATOM     24  C   UNL     1      -1.387  11.568  20.419  0.00  0.00    +0.000 A 
ATOM     25  C   UNL     1      -1.212  11.771  19.052  0.00  0.00    +0.000 A 
ATOM     26  C   UNL     1      -0.261  11.030  18.365  0.00  0.00    +0.000 A 
ATOM     27  C   UNL     1       0.517  10.075  19.033  0.00  0.00    +0.000 A 
ATOM     28 CL   UNL     1       1.575   9.140  18.026  0.00  0.00    +0.000 Cl
ENDBRANCH  19  21
ENDBRANCH  18  19
ENDBRANCH  17  18
ENDBRANCH   9  17
TORSDOF 6
ENDMDL
MODEL 9
REMARK VINA RESULT:      -6.5      3.000      7.582
REMARK  Name = 
REMARK  8 active torsions:
REMARK  status: ('A' for Active; 'I' for Inactive)
REMARK    1  A    between atoms: C_1  and  C_2
REMARK    2  A    between atoms: C_2  and  C_3
REMARK    3  A    between atoms: C_3  and  C_4
REMARK    4  A    between atoms: C_3  and  C_5
REMARK    5  A    between atoms: N_13  and  C_14
REMARK    6  A    between atoms: C_14  and  O_15
REMARK    7  A    between atoms: O_15  and  C_16
REMARK    8  A    between atoms: C_16  and  C_18
REMARK                            x       y       z     vdW  Elec       q    Type
REMARK                         _______ _______ _______ _____ _____    ______ ____
ROOT
ATOM      1  C   UNL     1       2.211   6.147  19.747  0.00  0.00    +0.000 A 
ATOM      2  C   UNL     1       1.109   5.520  20.374  0.00  0.00    +0.000 A 
ATOM      3  C   UNL     1       1.049   4.126  20.564  0.00  0.00    +0.000 A 
ATOM      4  C   UNL     1       2.099   3.316  20.162  0.00  0.00    +0.000 A 
ATOM      5  C   UNL     1       3.167   3.932  19.535  0.00  0.00    +0.000 A 
ATOM      6  C   UNL     1       3.232   5.306  19.292  0.00  0.00    +0.000 A 
ATOM      7  C   UNL     1       4.475   5.667  18.564  0.00  0.00    +0.000 C 
ATOM      8  O   UNL     1       4.716   6.722  18.015  0.00  0.00    +0.000 OA
ATOM      9  N   UNL     1       5.336   4.557  18.554  0.00  0.00    +0.000 N 
ATOM     10  S   UNL     1       4.626   3.130  19.037  0.00  0.00    +0.000 S 
ATOM     11  O   UNL     1       4.334   2.323  17.876  0.00  0.00    +0.000 OA
ATOM     12  O   UNL     1       5.279   2.621  20.221  0.00  0.00    +0.000 OA
ENDROOT
BRANCH   1  13
ATOM     13  C   UNL     1       2.273   7.663  19.637  0.00  0.00    +0.000 C 
ATOM     14  C   UNL     1       1.417   8.318  20.733  0.00  0.00    +0.000 C 
BRANCH  13  16
ATOM     15  C   UNL     1       1.413   9.652  18.275  0.00  0.00    +0.000 C 
ATOM     16  C   UNL     1       1.858   8.196  18.253  0.00  0.00    +0.000 C 
ENDBRANCH  13  16
ENDBRANCH   1  13
BRANCH   9  17
ATOM     17  C   UNL     1       6.667   4.536  18.001  0.00  0.00    +0.000 C 
BRANCH  17  18
ATOM     18  O   UNL     1       6.590   4.195  16.619  0.00  0.00    +0.000 OA
BRANCH  18  19
ATOM     19  C   UNL     1       6.958   5.158  15.743  0.00  0.00    +0.000 C 
ATOM     20  O   UNL     1       7.490   6.214  16.032  0.00  0.00    +0.000 OA
BRANCH  19  21
ATOM     21  C   UNL     1       6.660   4.704  14.365  0.00  0.00    +0.000 A 
ATOM     22  C   UNL     1       5.465   4.011  14.094  0.00  0.00    +0.000 A 
ATOM     23 CL   UNL     1       4.258   3.675  15.289  0.00  0.00    +0.000 Cl
ATOM     24  C   UNL     1       5.180   3.563  12.795  0.00  0.00    +0.000 A 
ATOM     25  C   UNL     1       6.066   3.816  11.751  0.00  0.00    +0.000 A 
ATOM     26  C   UNL     1       7.249   4.497  12.006  0.00  0.00    +0.000 A 
ATOM     27  C   UNL     1       7.561   4.923  13.304  0.00  0.00    +0.000 A 
ATOM     28 CL   UNL     1       9.124   5.649  13.494  0.00  0.00    +0.000 Cl
ENDBRANCH  19  21
ENDBRANCH  18  19
ENDBRANCH  17  18
ENDBRANCH   9  17
TORSDOF 6
ENDMDL
