MODEL 1
REMARK VINA RESULT:      -8.4      0.000      0.000
REMARK  Name = 
REMARK  8 active torsions:
REMARK  status: ('A' for Active; 'I' for Inactive)
REMARK    1  A    between atoms: N_6  and  C_7
REMARK    2  A    between atoms: C_7  and  C_8
REMARK    3  A    between atoms: C_8  and  C_9
REMARK    4  A    between atoms: C_9  and  N_10
REMARK    5  A    between atoms: N_10  and  C_11
REMARK    6  A    between atoms: C_11  and  C_12
REMARK    7  A    between atoms: C_15  and  C_16
REMARK    8  A    between atoms: C_19  and  C_20
REMARK                            x       y       z     vdW  Elec       q    Type
REMARK                         _______ _______ _______ _____ _____    ______ ____
ROOT
ATOM      1  C   UNL     1       2.915   7.079  18.361  0.00  0.00    +0.000 A 
ATOM      2  C   UNL     1       2.456   8.198  17.649  0.00  0.00    +0.000 A 
ATOM      3  C   UNL     1       1.631   9.155  18.257  0.00  0.00    +0.000 A 
ATOM      4  C   UNL     1       1.211   9.022  19.589  0.00  0.00    +0.000 A 
ATOM      5  C   UNL     1       1.648   7.873  20.279  0.00  0.00    +0.000 A 
ATOM      6  C   UNL     1       2.493   6.925  19.683  0.00  0.00    +0.000 A 
ENDROOT
BRANCH   4   7
ATOM      7  C   UNL     1       0.376  10.057  20.254  0.00  0.00    +0.000 A 
ATOM      8  C   UNL     1      -0.500  10.899  19.539  0.00  0.00    +0.000 A 
ATOM      9  C   UNL     1      -1.278  11.882  20.181  0.00  0.00    +0.000 A 
ATOM     10  C   UNL     1      -1.213  12.037  21.566  0.00  0.00    +0.000 A 
ATOM     11  C   UNL     1      -0.351  11.202  22.286  0.00  0.00    +0.000 A 
ATOM     12  C   UNL     1       0.434  10.243  21.644  0.00  0.00    +0.000 A 
BRANCH  10  13
ATOM     13  C   UNL     1      -2.047  12.969  22.323  0.00  0.00    +0.000 A 
ATOM     14  N   UNL     1      -3.317  13.208  22.053  0.00  0.00    +0.000 NA
ATOM     15  C   UNL     1      -3.731  14.154  22.944  0.00  0.00    +0.000 A 
ATOM     16  C   UNL     1      -4.982  14.772  23.051  0.00  0.00    +0.000 A 
ATOM     17  C   UNL     1      -5.143  15.734  24.040  0.00  0.00    +0.000 A 
ATOM     18  F   UNL     1      -6.322  16.360  24.152  0.00  0.00    +0.000 F 
ATOM     19  C   UNL     1      -4.110  16.072  24.914  0.00  0.00    +0.000 A 
ATOM     20  C   UNL     1      -2.858  15.446  24.831  0.00  0.00    +0.000 A 
ATOM     21  C   UNL     1      -2.707  14.492  23.819  0.00  0.00    +0.000 A 
ATOM     22  N   UNL     1      -1.653  13.702  23.423  0.00  0.00    +0.000 N 
ATOM     23  H   UNL     1      -0.747  13.656  23.865  0.00  0.00    +0.000 HD
ENDBRANCH  10  13
ENDBRANCH   4   7
BRANCH   1  24
ATOM     24  C   UNL     1       3.829   6.061  17.715  0.00  0.00    +0.000 C 
BRANCH  24  25
ATOM     25  N   UNL     1       4.840   5.584  18.664  0.00  0.00    +0.000 NA
ATOM     26  H   UNL     1       5.646   6.204  18.623  0.00  0.00    +0.000 HD
BRANCH  25  27
ATOM     27  C   UNL     1       5.272   4.215  18.393  0.00  0.00    +0.000 C 
BRANCH  27  28
ATOM     28  C   UNL     1       4.199   3.518  17.547  0.00  0.00    +0.000 C 
BRANCH  28  29
ATOM     29  C   UNL     1       3.567   2.344  18.289  0.00  0.00    +0.000 C 
BRANCH  29  35
ATOM     30  O   UNL     1       3.870   2.265  21.223  0.00  0.00    +0.000 OA
ATOM     31  C   UNL     1       2.859   2.675  20.678  0.00  0.00    +0.000 C 
ATOM     32  C   UNL     1       1.590   3.087  21.383  0.00  0.00    +0.000 C 
ATOM     33  C   UNL     1       0.836   3.865  20.310  0.00  0.00    +0.000 C 
ATOM     34  C   UNL     1       1.302   3.237  19.010  0.00  0.00    +0.000 C 
ATOM     35  N   UNL     1       2.633   2.782  19.315  0.00  0.00    +0.000 N 
ENDBRANCH  29  35
ENDBRANCH  28  29
ENDBRANCH  27  28
ENDBRANCH  25  27
ENDBRANCH  24  25
ENDBRANCH   1  24
TORSDOF 8
ENDMDL
MODEL 2
REMARK VINA RESULT:      -8.4      1.695      2.410
REMARK  Name = 
REMARK  8 active torsions:
REMARK  status: ('A' for Active; 'I' for Inactive)
REMARK    1  A    between atoms: N_6  and  C_7
REMARK    2  A    between atoms: C_7  and  C_8
REMARK    3  A    between atoms: C_8  and  C_9
REMARK    4  A    between atoms: C_9  and  N_10
REMARK    5  A    between atoms: N_10  and  C_11
REMARK    6  A    between atoms: C_11  and  C_12
REMARK    7  A    between atoms: C_15  and  C_16
REMARK    8  A    between atoms: C_19  and  C_20
REMARK                            x       y       z     vdW  Elec       q    Type
REMARK                         _______ _______ _______ _____ _____    ______ ____
ROOT
ATOM      1  C   UNL     1       4.628   5.919  18.221  0.00  0.00    +0.000 A 
ATOM      2  C   UNL     1       4.359   6.979  17.341  0.00  0.00    +0.000 A 
ATOM      3  C   UNL     1       3.326   7.891  17.600  0.00  0.00    +0.000 A 
ATOM      4  C   UNL     1       2.504   7.768  18.730  0.00  0.00    +0.000 A 
ATOM      5  C   UNL     1       2.760   6.675  19.584  0.00  0.00    +0.000 A 
ATOM      6  C   UNL     1       3.808   5.775  19.343  0.00  0.00    +0.000 A 
ENDROOT
BRANCH   4   7
ATOM      7  C   UNL     1       1.437   8.758  19.034  0.00  0.00    +0.000 A 
ATOM      8  C   UNL     1       0.783   9.500  18.031  0.00  0.00    +0.000 A 
ATOM      9  C   UNL     1      -0.219  10.442  18.334  0.00  0.00    +0.000 A 
ATOM     10  C   UNL     1      -0.608  10.654  19.657  0.00  0.00    +0.000 A 
ATOM     11  C   UNL     1       0.031   9.918  20.661  0.00  0.00    +0.000 A 
ATOM     12  C   UNL     1       1.039   9.001  20.358  0.00  0.00    +0.000 A 
BRANCH  10  13
ATOM     13  C   UNL     1      -1.696  11.546  20.056  0.00  0.00    +0.000 A 
ATOM     14  N   UNL     1      -2.824  11.677  19.383  0.00  0.00    +0.000 NA
ATOM     15  C   UNL     1      -3.560  12.619  20.040  0.00  0.00    +0.000 A 
ATOM     16  C   UNL     1      -4.814  13.143  19.710  0.00  0.00    +0.000 A 
ATOM     17  C   UNL     1      -5.342  14.124  20.540  0.00  0.00    +0.000 A 
ATOM     18  F   UNL     1      -6.532  14.661  20.235  0.00  0.00    +0.000 F 
ATOM     19  C   UNL     1      -4.667  14.570  21.675  0.00  0.00    +0.000 A 
ATOM     20  C   UNL     1      -3.419  14.039  22.030  0.00  0.00    +0.000 A 
ATOM     21  C   UNL     1      -2.894  13.065  21.175  0.00  0.00    +0.000 A 
ATOM     22  N   UNL     1      -1.721  12.344  21.180  0.00  0.00    +0.000 N 
ATOM     23  H   UNL     1      -1.004  12.383  21.888  0.00  0.00    +0.000 HD
ENDBRANCH  10  13
ENDBRANCH   4   7
BRANCH   1  24
ATOM     24  C   UNL     1       5.762   4.953  17.960  0.00  0.00    +0.000 C 
BRANCH  24  25
ATOM     25  N   UNL     1       5.252   3.613  17.651  0.00  0.00    +0.000 NA
ATOM     26  H   UNL     1       6.041   2.998  17.463  0.00  0.00    +0.000 HD
BRANCH  25  27
ATOM     27  C   UNL     1       4.347   3.600  16.504  0.00  0.00    +0.000 C 
BRANCH  27  28
ATOM     28  C   UNL     1       2.946   3.205  16.987  0.00  0.00    +0.000 C 
BRANCH  28  29
ATOM     29  C   UNL     1       2.991   2.018  17.946  0.00  0.00    +0.000 C 
BRANCH  29  35
ATOM     30  O   UNL     1       4.617   2.240  20.397  0.00  0.00    +0.000 OA
ATOM     31  C   UNL     1       3.413   2.430  20.389  0.00  0.00    +0.000 C 
ATOM     32  C   UNL     1       2.557   2.686  21.606  0.00  0.00    +0.000 C 
ATOM     33  C   UNL     1       1.266   3.235  21.011  0.00  0.00    +0.000 C 
ATOM     34  C   UNL     1       1.189   2.585  19.643  0.00  0.00    +0.000 C 
ATOM     35  N   UNL     1       2.570   2.383  19.290  0.00  0.00    +0.000 N 
ENDBRANCH  29  35
ENDBRANCH  28  29
ENDBRANCH  27  28
ENDBRANCH  25  27
ENDBRANCH  24  25
ENDBRANCH   1  24
TORSDOF 8
ENDMDL
MODEL 3
REMARK VINA RESULT:      -8.3      2.419      3.831
REMARK  Name = 
REMARK  8 active torsions:
REMARK  status: ('A' for Active; 'I' for Inactive)
REMARK    1  A    between atoms: N_6  and  C_7
REMARK    2  A    between atoms: C_7  and  C_8
REMARK    3  A    between atoms: C_8  and  C_9
REMARK    4  A    between atoms: C_9  and  N_10
REMARK    5  A    between atoms: N_10  and  C_11
REMARK    6  A    between atoms: C_11  and  C_12
REMARK    7  A    between atoms: C_15  and  C_16
REMARK    8  A    between atoms: C_19  and  C_20
REMARK                            x       y       z     vdW  Elec       q    Type
REMARK                         _______ _______ _______ _____ _____    ______ ____
ROOT
ATOM      1  C   UNL     1       2.768   5.143  19.123  0.00  0.00    +0.000 A 
ATOM      2  C   UNL     1       2.096   5.082  20.353  0.00  0.00    +0.000 A 
ATOM      3  C   UNL     1       1.521   6.228  20.921  0.00  0.00    +0.000 A 
ATOM      4  C   UNL     1       1.615   7.482  20.300  0.00  0.00    +0.000 A 
ATOM      5  C   UNL     1       2.329   7.535  19.085  0.00  0.00    +0.000 A 
ATOM      6  C   UNL     1       2.884   6.388  18.500  0.00  0.00    +0.000 A 
ENDROOT
BRANCH   4   7
ATOM      7  C   UNL     1       0.968   8.691  20.874  0.00  0.00    +0.000 A 
ATOM      8  C   UNL     1       0.703   9.845  20.109  0.00  0.00    +0.000 A 
ATOM      9  C   UNL     1       0.099  10.988  20.668  0.00  0.00    +0.000 A 
ATOM     10  C   UNL     1      -0.275  10.998  22.013  0.00  0.00    +0.000 A 
ATOM     11  C   UNL     1      -0.023   9.856  22.780  0.00  0.00    +0.000 A 
ATOM     12  C   UNL     1       0.596   8.733  22.227  0.00  0.00    +0.000 A 
BRANCH  10  13
ATOM     13  C   UNL     1      -0.986  12.105  22.654  0.00  0.00    +0.000 A 
ATOM     14  N   UNL     1      -0.401  13.212  23.070  0.00  0.00    +0.000 NA
ATOM     15  C   UNL     1      -1.377  13.974  23.642  0.00  0.00    +0.000 A 
ATOM     16  C   UNL     1      -1.265  15.221  24.266  0.00  0.00    +0.000 A 
ATOM     17  C   UNL     1      -2.420  15.781  24.798  0.00  0.00    +0.000 A 
ATOM     18  F   UNL     1      -2.341  16.964  25.422  0.00  0.00    +0.000 F 
ATOM     19  C   UNL     1      -3.657  15.144  24.707  0.00  0.00    +0.000 A 
ATOM     20  C   UNL     1      -3.787  13.903  24.066  0.00  0.00    +0.000 A 
ATOM     21  C   UNL     1      -2.612  13.346  23.551  0.00  0.00    +0.000 A 
ATOM     22  N   UNL     1      -2.342  12.169  22.891  0.00  0.00    +0.000 N 
ATOM     23  H   UNL     1      -3.020  11.474  22.616  0.00  0.00    +0.000 HD
ENDBRANCH  10  13
ENDBRANCH   4   7
BRANCH   1  24
ATOM     24  C   UNL     1       3.363   3.902  18.493  0.00  0.00    +0.000 C 
BRANCH  24  25
ATOM     25  N   UNL     1       3.459   4.045  17.037  0.00  0.00    +0.000 NA
ATOM     26  H   UNL     1       2.826   3.378  16.600  0.00  0.00    +0.000 HD
BRANCH  25  27
ATOM     27  C   UNL     1       4.813   3.823  16.533  0.00  0.00    +0.000 C 
BRANCH  27  28
ATOM     28  C   UNL     1       5.249   5.057  15.734  0.00  0.00    +0.000 C 
BRANCH  28  29
ATOM     29  C   UNL     1       6.765   5.234  15.748  0.00  0.00    +0.000 C 
BRANCH  29  35
ATOM     30  O   UNL     1       7.163   7.954  16.819  0.00  0.00    +0.000 OA
ATOM     31  C   UNL     1       7.438   6.951  17.455  0.00  0.00    +0.000 C 
ATOM     32  C   UNL     1       8.115   6.926  18.805  0.00  0.00    +0.000 C 
ATOM     33  C   UNL     1       7.854   5.507  19.296  0.00  0.00    +0.000 C 
ATOM     34  C   UNL     1       7.758   4.692  18.021  0.00  0.00    +0.000 C 
ATOM     35  N   UNL     1       7.258   5.636  17.056  0.00  0.00    +0.000 N 
ENDBRANCH  29  35
ENDBRANCH  28  29
ENDBRANCH  27  28
ENDBRANCH  25  27
ENDBRANCH  24  25
ENDBRANCH   1  24
TORSDOF 8
ENDMDL
MODEL 4
REMARK VINA RESULT:      -8.2      0.717      1.117
REMARK  Name = 
REMARK  8 active torsions:
REMARK  status: ('A' for Active; 'I' for Inactive)
REMARK    1  A    between atoms: N_6  and  C_7
REMARK    2  A    between atoms: C_7  and  C_8
REMARK    3  A    between atoms: C_8  and  C_9
REMARK    4  A    between atoms: C_9  and  N_10
REMARK    5  A    between atoms: N_10  and  C_11
REMARK    6  A    between atoms: C_11  and  C_12
REMARK    7  A    between atoms: C_15  and  C_16
REMARK    8  A    between atoms: C_19  and  C_20
REMARK                            x       y       z     vdW  Elec       q    Type
REMARK                         _______ _______ _______ _____ _____    ______ ____
ROOT
ATOM      1  C   UNL     1       2.994   7.008  18.259  0.00  0.00    +0.000 A 
ATOM      2  C   UNL     1       2.548   8.209  17.688  0.00  0.00    +0.000 A 
ATOM      3  C   UNL     1       1.742   9.100  18.412  0.00  0.00    +0.000 A 
ATOM      4  C   UNL     1       1.328   8.816  19.722  0.00  0.00    +0.000 A 
ATOM      5  C   UNL     1       1.751   7.587  20.268  0.00  0.00    +0.000 A 
ATOM      6  C   UNL     1       2.578   6.704  19.558  0.00  0.00    +0.000 A 
ENDROOT
BRANCH   4   7
ATOM      7  C   UNL     1       0.513   9.777  20.511  0.00  0.00    +0.000 A 
ATOM      8  C   UNL     1       0.406   9.708  21.915  0.00  0.00    +0.000 A 
ATOM      9  C   UNL     1      -0.379  10.618  22.649  0.00  0.00    +0.000 A 
ATOM     10  C   UNL     1      -1.067  11.640  21.994  0.00  0.00    +0.000 A 
ATOM     11  C   UNL     1      -0.964  11.722  20.601  0.00  0.00    +0.000 A 
ATOM     12  C   UNL     1      -0.202  10.805  19.875  0.00  0.00    +0.000 A 
BRANCH  10  13
ATOM     13  C   UNL     1      -1.832  12.680  22.682  0.00  0.00    +0.000 A 
ATOM     14  N   UNL     1      -3.135  12.842  22.551  0.00  0.00    +0.000 NA
ATOM     15  C   UNL     1      -3.468  13.927  23.308  0.00  0.00    +0.000 A 
ATOM     16  C   UNL     1      -4.718  14.531  23.476  0.00  0.00    +0.000 A 
ATOM     17  C   UNL     1      -4.787  15.655  24.291  0.00  0.00    +0.000 A 
ATOM     18  F   UNL     1      -5.967  16.269  24.452  0.00  0.00    +0.000 F 
ATOM     19  C   UNL     1      -3.663  16.165  24.939  0.00  0.00    +0.000 A 
ATOM     20  C   UNL     1      -2.408  15.557  24.797  0.00  0.00    +0.000 A 
ATOM     21  C   UNL     1      -2.352  14.437  23.960  0.00  0.00    +0.000 A 
ATOM     22  N   UNL     1      -1.327  13.607  23.568  0.00  0.00    +0.000 N 
ATOM     23  H   UNL     1      -0.369  13.659  23.881  0.00  0.00    +0.000 HD
ENDBRANCH  10  13
ENDBRANCH   4   7
BRANCH   1  24
ATOM     24  C   UNL     1       3.889   6.060  17.491  0.00  0.00    +0.000 C 
BRANCH  24  25
ATOM     25  N   UNL     1       5.238   6.027  18.064  0.00  0.00    +0.000 NA
ATOM     26  H   UNL     1       5.874   6.512  17.434  0.00  0.00    +0.000 HD
BRANCH  25  27
ATOM     27  C   UNL     1       5.727   4.669  18.289  0.00  0.00    +0.000 C 
BRANCH  27  28
ATOM     28  C   UNL     1       5.169   4.159  19.623  0.00  0.00    +0.000 C 
BRANCH  28  29
ATOM     29  C   UNL     1       4.442   2.826  19.461  0.00  0.00    +0.000 C 
BRANCH  29  35
ATOM     30  O   UNL     1       2.924   2.539  21.974  0.00  0.00    +0.000 OA
ATOM     31  C   UNL     1       2.386   2.768  20.905  0.00  0.00    +0.000 C 
ATOM     32  C   UNL     1       0.896   2.826  20.667  0.00  0.00    +0.000 C 
ATOM     33  C   UNL     1       0.788   3.519  19.314  0.00  0.00    +0.000 C 
ATOM     34  C   UNL     1       2.072   3.133  18.604  0.00  0.00    +0.000 C 
ATOM     35  N   UNL     1       3.010   2.952  19.681  0.00  0.00    +0.000 N 
ENDBRANCH  29  35
ENDBRANCH  28  29
ENDBRANCH  27  28
ENDBRANCH  25  27
ENDBRANCH  24  25
ENDBRANCH   1  24
TORSDOF 8
ENDMDL
MODEL 5
REMARK VINA RESULT:      -8.2      1.098      1.800
REMARK  Name = 
REMARK  8 active torsions:
REMARK  status: ('A' for Active; 'I' for Inactive)
REMARK    1  A    between atoms: N_6  and  C_7
REMARK    2  A    between atoms: C_7  and  C_8
REMARK    3  A    between atoms: C_8  and  C_9
REMARK    4  A    between atoms: C_9  and  N_10
REMARK    5  A    between atoms: N_10  and  C_11
REMARK    6  A    between atoms: C_11  and  C_12
REMARK    7  A    between atoms: C_15  and  C_16
REMARK    8  A    between atoms: C_19  and  C_20
REMARK                            x       y       z     vdW  Elec       q    Type
REMARK                         _______ _______ _______ _____ _____    ______ ____
ROOT
ATOM      1  C   UNL     1       2.373   7.668  18.675  0.00  0.00    +0.000 A 
ATOM      2  C   UNL     1       2.073   7.498  20.035  0.00  0.00    +0.000 A 
ATOM      3  C   UNL     1       1.257   8.413  20.716  0.00  0.00    +0.000 A 
ATOM      4  C   UNL     1       0.730   9.544  20.077  0.00  0.00    +0.000 A 
ATOM      5  C   UNL     1       1.072   9.723  18.720  0.00  0.00    +0.000 A 
ATOM      6  C   UNL     1       1.867   8.798  18.028  0.00  0.00    +0.000 A 
ENDROOT
BRANCH   4   7
ATOM      7  C   UNL     1      -0.174  10.492  20.781  0.00  0.00    +0.000 A 
ATOM      8  C   UNL     1      -0.264  10.552  22.186  0.00  0.00    +0.000 A 
ATOM      9  C   UNL     1      -1.132  11.448  22.840  0.00  0.00    +0.000 A 
ATOM     10  C   UNL     1      -1.924  12.327  22.099  0.00  0.00    +0.000 A 
ATOM     11  C   UNL     1      -1.837  12.280  20.704  0.00  0.00    +0.000 A 
ATOM     12  C   UNL     1      -0.992  11.376  20.059  0.00  0.00    +0.000 A 
BRANCH  10  13
ATOM     13  C   UNL     1      -2.786  13.348  22.694  0.00  0.00    +0.000 A 
ATOM     14  N   UNL     1      -4.008  13.614  22.275  0.00  0.00    +0.000 NA
ATOM     15  C   UNL     1      -4.466  14.643  23.045  0.00  0.00    +0.000 A 
ATOM     16  C   UNL     1      -5.691  15.315  22.975  0.00  0.00    +0.000 A 
ATOM     17  C   UNL     1      -5.905  16.358  23.868  0.00  0.00    +0.000 A 
ATOM     18  F   UNL     1      -7.060  17.036  23.809  0.00  0.00    +0.000 F 
ATOM     19  C   UNL     1      -4.951  16.724  24.816  0.00  0.00    +0.000 A 
ATOM     20  C   UNL     1      -3.728  16.045  24.912  0.00  0.00    +0.000 A 
ATOM     21  C   UNL     1      -3.521  15.009  23.995  0.00  0.00    +0.000 A 
ATOM     22  N   UNL     1      -2.470  14.149  23.770  0.00  0.00    +0.000 N 
ATOM     23  H   UNL     1      -1.617  14.103  24.307  0.00  0.00    +0.000 HD
ENDBRANCH  10  13
ENDBRANCH   4   7
BRANCH   1  24
ATOM     24  C   UNL     1       3.227   6.665  17.930  0.00  0.00    +0.000 C 
BRANCH  24  25
ATOM     25  N   UNL     1       4.161   5.992  18.838  0.00  0.00    +0.000 NA
ATOM     26  H   UNL     1       4.717   6.697  19.318  0.00  0.00    +0.000 HD
BRANCH  25  27
ATOM     27  C   UNL     1       5.054   5.064  18.147  0.00  0.00    +0.000 C 
BRANCH  27  28
ATOM     28  C   UNL     1       5.070   3.735  18.913  0.00  0.00    +0.000 C 
BRANCH  28  29
ATOM     29  C   UNL     1       3.909   2.832  18.504  0.00  0.00    +0.000 C 
BRANCH  29  35
ATOM     30  O   UNL     1       1.177   3.707  17.819  0.00  0.00    +0.000 OA
ATOM     31  C   UNL     1       1.514   3.441  18.960  0.00  0.00    +0.000 C 
ATOM     32  C   UNL     1       0.659   3.619  20.191  0.00  0.00    +0.000 C 
ATOM     33  C   UNL     1       1.387   2.788  21.241  0.00  0.00    +0.000 C 
ATOM     34  C   UNL     1       2.839   2.843  20.807  0.00  0.00    +0.000 C 
ATOM     35  N   UNL     1       2.757   2.992  19.377  0.00  0.00    +0.000 N 
ENDBRANCH  29  35
ENDBRANCH  28  29
ENDBRANCH  27  28
ENDBRANCH  25  27
ENDBRANCH  24  25
ENDBRANCH   1  24
TORSDOF 8
ENDMDL
MODEL 6
REMARK VINA RESULT:      -8.1      3.046      4.405
REMARK  Name = 
REMARK  8 active torsions:
REMARK  status: ('A' for Active; 'I' for Inactive)
REMARK    1  A    between atoms: N_6  and  C_7
REMARK    2  A    between atoms: C_7  and  C_8
REMARK    3  A    between atoms: C_8  and  C_9
REMARK    4  A    between atoms: C_9  and  N_10
REMARK    5  A    between atoms: N_10  and  C_11
REMARK    6  A    between atoms: C_11  and  C_12
REMARK    7  A    between atoms: C_15  and  C_16
REMARK    8  A    between atoms: C_19  and  C_20
REMARK                            x       y       z     vdW  Elec       q    Type
REMARK                         _______ _______ _______ _____ _____    ______ ____
ROOT
ATOM      1  C   UNL     1       3.377   5.123  18.927  0.00  0.00    +0.000 A 
ATOM      2  C   UNL     1       3.307   6.362  18.272  0.00  0.00    +0.000 A 
ATOM      3  C   UNL     1       2.605   7.438  18.832  0.00  0.00    +0.000 A 
ATOM      4  C   UNL     1       1.924   7.316  20.052  0.00  0.00    +0.000 A 
ATOM      5  C   UNL     1       1.970   6.053  20.679  0.00  0.00    +0.000 A 
ATOM      6  C   UNL     1       2.692   4.981  20.136  0.00  0.00    +0.000 A 
ENDROOT
BRANCH   4   7
ATOM      7  C   UNL     1       1.216   8.466  20.673  0.00  0.00    +0.000 A 
ATOM      8  C   UNL     1       0.823   8.473  22.027  0.00  0.00    +0.000 A 
ATOM      9  C   UNL     1       0.143   9.566  22.600  0.00  0.00    +0.000 A 
ATOM     10  C   UNL     1      -0.145  10.695  21.833  0.00  0.00    +0.000 A 
ATOM     11  C   UNL     1       0.246  10.701  20.490  0.00  0.00    +0.000 A 
ATOM     12  C   UNL     1       0.900   9.608  19.919  0.00  0.00    +0.000 A 
BRANCH  10  13
ATOM     13  C   UNL     1      -0.766  11.907  22.366  0.00  0.00    +0.000 A 
ATOM     14  N   UNL     1      -1.846  11.908  23.125  0.00  0.00    +0.000 NA
ATOM     15  C   UNL     1      -2.137  13.216  23.382  0.00  0.00    +0.000 A 
ATOM     16  C   UNL     1      -3.205  13.751  24.110  0.00  0.00    +0.000 A 
ATOM     17  C   UNL     1      -3.292  15.135  24.204  0.00  0.00    +0.000 A 
ATOM     18  F   UNL     1      -4.317  15.678  24.875  0.00  0.00    +0.000 F 
ATOM     19  C   UNL     1      -2.347  15.974  23.614  0.00  0.00    +0.000 A 
ATOM     20  C   UNL     1      -1.260  15.450  22.900  0.00  0.00    +0.000 A 
ATOM     21  C   UNL     1      -1.197  14.056  22.800  0.00  0.00    +0.000 A 
ATOM     22  N   UNL     1      -0.317  13.198  22.183  0.00  0.00    +0.000 N 
ATOM     23  H   UNL     1       0.522  13.462  21.688  0.00  0.00    +0.000 HD
ENDBRANCH  10  13
ENDBRANCH   4   7
BRANCH   1  24
ATOM     24  C   UNL     1       4.161   3.969  18.340  0.00  0.00    +0.000 C 
BRANCH  24  25
ATOM     25  N   UNL     1       5.553   3.990  18.799  0.00  0.00    +0.000 NA
ATOM     26  H   UNL     1       5.655   4.719  19.503  0.00  0.00    +0.000 HD
BRANCH  25  27
ATOM     27  C   UNL     1       6.505   4.230  17.717  0.00  0.00    +0.000 C 
BRANCH  27  28
ATOM     28  C   UNL     1       5.739   4.275  16.389  0.00  0.00    +0.000 C 
BRANCH  28  29
ATOM     29  C   UNL     1       6.339   5.294  15.423  0.00  0.00    +0.000 C 
BRANCH  29  35
ATOM     30  O   UNL     1       8.505   5.846  13.499  0.00  0.00    +0.000 OA
ATOM     31  C   UNL     1       7.586   5.085  13.251  0.00  0.00    +0.000 C 
ATOM     32  C   UNL     1       7.341   4.408  11.924  0.00  0.00    +0.000 C 
ATOM     33  C   UNL     1       6.349   3.306  12.276  0.00  0.00    +0.000 C 
ATOM     34  C   UNL     1       5.587   3.867  13.462  0.00  0.00    +0.000 C 
ATOM     35  N   UNL     1       6.544   4.736  14.096  0.00  0.00    +0.000 N 
ENDBRANCH  29  35
ENDBRANCH  28  29
ENDBRANCH  27  28
ENDBRANCH  25  27
ENDBRANCH  24  25
ENDBRANCH   1  24
TORSDOF 8
ENDMDL
MODEL 7
REMARK VINA RESULT:      -8.0      1.553      2.181
REMARK  Name = 
REMARK  8 active torsions:
REMARK  status: ('A' for Active; 'I' for Inactive)
REMARK    1  A    between atoms: N_6  and  C_7
REMARK    2  A    between atoms: C_7  and  C_8
REMARK    3  A    between atoms: C_8  and  C_9
REMARK    4  A    between atoms: C_9  and  N_10
REMARK    5  A    between atoms: N_10  and  C_11
REMARK    6  A    between atoms: C_11  and  C_12
REMARK    7  A    between atoms: C_15  and  C_16
REMARK    8  A    between atoms: C_19  and  C_20
REMARK                            x       y       z     vdW  Elec       q    Type
REMARK                         _______ _______ _______ _____ _____    ______ ____
ROOT
ATOM      1  C   UNL     1       3.585   6.479  17.760  0.00  0.00    +0.000 A 
ATOM      2  C   UNL     1       3.218   7.747  17.286  0.00  0.00    +0.000 A 
ATOM      3  C   UNL     1       2.439   8.614  18.066  0.00  0.00    +0.000 A 
ATOM      4  C   UNL     1       1.975   8.241  19.336  0.00  0.00    +0.000 A 
ATOM      5  C   UNL     1       2.318   6.948  19.782  0.00  0.00    +0.000 A 
ATOM      6  C   UNL     1       3.117   6.087  19.016  0.00  0.00    +0.000 A 
ENDROOT
BRANCH   4   7
ATOM      7  C   UNL     1       1.188   9.173  20.187  0.00  0.00    +0.000 A 
ATOM      8  C   UNL     1       0.906   8.907  21.542  0.00  0.00    +0.000 A 
ATOM      9  C   UNL     1       0.151   9.794  22.334  0.00  0.00    +0.000 A 
ATOM     10  C   UNL     1      -0.330  10.986  21.791  0.00  0.00    +0.000 A 
ATOM     11  C   UNL     1      -0.051  11.262  20.448  0.00  0.00    +0.000 A 
ATOM     12  C   UNL     1       0.680  10.371  19.661  0.00  0.00    +0.000 A 
BRANCH  10  13
ATOM     13  C   UNL     1      -1.046  12.003  22.560  0.00  0.00    +0.000 A 
ATOM     14  N   UNL     1      -0.485  13.102  23.029  0.00  0.00    +0.000 NA
ATOM     15  C   UNL     1      -1.455  13.769  23.718  0.00  0.00    +0.000 A 
ATOM     16  C   UNL     1      -1.359  14.967  24.433  0.00  0.00    +0.000 A 
ATOM     17  C   UNL     1      -2.502  15.427  25.076  0.00  0.00    +0.000 A 
ATOM     18  F   UNL     1      -2.435  16.561  25.788  0.00  0.00    +0.000 F 
ATOM     19  C   UNL     1      -3.713  14.739  25.009  0.00  0.00    +0.000 A 
ATOM     20  C   UNL     1      -3.828  13.548  24.279  0.00  0.00    +0.000 A 
ATOM     21  C   UNL     1      -2.665  13.090  23.651  0.00  0.00    +0.000 A 
ATOM     22  N   UNL     1      -2.386  11.983  22.883  0.00  0.00    +0.000 N 
ATOM     23  H   UNL     1      -3.049  11.279  22.594  0.00  0.00    +0.000 HD
ENDBRANCH  10  13
ENDBRANCH   4   7
BRANCH   1  24
ATOM     24  C   UNL     1       4.452   5.554  16.932  0.00  0.00    +0.000 C 
BRANCH  24  25
ATOM     25  N   UNL     1       4.802   4.346  17.685  0.00  0.00    +0.000 NA
ATOM     26  H   UNL     1       5.766   4.427  18.004  0.00  0.00    +0.000 HD
BRANCH  25  27
ATOM     27  C   UNL     1       4.657   3.123  16.897  0.00  0.00    +0.000 C 
BRANCH  27  28
ATOM     28  C   UNL     1       4.269   1.976  17.838  0.00  0.00    +0.000 C 
BRANCH  28  29
ATOM     29  C   UNL     1       2.758   1.891  18.035  0.00  0.00    +0.000 C 
BRANCH  29  35
ATOM     30  O   UNL     1       0.070   2.656  18.980  0.00  0.00    +0.000 OA
ATOM     31  C   UNL     1       1.057   2.718  19.692  0.00  0.00    +0.000 C 
ATOM     32  C   UNL     1       1.097   3.287  21.089  0.00  0.00    +0.000 C 
ATOM     33  C   UNL     1       2.420   2.763  21.638  0.00  0.00    +0.000 C 
ATOM     34  C   UNL     1       3.295   2.622  20.407  0.00  0.00    +0.000 C 
ATOM     35  N   UNL     1       2.351   2.352  19.354  0.00  0.00    +0.000 N 
ENDBRANCH  29  35
ENDBRANCH  28  29
ENDBRANCH  27  28
ENDBRANCH  25  27
ENDBRANCH  24  25
ENDBRANCH   1  24
TORSDOF 8
ENDMDL
MODEL 8
REMARK VINA RESULT:      -8.0      4.881     11.563
REMARK  Name = 
REMARK  8 active torsions:
REMARK  status: ('A' for Active; 'I' for Inactive)
REMARK    1  A    between atoms: N_6  and  C_7
REMARK    2  A    between atoms: C_7  and  C_8
REMARK    3  A    between atoms: C_8  and  C_9
REMARK    4  A    between atoms: C_9  and  N_10
REMARK    5  A    between atoms: N_10  and  C_11
REMARK    6  A    between atoms: C_11  and  C_12
REMARK    7  A    between atoms: C_15  and  C_16
REMARK    8  A    between atoms: C_19  and  C_20
REMARK                            x       y       z     vdW  Elec       q    Type
REMARK                         _______ _______ _______ _____ _____    ______ ____
ROOT
ATOM      1  C   UNL     1      -2.445  12.859  21.252  0.00  0.00    +0.000 A 
ATOM      2  C   UNL     1      -1.761  11.985  22.110  0.00  0.00    +0.000 A 
ATOM      3  C   UNL     1      -0.873  11.023  21.607  0.00  0.00    +0.000 A 
ATOM      4  C   UNL     1      -0.652  10.877  20.230  0.00  0.00    +0.000 A 
ATOM      5  C   UNL     1      -1.377  11.737  19.377  0.00  0.00    +0.000 A 
ATOM      6  C   UNL     1      -2.247  12.716  19.877  0.00  0.00    +0.000 A 
ENDROOT
BRANCH   4   7
ATOM      7  C   UNL     1       0.323   9.892  19.692  0.00  0.00    +0.000 A 
ATOM      8  C   UNL     1       0.962   8.936  20.507  0.00  0.00    +0.000 A 
ATOM      9  C   UNL     1       1.892   8.015  19.987  0.00  0.00    +0.000 A 
ATOM     10  C   UNL     1       2.193   8.013  18.624  0.00  0.00    +0.000 A 
ATOM     11  C   UNL     1       1.559   8.954  17.805  0.00  0.00    +0.000 A 
ATOM     12  C   UNL     1       0.655   9.880  18.328  0.00  0.00    +0.000 A 
BRANCH  10  13
ATOM     13  C   UNL     1       3.076   7.039  17.984  0.00  0.00    +0.000 A 
ATOM     14  N   UNL     1       4.134   7.365  17.265  0.00  0.00    +0.000 NA
ATOM     15  C   UNL     1       4.668   6.195  16.809  0.00  0.00    +0.000 A 
ATOM     16  C   UNL     1       5.773   6.001  15.976  0.00  0.00    +0.000 A 
ATOM     17  C   UNL     1       6.101   4.694  15.633  0.00  0.00    +0.000 A 
ATOM     18  F   UNL     1       7.141   4.478  14.817  0.00  0.00    +0.000 F 
ATOM     19  C   UNL     1       5.373   3.604  16.109  0.00  0.00    +0.000 A 
ATOM     20  C   UNL     1       4.275   3.783  16.963  0.00  0.00    +0.000 A 
ATOM     21  C   UNL     1       3.949   5.105  17.284  0.00  0.00    +0.000 A 
ATOM     22  N   UNL     1       2.958   5.667  18.054  0.00  0.00    +0.000 N 
ATOM     23  H   UNL     1       2.265   5.165  18.590  0.00  0.00    +0.000 HD
ENDBRANCH  10  13
ENDBRANCH   4   7
BRANCH   1  24
ATOM     24  C   UNL     1      -3.380  13.918  21.795  0.00  0.00    +0.000 C 
BRANCH  24  25
ATOM     25  N   UNL     1      -3.668  13.688  23.214  0.00  0.00    +0.000 NA
ATOM     26  H   UNL     1      -2.929  13.111  23.610  0.00  0.00    +0.000 HD
BRANCH  25  27
ATOM     27  C   UNL     1      -4.957  13.034  23.433  0.00  0.00    +0.000 C 
BRANCH  27  28
ATOM     28  C   UNL     1      -5.930  13.485  22.337  0.00  0.00    +0.000 C 
BRANCH  28  29
ATOM     29  C   UNL     1      -6.962  12.407  22.017  0.00  0.00    +0.000 C 
BRANCH  29  35
ATOM     30  O   UNL     1      -7.574   9.726  20.949  0.00  0.00    +0.000 OA
ATOM     31  C   UNL     1      -7.126  10.622  20.255  0.00  0.00    +0.000 C 
ATOM     32  C   UNL     1      -6.711  10.488  18.810  0.00  0.00    +0.000 C 
ATOM     33  C   UNL     1      -6.619  11.936  18.341  0.00  0.00    +0.000 C 
ATOM     34  C   UNL     1      -6.253  12.703  19.597  0.00  0.00    +0.000 C 
ATOM     35  N   UNL     1      -6.839  11.918  20.652  0.00  0.00    +0.000 N 
ENDBRANCH  29  35
ENDBRANCH  28  29
ENDBRANCH  27  28
ENDBRANCH  25  27
ENDBRANCH  24  25
ENDBRANCH   1  24
TORSDOF 8
ENDMDL
MODEL 9
REMARK VINA RESULT:      -8.0      0.940      1.176
REMARK  Name = 
REMARK  8 active torsions:
REMARK  status: ('A' for Active; 'I' for Inactive)
REMARK    1  A    between atoms: N_6  and  C_7
REMARK    2  A    between atoms: C_7  and  C_8
REMARK    3  A    between atoms: C_8  and  C_9
REMARK    4  A    between atoms: C_9  and  N_10
REMARK    5  A    between atoms: N_10  and  C_11
REMARK    6  A    between atoms: C_11  and  C_12
REMARK    7  A    between atoms: C_15  and  C_16
REMARK    8  A    between atoms: C_19  and  C_20
REMARK                            x       y       z     vdW  Elec       q    Type
REMARK                         _______ _______ _______ _____ _____    ______ ____
ROOT
ATOM      1  C   UNL     1       3.110   7.054  18.226  0.00  0.00    +0.000 A 
ATOM      2  C   UNL     1       2.684   8.199  17.535  0.00  0.00    +0.000 A 
ATOM      3  C   UNL     1       1.818   9.125  18.133  0.00  0.00    +0.000 A 
ATOM      4  C   UNL     1       1.322   8.935  19.431  0.00  0.00    +0.000 A 
ATOM      5  C   UNL     1       1.726   7.760  20.098  0.00  0.00    +0.000 A 
ATOM      6  C   UNL     1       2.612   6.843  19.514  0.00  0.00    +0.000 A 
ENDROOT
BRANCH   4   7
ATOM      7  C   UNL     1       0.440   9.936  20.087  0.00  0.00    +0.000 A 
ATOM      8  C   UNL     1      -0.629  10.562  19.415  0.00  0.00    +0.000 A 
ATOM      9  C   UNL     1      -1.450  11.517  20.046  0.00  0.00    +0.000 A 
ATOM     10  C   UNL     1      -1.232  11.859  21.381  0.00  0.00    +0.000 A 
ATOM     11  C   UNL     1      -0.177  11.240  22.060  0.00  0.00    +0.000 A 
ATOM     12  C   UNL     1       0.648  10.310  21.424  0.00  0.00    +0.000 A 
BRANCH  10  13
ATOM     13  C   UNL     1      -2.086  12.772  22.140  0.00  0.00    +0.000 A 
ATOM     14  N   UNL     1      -3.336  13.048  21.819  0.00  0.00    +0.000 NA
ATOM     15  C   UNL     1      -3.778  13.961  22.732  0.00  0.00    +0.000 A 
ATOM     16  C   UNL     1      -5.021  14.597  22.808  0.00  0.00    +0.000 A 
ATOM     17  C   UNL     1      -5.213  15.516  23.832  0.00  0.00    +0.000 A 
ATOM     18  F   UNL     1      -6.386  16.159  23.916  0.00  0.00    +0.000 F 
ATOM     19  C   UNL     1      -4.219  15.794  24.769  0.00  0.00    +0.000 A 
ATOM     20  C   UNL     1      -2.975  15.148  24.718  0.00  0.00    +0.000 A 
ATOM     21  C   UNL     1      -2.792  14.238  23.671  0.00  0.00    +0.000 A 
ATOM     22  N   UNL     1      -1.734  13.446  23.289  0.00  0.00    +0.000 N 
ATOM     23  H   UNL     1      -0.851  13.362  23.772  0.00  0.00    +0.000 HD
ENDBRANCH  10  13
ENDBRANCH   4   7
BRANCH   1  24
ATOM     24  C   UNL     1       4.069   6.069  17.594  0.00  0.00    +0.000 C 
BRANCH  24  25
ATOM     25  N   UNL     1       3.420   4.775  17.364  0.00  0.00    +0.000 NA
ATOM     26  H   UNL     1       2.654   4.670  18.026  0.00  0.00    +0.000 HD
BRANCH  25  27
ATOM     27  C   UNL     1       4.337   3.646  17.507  0.00  0.00    +0.000 C 
BRANCH  27  28
ATOM     28  C   UNL     1       3.554   2.346  17.287  0.00  0.00    +0.000 C 
BRANCH  28  29
ATOM     29  C   UNL     1       3.408   1.547  18.580  0.00  0.00    +0.000 C 
BRANCH  29  35
ATOM     30  O   UNL     1       0.573   2.350  18.441  0.00  0.00    +0.000 OA
ATOM     31  C   UNL     1       1.283   2.611  19.397  0.00  0.00    +0.000 C 
ATOM     32  C   UNL     1       0.884   3.459  20.580  0.00  0.00    +0.000 C 
ATOM     33  C   UNL     1       1.952   3.132  21.617  0.00  0.00    +0.000 C 
ATOM     34  C   UNL     1       3.172   2.783  20.786  0.00  0.00    +0.000 C 
ATOM     35  N   UNL     1       2.610   2.251  19.572  0.00  0.00    +0.000 N 
ENDBRANCH  29  35
ENDBRANCH  28  29
ENDBRANCH  27  28
ENDBRANCH  25  27
ENDBRANCH  24  25
ENDBRANCH   1  24
TORSDOF 8
ENDMDL
