MODEL 1
REMARK VINA RESULT:      -7.6      0.000      0.000
REMARK  Name = 
REMARK  8 active torsions:
REMARK  status: ('A' for Active; 'I' for Inactive)
REMARK    1  A    between atoms: C_1  and  O_2
REMARK    2  A    between atoms: O_2  and  C_3
REMARK    3  A    between atoms: C_6  and  C_7
REMARK    4  A    between atoms: C_14  and  N_15
REMARK    5  A    between atoms: C_16  and  C_18
REMARK    6  A    between atoms: C_21  and  O_22
REMARK    7  A    between atoms: O_22  and  C_23
REMARK    8  A    between atoms: C_23  and  C_24
REMARK                            x       y       z     vdW  Elec       q    Type
REMARK                         _______ _______ _______ _____ _____    ______ ____
ROOT
ATOM      1  C   UNL     1      -3.184  12.614  21.001  0.00  0.00    +0.000 A 
ATOM      2  C   UNL     1      -3.571  12.388  22.345  0.00  0.00    +0.000 A 
ATOM      3  C   UNL     1      -2.643  12.320  23.384  0.00  0.00    +0.000 A 
ATOM      4  C   UNL     1      -1.299  12.517  23.115  0.00  0.00    +0.000 A 
ATOM      5  C   UNL     1      -0.880  12.768  21.809  0.00  0.00    +0.000 A 
ATOM      6  C   UNL     1      -1.796  12.780  20.739  0.00  0.00    +0.000 A 
ATOM      7  C   UNL     1      -1.267  12.971  19.332  0.00  0.00    +0.000 C 
ATOM      8  C   UNL     1       0.244  12.751  19.246  0.00  0.00    +0.000 C 
ATOM      9  C   UNL     1       0.890  13.490  20.414  0.00  0.00    +0.000 C 
ATOM     10  O   UNL     1       0.473  12.944  21.672  0.00  0.00    +0.000 OA
ENDROOT
BRANCH   1  14
ATOM     11  C   UNL     1      -6.115  12.803  17.998  0.00  0.00    +0.000 A 
ATOM     12  C   UNL     1      -5.107  11.852  17.972  0.00  0.00    +0.000 A 
ATOM     13  N   UNL     1      -4.150  11.766  18.934  0.00  0.00    +0.000 NA
ATOM     14  C   UNL     1      -4.233  12.663  19.950  0.00  0.00    +0.000 A 
ATOM     15  C   UNL     1      -5.267  13.602  19.963  0.00  0.00    +0.000 A 
ATOM     16  N   UNL     1      -6.219  13.698  19.002  0.00  0.00    +0.000 NA
BRANCH  11  18
ATOM     17  C   UNL     1      -7.264  14.151  16.485  0.00  0.00    +0.000 C 
ATOM     18  O   UNL     1      -7.014  12.830  16.957  0.00  0.00    +0.000 OA
ENDBRANCH  11  18
ENDBRANCH   1  14
BRANCH   8  19
ATOM     19  N   UNL     1       0.555  11.318  19.273  0.00  0.00    +0.000 N 
ATOM     20  C   UNL     1       1.644  10.787  18.619  0.00  0.00    +0.000 C 
ATOM     21  O   UNL     1       2.422  11.451  17.946  0.00  0.00    +0.000 OA
ATOM     22  H   UNL     1       0.187  10.805  20.066  0.00  0.00    +0.000 HD
BRANCH  20  23
ATOM     23  C   UNL     1       1.835   9.325  18.777  0.00  0.00    +0.000 A 
ATOM     24  C   UNL     1       2.340   8.523  17.756  0.00  0.00    +0.000 A 
ATOM     25  C   UNL     1       2.536   7.160  17.981  0.00  0.00    +0.000 A 
ATOM     26  C   UNL     1       2.218   6.633  19.228  0.00  0.00    +0.000 A 
ATOM     27  N   UNL     1       1.740   7.397  20.232  0.00  0.00    +0.000 NA
ATOM     28  C   UNL     1       1.564   8.722  19.995  0.00  0.00    +0.000 A 
BRANCH  26  29
ATOM     29  O   UNL     1       2.433   5.334  19.587  0.00  0.00    +0.000 OA
BRANCH  29  30
ATOM     30  C   UNL     1       1.828   4.346  18.749  0.00  0.00    +0.000 C 
BRANCH  30  31
ATOM     31  C   UNL     1       1.192   3.226  19.569  0.00  0.00    +0.000 C 
ATOM     32  F   UNL     1       0.341   2.458  18.861  0.00  0.00    +0.000 F 
ATOM     33  F   UNL     1       2.143   2.414  20.089  0.00  0.00    +0.000 F 
ATOM     34  F   UNL     1       0.500   3.741  20.614  0.00  0.00    +0.000 F 
ENDBRANCH  30  31
ENDBRANCH  29  30
ENDBRANCH  26  29
ENDBRANCH  20  23
ENDBRANCH   8  19
TORSDOF 7
ENDMDL
MODEL 2
REMARK VINA RESULT:      -7.6      0.846      1.279
REMARK  Name = 
REMARK  8 active torsions:
REMARK  status: ('A' for Active; 'I' for Inactive)
REMARK    1  A    between atoms: C_1  and  O_2
REMARK    2  A    between atoms: O_2  and  C_3
REMARK    3  A    between atoms: C_6  and  C_7
REMARK    4  A    between atoms: C_14  and  N_15
REMARK    5  A    between atoms: C_16  and  C_18
REMARK    6  A    between atoms: C_21  and  O_22
REMARK    7  A    between atoms: O_22  and  C_23
REMARK    8  A    between atoms: C_23  and  C_24
REMARK                            x       y       z     vdW  Elec       q    Type
REMARK                         _______ _______ _______ _____ _____    ______ ____
ROOT
ATOM      1  C   UNL     1      -2.879  12.561  20.904  0.00  0.00    +0.000 A 
ATOM      2  C   UNL     1      -3.273  12.455  22.261  0.00  0.00    +0.000 A 
ATOM      3  C   UNL     1      -2.349  12.452  23.306  0.00  0.00    +0.000 A 
ATOM      4  C   UNL     1      -1.000  12.596  23.027  0.00  0.00    +0.000 A 
ATOM      5  C   UNL     1      -0.574  12.731  21.707  0.00  0.00    +0.000 A 
ATOM      6  C   UNL     1      -1.487  12.675  20.636  0.00  0.00    +0.000 A 
ATOM      7  C   UNL     1      -0.951  12.738  19.220  0.00  0.00    +0.000 C 
ATOM      8  C   UNL     1       0.556  12.479  19.158  0.00  0.00    +0.000 C 
ATOM      9  C   UNL     1       1.215  13.296  20.264  0.00  0.00    +0.000 C 
ATOM     10  O   UNL     1       0.783  12.865  21.561  0.00  0.00    +0.000 OA
ENDROOT
BRANCH   1  14
ATOM     11  C   UNL     1      -5.861  12.465  17.949  0.00  0.00    +0.000 A 
ATOM     12  C   UNL     1      -5.960  13.295  19.055  0.00  0.00    +0.000 A 
ATOM     13  N   UNL     1      -5.006  13.348  20.022  0.00  0.00    +0.000 NA
ATOM     14  C   UNL     1      -3.924  12.547  19.849  0.00  0.00    +0.000 A 
ATOM     15  C   UNL     1      -3.839  11.731  18.718  0.00  0.00    +0.000 A 
ATOM     16  N   UNL     1      -4.791  11.667  17.754  0.00  0.00    +0.000 NA
BRANCH  11  18
ATOM     17  C   UNL     1      -7.311  13.772  16.677  0.00  0.00    +0.000 C 
ATOM     18  O   UNL     1      -6.899  12.458  17.044  0.00  0.00    +0.000 OA
ENDBRANCH  11  18
ENDBRANCH   1  14
BRANCH   8  19
ATOM     19  N   UNL     1       0.834  11.046  19.304  0.00  0.00    +0.000 N 
ATOM     20  C   UNL     1       1.688  10.372  18.460  0.00  0.00    +0.000 C 
ATOM     21  O   UNL     1       2.262  10.895  17.513  0.00  0.00    +0.000 OA
ATOM     22  H   UNL     1       0.691  10.664  20.231  0.00  0.00    +0.000 HD
BRANCH  20  23
ATOM     23  C   UNL     1       1.888   8.935  18.767  0.00  0.00    +0.000 A 
ATOM     24  C   UNL     1       2.453   8.047  17.854  0.00  0.00    +0.000 A 
ATOM     25  C   UNL     1       2.653   6.715  18.218  0.00  0.00    +0.000 A 
ATOM     26  C   UNL     1       2.278   6.304  19.493  0.00  0.00    +0.000 A 
ATOM     27  N   UNL     1       1.741   7.152  20.393  0.00  0.00    +0.000 NA
ATOM     28  C   UNL     1       1.563   8.445  20.022  0.00  0.00    +0.000 A 
BRANCH  26  29
ATOM     29  O   UNL     1       2.490   5.049  19.984  0.00  0.00    +0.000 OA
BRANCH  29  30
ATOM     30  C   UNL     1       1.396   4.464  20.696  0.00  0.00    +0.000 C 
BRANCH  30  31
ATOM     31  C   UNL     1       1.632   2.981  20.970  0.00  0.00    +0.000 C 
ATOM     32  F   UNL     1       2.931   2.666  21.143  0.00  0.00    +0.000 F 
ATOM     33  F   UNL     1       0.962   2.586  22.079  0.00  0.00    +0.000 F 
ATOM     34  F   UNL     1       1.166   2.232  19.940  0.00  0.00    +0.000 F 
ENDBRANCH  30  31
ENDBRANCH  29  30
ENDBRANCH  26  29
ENDBRANCH  20  23
ENDBRANCH   8  19
TORSDOF 7
ENDMDL
MODEL 3
REMARK VINA RESULT:      -7.4      5.546      9.066
REMARK  Name = 
REMARK  8 active torsions:
REMARK  status: ('A' for Active; 'I' for Inactive)
REMARK    1  A    between atoms: C_1  and  O_2
REMARK    2  A    between atoms: O_2  and  C_3
REMARK    3  A    between atoms: C_6  and  C_7
REMARK    4  A    between atoms: C_14  and  N_15
REMARK    5  A    between atoms: C_16  and  C_18
REMARK    6  A    between atoms: C_21  and  O_22
REMARK    7  A    between atoms: O_22  and  C_23
REMARK    8  A    between atoms: C_23  and  C_24
REMARK                            x       y       z     vdW  Elec       q    Type
REMARK                         _______ _______ _______ _____ _____    ______ ____
ROOT
ATOM      1  C   UNL     1       2.581   5.932  19.523  0.00  0.00    +0.000 A 
ATOM      2  C   UNL     1       1.677   4.927  19.947  0.00  0.00    +0.000 A 
ATOM      3  C   UNL     1       2.065   3.597  20.107  0.00  0.00    +0.000 A 
ATOM      4  C   UNL     1       3.384   3.237  19.884  0.00  0.00    +0.000 A 
ATOM      5  C   UNL     1       4.311   4.201  19.491  0.00  0.00    +0.000 A 
ATOM      6  C   UNL     1       3.923   5.537  19.266  0.00  0.00    +0.000 A 
ATOM      7  C   UNL     1       4.959   6.518  18.754  0.00  0.00    +0.000 C 
ATOM      8  C   UNL     1       6.199   5.814  18.199  0.00  0.00    +0.000 C 
ATOM      9  C   UNL     1       6.599   4.725  19.188  0.00  0.00    +0.000 C 
ATOM     10  O   UNL     1       5.581   3.722  19.300  0.00  0.00    +0.000 OA
ENDROOT
BRANCH   1  14
ATOM     11  C   UNL     1       1.125   9.844  19.061  0.00  0.00    +0.000 A 
ATOM     12  C   UNL     1       1.095   9.197  20.286  0.00  0.00    +0.000 A 
ATOM     13  N   UNL     1       1.565   7.933  20.463  0.00  0.00    +0.000 NA
ATOM     14  C   UNL     1       2.088   7.323  19.368  0.00  0.00    +0.000 A 
ATOM     15  C   UNL     1       2.121   8.002  18.147  0.00  0.00    +0.000 A 
ATOM     16  N   UNL     1       1.646   9.259  17.963  0.00  0.00    +0.000 NA
BRANCH  11  18
ATOM     17  C   UNL     1       1.420  12.092  19.594  0.00  0.00    +0.000 C 
ATOM     18  O   UNL     1       0.591  11.110  18.978  0.00  0.00    +0.000 OA
ENDBRANCH  11  18
ENDBRANCH   1  14
BRANCH   8  19
ATOM     19  N   UNL     1       5.921   5.263  16.869  0.00  0.00    +0.000 N 
ATOM     20  C   UNL     1       6.748   5.486  15.790  0.00  0.00    +0.000 C 
ATOM     21  O   UNL     1       7.759   6.176  15.841  0.00  0.00    +0.000 OA
ATOM     22  H   UNL     1       5.340   4.433  16.851  0.00  0.00    +0.000 HD
BRANCH  20  23
ATOM     23  C   UNL     1       6.342   4.827  14.525  0.00  0.00    +0.000 A 
ATOM     24  C   UNL     1       7.221   4.653  13.458  0.00  0.00    +0.000 A 
ATOM     25  C   UNL     1       6.790   3.987  12.310  0.00  0.00    +0.000 A 
ATOM     26  C   UNL     1       5.484   3.513  12.260  0.00  0.00    +0.000 A 
ATOM     27  N   UNL     1       4.624   3.661  13.288  0.00  0.00    +0.000 NA
ATOM     28  C   UNL     1       5.065   4.305  14.399  0.00  0.00    +0.000 A 
BRANCH  26  29
ATOM     29  O   UNL     1       4.974   2.787  11.223  0.00  0.00    +0.000 OA
BRANCH  29  30
ATOM     30  C   UNL     1       3.562   2.890  11.023  0.00  0.00    +0.000 C 
BRANCH  30  31
ATOM     31  C   UNL     1       3.225   3.815   9.856  0.00  0.00    +0.000 C 
ATOM     32  F   UNL     1       2.254   4.706  10.139  0.00  0.00    +0.000 F 
ATOM     33  F   UNL     1       4.319   4.511   9.463  0.00  0.00    +0.000 F 
ATOM     34  F   UNL     1       2.813   3.093   8.785  0.00  0.00    +0.000 F 
ENDBRANCH  30  31
ENDBRANCH  29  30
ENDBRANCH  26  29
ENDBRANCH  20  23
ENDBRANCH   8  19
TORSDOF 7
ENDMDL
MODEL 4
REMARK VINA RESULT:      -7.4      0.797      1.266
REMARK  Name = 
REMARK  8 active torsions:
REMARK  status: ('A' for Active; 'I' for Inactive)
REMARK    1  A    between atoms: C_1  and  O_2
REMARK    2  A    between atoms: O_2  and  C_3
REMARK    3  A    between atoms: C_6  and  C_7
REMARK    4  A    between atoms: C_14  and  N_15
REMARK    5  A    between atoms: C_16  and  C_18
REMARK    6  A    between atoms: C_21  and  O_22
REMARK    7  A    between atoms: O_22  and  C_23
REMARK    8  A    between atoms: C_23  and  C_24
REMARK                            x       y       z     vdW  Elec       q    Type
REMARK                         _______ _______ _______ _____ _____    ______ ____
ROOT
ATOM      1  C   UNL     1      -2.898  12.687  21.004  0.00  0.00    +0.000 A 
ATOM      2  C   UNL     1      -3.230  12.656  22.381  0.00  0.00    +0.000 A 
ATOM      3  C   UNL     1      -2.260  12.702  23.381  0.00  0.00    +0.000 A 
ATOM      4  C   UNL     1      -0.925  12.822  23.035  0.00  0.00    +0.000 A 
ATOM      5  C   UNL     1      -0.558  12.884  21.692  0.00  0.00    +0.000 A 
ATOM      6  C   UNL     1      -1.519  12.778  20.668  0.00  0.00    +0.000 A 
ATOM      7  C   UNL     1      -1.047  12.763  19.227  0.00  0.00    +0.000 C 
ATOM      8  C   UNL     1       0.454  12.490  19.112  0.00  0.00    +0.000 C 
ATOM      9  C   UNL     1       1.166  13.361  20.142  0.00  0.00    +0.000 C 
ATOM     10  O   UNL     1       0.792  13.001  21.478  0.00  0.00    +0.000 OA
ENDROOT
BRANCH   1  14
ATOM     11  C   UNL     1      -5.958  12.566  18.131  0.00  0.00    +0.000 A 
ATOM     12  C   UNL     1      -4.836  11.759  18.032  0.00  0.00    +0.000 A 
ATOM     13  N   UNL     1      -3.834  11.775  18.952  0.00  0.00    +0.000 NA
ATOM     14  C   UNL     1      -3.989  12.625  20.000  0.00  0.00    +0.000 A 
ATOM     15  C   UNL     1      -5.137  13.417  20.085  0.00  0.00    +0.000 A 
ATOM     16  N   UNL     1      -6.136  13.411  19.167  0.00  0.00    +0.000 NA
BRANCH  11  18
ATOM     17  C   UNL     1      -7.260  13.788  16.635  0.00  0.00    +0.000 C 
ATOM     18  O   UNL     1      -6.899  12.501  17.128  0.00  0.00    +0.000 OA
ENDBRANCH  11  18
ENDBRANCH   1  14
BRANCH   8  19
ATOM     19  N   UNL     1       0.733  11.066  19.320  0.00  0.00    +0.000 N 
ATOM     20  C   UNL     1       1.645  10.373  18.556  0.00  0.00    +0.000 C 
ATOM     21  O   UNL     1       2.276  10.872  17.633  0.00  0.00    +0.000 OA
ATOM     22  H   UNL     1       0.532  10.711  20.248  0.00  0.00    +0.000 HD
BRANCH  20  23
ATOM     23  C   UNL     1       1.835   8.948  18.921  0.00  0.00    +0.000 A 
ATOM     24  C   UNL     1       1.507   8.449  20.181  0.00  0.00    +0.000 A 
ATOM     25  C   UNL     1       1.669   7.090  20.449  0.00  0.00    +0.000 A 
ATOM     26  C   UNL     1       2.160   6.262  19.445  0.00  0.00    +0.000 A 
ATOM     27  N   UNL     1       2.470   6.725  18.217  0.00  0.00    +0.000 NA
ATOM     28  C   UNL     1       2.298   8.049  17.974  0.00  0.00    +0.000 A 
BRANCH  26  29
ATOM     29  O   UNL     1       2.293   4.909  19.567  0.00  0.00    +0.000 OA
BRANCH  29  30
ATOM     30  C   UNL     1       2.010   4.368  20.860  0.00  0.00    +0.000 C 
BRANCH  30  31
ATOM     31  C   UNL     1       1.365   2.988  20.763  0.00  0.00    +0.000 C 
ATOM     32  F   UNL     1       0.960   2.499  21.952  0.00  0.00    +0.000 F 
ATOM     33  F   UNL     1       0.289   3.018  19.942  0.00  0.00    +0.000 F 
ATOM     34  F   UNL     1       2.239   2.095  20.235  0.00  0.00    +0.000 F 
ENDBRANCH  30  31
ENDBRANCH  29  30
ENDBRANCH  26  29
ENDBRANCH  20  23
ENDBRANCH   8  19
TORSDOF 7
ENDMDL
MODEL 5
REMARK VINA RESULT:      -7.4      0.940      1.201
REMARK  Name = 
REMARK  8 active torsions:
REMARK  status: ('A' for Active; 'I' for Inactive)
REMARK    1  A    between atoms: C_1  and  O_2
REMARK    2  A    between atoms: O_2  and  C_3
REMARK    3  A    between atoms: C_6  and  C_7
REMARK    4  A    between atoms: C_14  and  N_15
REMARK    5  A    between atoms: C_16  and  C_18
REMARK    6  A    between atoms: C_21  and  O_22
REMARK    7  A    between atoms: O_22  and  C_23
REMARK    8  A    between atoms: C_23  and  C_24
REMARK                            x       y       z     vdW  Elec       q    Type
REMARK                         _______ _______ _______ _____ _____    ______ ____
ROOT
ATOM      1  C   UNL     1      -2.760  12.533  20.838  0.00  0.00    +0.000 A 
ATOM      2  C   UNL     1      -3.162  12.518  22.196  0.00  0.00    +0.000 A 
ATOM      3  C   UNL     1      -2.242  12.526  23.244  0.00  0.00    +0.000 A 
ATOM      4  C   UNL     1      -0.887  12.591  22.965  0.00  0.00    +0.000 A 
ATOM      5  C   UNL     1      -0.451  12.634  21.642  0.00  0.00    +0.000 A 
ATOM      6  C   UNL     1      -1.363  12.565  20.571  0.00  0.00    +0.000 A 
ATOM      7  C   UNL     1      -0.821  12.527  19.156  0.00  0.00    +0.000 C 
ATOM      8  C   UNL     1       0.672  12.193  19.116  0.00  0.00    +0.000 C 
ATOM      9  C   UNL     1       1.366  13.036  20.180  0.00  0.00    +0.000 C 
ATOM     10  O   UNL     1       0.911  12.695  21.496  0.00  0.00    +0.000 OA
ENDROOT
BRANCH   1  14
ATOM     11  C   UNL     1      -5.732  12.419  17.873  0.00  0.00    +0.000 A 
ATOM     12  C   UNL     1      -5.850  13.230  18.990  0.00  0.00    +0.000 A 
ATOM     13  N   UNL     1      -4.900  13.289  19.961  0.00  0.00    +0.000 NA
ATOM     14  C   UNL     1      -3.801  12.513  19.780  0.00  0.00    +0.000 A 
ATOM     15  C   UNL     1      -3.697  11.715  18.637  0.00  0.00    +0.000 A 
ATOM     16  N   UNL     1      -4.645  11.646  17.669  0.00  0.00    +0.000 NA
BRANCH  11  18
ATOM     17  C   UNL     1      -7.318  13.699  16.745  0.00  0.00    +0.000 C 
ATOM     18  O   UNL     1      -6.766  12.403  16.965  0.00  0.00    +0.000 OA
ENDBRANCH  11  18
ENDBRANCH   1  14
BRANCH   8  19
ATOM     19  N   UNL     1       0.880  10.759  19.339  0.00  0.00    +0.000 N 
ATOM     20  C   UNL     1       1.693   9.997  18.529  0.00  0.00    +0.000 C 
ATOM     21  O   UNL     1       2.284  10.439  17.551  0.00  0.00    +0.000 OA
ATOM     22  H   UNL     1       0.726  10.436  20.287  0.00  0.00    +0.000 HD
BRANCH  20  23
ATOM     23  C   UNL     1       1.824   8.571  18.914  0.00  0.00    +0.000 A 
ATOM     24  C   UNL     1       2.287   7.598  18.030  0.00  0.00    +0.000 A 
ATOM     25  C   UNL     1       2.428   6.280  18.465  0.00  0.00    +0.000 A 
ATOM     26  C   UNL     1       2.098   5.969  19.780  0.00  0.00    +0.000 A 
ATOM     27  N   UNL     1       1.660   6.899  20.652  0.00  0.00    +0.000 NA
ATOM     28  C   UNL     1       1.538   8.177  20.211  0.00  0.00    +0.000 A 
BRANCH  26  29
ATOM     29  O   UNL     1       2.261   4.734  20.337  0.00  0.00    +0.000 OA
BRANCH  29  30
ATOM     30  C   UNL     1       3.038   3.804  19.577  0.00  0.00    +0.000 C 
BRANCH  30  31
ATOM     31  C   UNL     1       2.182   2.654  19.051  0.00  0.00    +0.000 C 
ATOM     32  F   UNL     1       1.565   2.933  17.885  0.00  0.00    +0.000 F 
ATOM     33  F   UNL     1       2.935   1.544  18.862  0.00  0.00    +0.000 F 
ATOM     34  F   UNL     1       1.222   2.330  19.951  0.00  0.00    +0.000 F 
ENDBRANCH  30  31
ENDBRANCH  29  30
ENDBRANCH  26  29
ENDBRANCH  20  23
ENDBRANCH   8  19
TORSDOF 7
ENDMDL
MODEL 6
REMARK VINA RESULT:      -7.3      5.632      9.159
REMARK  Name = 
REMARK  8 active torsions:
REMARK  status: ('A' for Active; 'I' for Inactive)
REMARK    1  A    between atoms: C_1  and  O_2
REMARK    2  A    between atoms: O_2  and  C_3
REMARK    3  A    between atoms: C_6  and  C_7
REMARK    4  A    between atoms: C_14  and  N_15
REMARK    5  A    between atoms: C_16  and  C_18
REMARK    6  A    between atoms: C_21  and  O_22
REMARK    7  A    between atoms: O_22  and  C_23
REMARK    8  A    between atoms: C_23  and  C_24
REMARK                            x       y       z     vdW  Elec       q    Type
REMARK                         _______ _______ _______ _____ _____    ______ ____
ROOT
ATOM      1  C   UNL     1       2.379   5.600  19.606  0.00  0.00    +0.000 A 
ATOM      2  C   UNL     1       1.367   4.625  19.784  0.00  0.00    +0.000 A 
ATOM      3  C   UNL     1       1.650   3.260  19.835  0.00  0.00    +0.000 A 
ATOM      4  C   UNL     1       2.964   2.830  19.750  0.00  0.00    +0.000 A 
ATOM      5  C   UNL     1       3.991   3.759  19.601  0.00  0.00    +0.000 A 
ATOM      6  C   UNL     1       3.719   5.136  19.487  0.00  0.00    +0.000 A 
ATOM      7  C   UNL     1       4.872   6.088  19.238  0.00  0.00    +0.000 C 
ATOM      8  C   UNL     1       6.135   5.359  18.774  0.00  0.00    +0.000 C 
ATOM      9  C   UNL     1       6.326   4.141  19.672  0.00  0.00    +0.000 C 
ATOM     10  O   UNL     1       5.246   3.210  19.527  0.00  0.00    +0.000 OA
ENDROOT
BRANCH   1  14
ATOM     11  C   UNL     1       1.231   9.636  19.430  0.00  0.00    +0.000 A 
ATOM     12  C   UNL     1       1.143   8.906  20.604  0.00  0.00    +0.000 A 
ATOM     13  N   UNL     1       1.514   7.600  20.689  0.00  0.00    +0.000 NA
ATOM     14  C   UNL     1       1.995   7.033  19.553  0.00  0.00    +0.000 A 
ATOM     15  C   UNL     1       2.089   7.794  18.385  0.00  0.00    +0.000 A 
ATOM     16  N   UNL     1       1.714   9.094  18.292  0.00  0.00    +0.000 NA
BRANCH  11  18
ATOM     17  C   UNL     1      -0.229  11.168  20.404  0.00  0.00    +0.000 C 
ATOM     18  O   UNL     1       0.796  10.942  19.439  0.00  0.00    +0.000 OA
ENDBRANCH  11  18
ENDBRANCH   1  14
BRANCH   8  19
ATOM     19  N   UNL     1       6.016   4.978  17.363  0.00  0.00    +0.000 N 
ATOM     20  C   UNL     1       6.752   5.586  16.371  0.00  0.00    +0.000 C 
ATOM     21  O   UNL     1       7.540   6.502  16.574  0.00  0.00    +0.000 OA
ATOM     22  H   UNL     1       5.680   4.038  17.189  0.00  0.00    +0.000 HD
BRANCH  20  23
ATOM     23  C   UNL     1       6.539   5.059  15.001  0.00  0.00    +0.000 A 
ATOM     24  C   UNL     1       7.497   5.181  13.996  0.00  0.00    +0.000 A 
ATOM     25  C   UNL     1       7.254   4.626  12.740  0.00  0.00    +0.000 A 
ATOM     26  C   UNL     1       6.052   3.962  12.520  0.00  0.00    +0.000 A 
ATOM     27  N   UNL     1       5.119   3.824  13.485  0.00  0.00    +0.000 NA
ATOM     28  C   UNL     1       5.379   4.364  14.703  0.00  0.00    +0.000 A 
BRANCH  26  29
ATOM     29  O   UNL     1       5.734   3.321  11.358  0.00  0.00    +0.000 OA
BRANCH  29  30
ATOM     30  C   UNL     1       5.438   1.927  11.475  0.00  0.00    +0.000 C 
BRANCH  30  31
ATOM     31  C   UNL     1       6.594   1.062  10.980  0.00  0.00    +0.000 C 
ATOM     32  F   UNL     1       6.366  -0.261  11.100  0.00  0.00    +0.000 F 
ATOM     33  F   UNL     1       6.860   1.317   9.677  0.00  0.00    +0.000 F 
ATOM     34  F   UNL     1       7.724   1.343  11.675  0.00  0.00    +0.000 F 
ENDBRANCH  30  31
ENDBRANCH  29  30
ENDBRANCH  26  29
ENDBRANCH  20  23
ENDBRANCH   8  19
TORSDOF 7
ENDMDL
MODEL 7
REMARK VINA RESULT:      -7.3      5.346      8.978
REMARK  Name = 
REMARK  8 active torsions:
REMARK  status: ('A' for Active; 'I' for Inactive)
REMARK    1  A    between atoms: C_1  and  O_2
REMARK    2  A    between atoms: O_2  and  C_3
REMARK    3  A    between atoms: C_6  and  C_7
REMARK    4  A    between atoms: C_14  and  N_15
REMARK    5  A    between atoms: C_16  and  C_18
REMARK    6  A    between atoms: C_21  and  O_22
REMARK    7  A    between atoms: O_22  and  C_23
REMARK    8  A    between atoms: C_23  and  C_24
REMARK                            x       y       z     vdW  Elec       q    Type
REMARK                         _______ _______ _______ _____ _____    ______ ____
ROOT
ATOM      1  C   UNL     1       2.483   5.671  19.362  0.00  0.00    +0.000 A 
ATOM      2  C   UNL     1       1.496   4.679  19.579  0.00  0.00    +0.000 A 
ATOM      3  C   UNL     1       1.816   3.329  19.717  0.00  0.00    +0.000 A 
ATOM      4  C   UNL     1       3.143   2.933  19.683  0.00  0.00    +0.000 A 
ATOM      5  C   UNL     1       4.147   3.882  19.498  0.00  0.00    +0.000 A 
ATOM      6  C   UNL     1       3.837   5.242  19.296  0.00  0.00    +0.000 A 
ATOM      7  C   UNL     1       4.968   6.210  19.012  0.00  0.00    +0.000 C 
ATOM      8  C   UNL     1       6.261   5.493  18.617  0.00  0.00    +0.000 C 
ATOM      9  C   UNL     1       6.468   4.337  19.591  0.00  0.00    +0.000 C 
ATOM     10  O   UNL     1       5.418   3.367  19.482  0.00  0.00    +0.000 OA
ENDROOT
BRANCH   1  14
ATOM     11  C   UNL     1       1.347   9.695  18.967  0.00  0.00    +0.000 A 
ATOM     12  C   UNL     1       1.760   8.946  17.877  0.00  0.00    +0.000 A 
ATOM     13  N   UNL     1       2.128   7.641  17.977  0.00  0.00    +0.000 NA
ATOM     14  C   UNL     1       2.059   7.086  19.215  0.00  0.00    +0.000 A 
ATOM     15  C   UNL     1       1.624   7.858  20.296  0.00  0.00    +0.000 A 
ATOM     16  N   UNL     1       1.264   9.162  20.203  0.00  0.00    +0.000 NA
BRANCH  11  18
ATOM     17  C   UNL     1       0.056  11.494  19.693  0.00  0.00    +0.000 C 
ATOM     18  O   UNL     1       1.030  11.019  18.767  0.00  0.00    +0.000 OA
ENDBRANCH  11  18
ENDBRANCH   1  14
BRANCH   8  19
ATOM     19  N   UNL     1       6.182   5.026  17.230  0.00  0.00    +0.000 N 
ATOM     20  C   UNL     1       6.873   5.635  16.206  0.00  0.00    +0.000 C 
ATOM     21  O   UNL     1       7.582   6.622  16.359  0.00  0.00    +0.000 OA
ATOM     22  H   UNL     1       5.925   4.053  17.109  0.00  0.00    +0.000 HD
BRANCH  20  23
ATOM     23  C   UNL     1       6.712   5.016  14.868  0.00  0.00    +0.000 A 
ATOM     24  C   UNL     1       7.567   5.302  13.805  0.00  0.00    +0.000 A 
ATOM     25  C   UNL     1       7.389   4.654  12.583  0.00  0.00    +0.000 A 
ATOM     26  C   UNL     1       6.354   3.735  12.455  0.00  0.00    +0.000 A 
ATOM     27  N   UNL     1       5.525   3.437  13.476  0.00  0.00    +0.000 NA
ATOM     28  C   UNL     1       5.720   4.072  14.660  0.00  0.00    +0.000 A 
BRANCH  26  29
ATOM     29  O   UNL     1       6.127   2.990  11.334  0.00  0.00    +0.000 OA
BRANCH  29  30
ATOM     30  C   UNL     1       4.901   2.254  11.310  0.00  0.00    +0.000 C 
BRANCH  30  31
ATOM     31  C   UNL     1       3.723   3.135  10.901  0.00  0.00    +0.000 C 
ATOM     32  F   UNL     1       4.037   4.442  10.806  0.00  0.00    +0.000 F 
ATOM     33  F   UNL     1       3.224   2.744   9.704  0.00  0.00    +0.000 F 
ATOM     34  F   UNL     1       2.717   3.025  11.803  0.00  0.00    +0.000 F 
ENDBRANCH  30  31
ENDBRANCH  29  30
ENDBRANCH  26  29
ENDBRANCH  20  23
ENDBRANCH   8  19
TORSDOF 7
ENDMDL
MODEL 8
REMARK VINA RESULT:      -7.1      5.416      8.960
REMARK  Name = 
REMARK  8 active torsions:
REMARK  status: ('A' for Active; 'I' for Inactive)
REMARK    1  A    between atoms: C_1  and  O_2
REMARK    2  A    between atoms: O_2  and  C_3
REMARK    3  A    between atoms: C_6  and  C_7
REMARK    4  A    between atoms: C_14  and  N_15
REMARK    5  A    between atoms: C_16  and  C_18
REMARK    6  A    between atoms: C_21  and  O_22
REMARK    7  A    between atoms: O_22  and  C_23
REMARK    8  A    between atoms: C_23  and  C_24
REMARK                            x       y       z     vdW  Elec       q    Type
REMARK                         _______ _______ _______ _____ _____    ______ ____
ROOT
ATOM      1  C   UNL     1       2.560   5.884  19.607  0.00  0.00    +0.000 A 
ATOM      2  C   UNL     1       1.628   4.889  19.993  0.00  0.00    +0.000 A 
ATOM      3  C   UNL     1       2.000   3.561  20.200  0.00  0.00    +0.000 A 
ATOM      4  C   UNL     1       3.329   3.194  20.066  0.00  0.00    +0.000 A 
ATOM      5  C   UNL     1       4.281   4.148  19.714  0.00  0.00    +0.000 A 
ATOM      6  C   UNL     1       3.914   5.480  19.441  0.00  0.00    +0.000 A 
ATOM      7  C   UNL     1       4.983   6.449  18.976  0.00  0.00    +0.000 C 
ATOM      8  C   UNL     1       6.252   5.732  18.512  0.00  0.00    +0.000 C 
ATOM      9  C   UNL     1       6.586   4.660  19.544  0.00  0.00    +0.000 C 
ATOM     10  O   UNL     1       5.559   3.662  19.611  0.00  0.00    +0.000 OA
ENDROOT
BRANCH   1  14
ATOM     11  C   UNL     1       1.146   9.790  18.992  0.00  0.00    +0.000 A 
ATOM     12  C   UNL     1       1.177   9.218  20.254  0.00  0.00    +0.000 A 
ATOM     13  N   UNL     1       1.635   7.958  20.480  0.00  0.00    +0.000 NA
ATOM     14  C   UNL     1       2.082   7.273  19.396  0.00  0.00    +0.000 A 
ATOM     15  C   UNL     1       2.055   7.878  18.136  0.00  0.00    +0.000 A 
ATOM     16  N   UNL     1       1.593   9.131  17.903  0.00  0.00    +0.000 NA
BRANCH  11  18
ATOM     17  C   UNL     1       0.129  11.572  20.096  0.00  0.00    +0.000 C 
ATOM     18  O   UNL     1       0.630  11.060  18.864  0.00  0.00    +0.000 OA
ENDBRANCH  11  18
ENDBRANCH   1  14
BRANCH   8  19
ATOM     19  N   UNL     1       6.055   5.157  17.177  0.00  0.00    +0.000 N 
ATOM     20  C   UNL     1       6.822   5.525  16.095  0.00  0.00    +0.000 C 
ATOM     21  O   UNL     1       7.706   6.371  16.145  0.00  0.00    +0.000 OA
ATOM     22  H   UNL     1       5.618   4.243  17.154  0.00  0.00    +0.000 HD
BRANCH  20  23
ATOM     23  C   UNL     1       6.517   4.822  14.825  0.00  0.00    +0.000 A 
ATOM     24  C   UNL     1       5.367   4.053  14.655  0.00  0.00    +0.000 A 
ATOM     25  C   UNL     1       5.116   3.450  13.422  0.00  0.00    +0.000 A 
ATOM     26  C   UNL     1       6.028   3.632  12.388  0.00  0.00    +0.000 A 
ATOM     27  N   UNL     1       7.139   4.382  12.531  0.00  0.00    +0.000 NA
ATOM     28  C   UNL     1       7.361   4.967  13.736  0.00  0.00    +0.000 A 
BRANCH  26  29
ATOM     29  O   UNL     1       5.854   3.152  11.122  0.00  0.00    +0.000 OA
BRANCH  29  30
ATOM     30  C   UNL     1       4.706   2.324  10.920  0.00  0.00    +0.000 C 
BRANCH  30  31
ATOM     31  C   UNL     1       3.471   3.150  10.570  0.00  0.00    +0.000 C 
ATOM     32  F   UNL     1       3.702   4.477  10.541  0.00  0.00    +0.000 F 
ATOM     33  F   UNL     1       2.982   2.792   9.358  0.00  0.00    +0.000 F 
ATOM     34  F   UNL     1       2.484   2.929  11.473  0.00  0.00    +0.000 F 
ENDBRANCH  30  31
ENDBRANCH  29  30
ENDBRANCH  26  29
ENDBRANCH  20  23
ENDBRANCH   8  19
TORSDOF 7
ENDMDL
MODEL 9
REMARK VINA RESULT:      -7.1      5.315      9.078
REMARK  Name = 
REMARK  8 active torsions:
REMARK  status: ('A' for Active; 'I' for Inactive)
REMARK    1  A    between atoms: C_1  and  O_2
REMARK    2  A    between atoms: O_2  and  C_3
REMARK    3  A    between atoms: C_6  and  C_7
REMARK    4  A    between atoms: C_14  and  N_15
REMARK    5  A    between atoms: C_16  and  C_18
REMARK    6  A    between atoms: C_21  and  O_22
REMARK    7  A    between atoms: O_22  and  C_23
REMARK    8  A    between atoms: C_23  and  C_24
REMARK                            x       y       z     vdW  Elec       q    Type
REMARK                         _______ _______ _______ _____ _____    ______ ____
ROOT
ATOM      1  C   UNL     1       2.239   5.536  19.677  0.00  0.00    +0.000 A 
ATOM      2  C   UNL     1       1.202   4.572  19.725  0.00  0.00    +0.000 A 
ATOM      3  C   UNL     1       1.456   3.203  19.636  0.00  0.00    +0.000 A 
ATOM      4  C   UNL     1       2.762   2.754  19.536  0.00  0.00    +0.000 A 
ATOM      5  C   UNL     1       3.812   3.670  19.513  0.00  0.00    +0.000 A 
ATOM      6  C   UNL     1       3.571   5.057  19.540  0.00  0.00    +0.000 A 
ATOM      7  C   UNL     1       4.750   6.003  19.422  0.00  0.00    +0.000 C 
ATOM      8  C   UNL     1       6.009   5.298  18.913  0.00  0.00    +0.000 C 
ATOM      9  C   UNL     1       6.151   3.987  19.679  0.00  0.00    +0.000 C 
ATOM     10  O   UNL     1       5.056   3.103  19.410  0.00  0.00    +0.000 OA
ENDROOT
BRANCH   1  14
ATOM     11  C   UNL     1       1.178   9.593  19.906  0.00  0.00    +0.000 A 
ATOM     12  C   UNL     1       1.043   8.744  20.993  0.00  0.00    +0.000 A 
ATOM     13  N   UNL     1       1.384   7.429  20.946  0.00  0.00    +0.000 NA
ATOM     14  C   UNL     1       1.885   6.975  19.768  0.00  0.00    +0.000 A 
ATOM     15  C   UNL     1       2.027   7.855  18.691  0.00  0.00    +0.000 A 
ATOM     16  N   UNL     1       1.681   9.166  18.730  0.00  0.00    +0.000 NA
BRANCH  11  18
ATOM     17  C   UNL     1       1.261  11.739  19.002  0.00  0.00    +0.000 C 
ATOM     18  O   UNL     1       0.770  10.901  20.045  0.00  0.00    +0.000 OA
ENDBRANCH  11  18
ENDBRANCH   1  14
BRANCH   8  19
ATOM     19  N   UNL     1       5.919   5.073  17.466  0.00  0.00    +0.000 N 
ATOM     20  C   UNL     1       6.994   4.650  16.718  0.00  0.00    +0.000 C 
ATOM     21  O   UNL     1       8.110   4.453  17.183  0.00  0.00    +0.000 OA
ATOM     22  H   UNL     1       4.991   4.873  17.111  0.00  0.00    +0.000 HD
BRANCH  20  23
ATOM     23  C   UNL     1       6.725   4.437  15.275  0.00  0.00    +0.000 A 
ATOM     24  C   UNL     1       7.544   4.961  14.277  0.00  0.00    +0.000 A 
ATOM     25  C   UNL     1       7.261   4.689  12.938  0.00  0.00    +0.000 A 
ATOM     26  C   UNL     1       6.159   3.897  12.632  0.00  0.00    +0.000 A 
ATOM     27  N   UNL     1       5.364   3.372  13.586  0.00  0.00    +0.000 NA
ATOM     28  C   UNL     1       5.661   3.641  14.882  0.00  0.00    +0.000 A 
BRANCH  26  29
ATOM     29  O   UNL     1       5.826   3.506  11.368  0.00  0.00    +0.000 OA
BRANCH  29  30
ATOM     30  C   UNL     1       4.745   2.576  11.266  0.00  0.00    +0.000 C 
BRANCH  30  31
ATOM     31  C   UNL     1       3.506   3.219  10.647  0.00  0.00    +0.000 C 
ATOM     32  F   UNL     1       3.344   2.927   9.341  0.00  0.00    +0.000 F 
ATOM     33  F   UNL     1       2.386   2.826  11.298  0.00  0.00    +0.000 F 
ATOM     34  F   UNL     1       3.572   4.569  10.755  0.00  0.00    +0.000 F 
ENDBRANCH  30  31
ENDBRANCH  29  30
ENDBRANCH  26  29
ENDBRANCH  20  23
ENDBRANCH   8  19
TORSDOF 7
ENDMDL
