MODEL 1
REMARK VINA RESULT:      -7.5      0.000      0.000
REMARK  Name = 
REMARK  5 active torsions:
REMARK  status: ('A' for Active; 'I' for Inactive)
REMARK    1  A    between atoms: C_1  and  C_2
REMARK    2  A    between atoms: C_2  and  C_3
REMARK    3  A    between atoms: N_5  and  C_6
REMARK    4  A    between atoms: C_8  and  C_9
REMARK    5  A    between atoms: N_11  and  C_12
REMARK                            x       y       z     vdW  Elec       q    Type
REMARK                         _______ _______ _______ _____ _____    ______ ____
ROOT
ATOM      1  C   UNL     1       6.120   4.049  14.308  0.00  0.00    +0.000 A 
ATOM      2  C   UNL     1       5.150   3.949  15.314  0.00  0.00    +0.000 A 
ATOM      3  C   UNL     1       5.031   4.947  16.286  0.00  0.00    +0.000 A 
ATOM      4  C   UNL     1       5.903   6.045  16.246  0.00  0.00    +0.000 A 
ATOM      5  C   UNL     1       6.880   6.144  15.257  0.00  0.00    +0.000 A 
ATOM      6  C   UNL     1       7.004   5.141  14.299  0.00  0.00    +0.000 A 
ATOM      7 CL   UNL     1       8.204   5.305  13.068  0.00  0.00    +0.000 Cl
ENDROOT
BRANCH   1  10
ATOM      8  C   UNL     1       5.460   3.018  12.185  0.00  0.00    +0.000 C 
ATOM      9  O   UNL     1       4.635   3.878  11.892  0.00  0.00    +0.000 OA
ATOM     10  N   UNL     1       6.241   3.036  13.329  0.00  0.00    +0.000 N 
ATOM     11  H   UNL     1       7.137   2.560  13.283  0.00  0.00    +0.000 HD
BRANCH   8  13
ATOM     12  C   UNL     1       7.191   1.643  11.000  0.00  0.00    +0.000 C 
ATOM     13  C   UNL     1       5.714   1.799  11.322  0.00  0.00    +0.000 C 
ENDBRANCH   8  13
ENDBRANCH   1  10
BRANCH   3  14
ATOM     14  C   UNL     1       4.054   4.871  17.413  0.00  0.00    +0.000 C 
ATOM     15  O   UNL     1       3.579   5.930  17.813  0.00  0.00    +0.000 OA
ATOM     16  N   UNL     1       3.781   3.614  17.926  0.00  0.00    +0.000 N 
ATOM     17  H   UNL     1       4.256   2.814  17.530  0.00  0.00    +0.000 HD
BRANCH  16  18
ATOM     18  C   UNL     1       2.910   3.323  19.002  0.00  0.00    +0.000 A 
ATOM     19  C   UNL     1       1.517   3.365  18.905  0.00  0.00    +0.000 A 
ATOM     20  C   UNL     1       0.715   3.084  20.012  0.00  0.00    +0.000 A 
ATOM     21  C   UNL     1       1.295   2.761  21.235  0.00  0.00    +0.000 A 
ATOM     22  C   UNL     1       2.681   2.698  21.343  0.00  0.00    +0.000 A 
ATOM     23  C   UNL     1       3.485   2.967  20.228  0.00  0.00    +0.000 A 
ENDBRANCH  16  18
ENDBRANCH   3  14
TORSDOF 4
ENDMDL
MODEL 2
REMARK VINA RESULT:      -7.5      1.037      1.188
REMARK  Name = 
REMARK  5 active torsions:
REMARK  status: ('A' for Active; 'I' for Inactive)
REMARK    1  A    between atoms: C_1  and  C_2
REMARK    2  A    between atoms: C_2  and  C_3
REMARK    3  A    between atoms: N_5  and  C_6
REMARK    4  A    between atoms: C_8  and  C_9
REMARK    5  A    between atoms: N_11  and  C_12
REMARK                            x       y       z     vdW  Elec       q    Type
REMARK                         _______ _______ _______ _____ _____    ______ ____
ROOT
ATOM      1  C   UNL     1       6.441   3.897  14.212  0.00  0.00    +0.000 A 
ATOM      2  C   UNL     1       5.731   3.595  15.381  0.00  0.00    +0.000 A 
ATOM      3  C   UNL     1       5.735   4.481  16.463  0.00  0.00    +0.000 A 
ATOM      4  C   UNL     1       6.470   5.672  16.364  0.00  0.00    +0.000 A 
ATOM      5  C   UNL     1       7.191   5.972  15.210  0.00  0.00    +0.000 A 
ATOM      6  C   UNL     1       7.195   5.080  14.141  0.00  0.00    +0.000 A 
ATOM      7 CL   UNL     1       8.073   5.492  12.712  0.00  0.00    +0.000 Cl
ENDROOT
BRANCH   1  10
ATOM      8  C   UNL     1       5.428   2.987  12.175  0.00  0.00    +0.000 C 
ATOM      9  O   UNL     1       4.479   3.765  12.162  0.00  0.00    +0.000 OA
ATOM     10  N   UNL     1       6.439   2.996  13.122  0.00  0.00    +0.000 N 
ATOM     11  H   UNL     1       7.344   2.636  12.835  0.00  0.00    +0.000 HD
BRANCH   8  13
ATOM     12  C   UNL     1       7.051   1.451  11.036  0.00  0.00    +0.000 C 
ATOM     13  C   UNL     1       5.600   1.888  11.146  0.00  0.00    +0.000 C 
ENDBRANCH   8  13
ENDBRANCH   1  10
BRANCH   3  14
ATOM     14  C   UNL     1       5.042   4.192  17.754  0.00  0.00    +0.000 C 
ATOM     15  O   UNL     1       5.748   4.050  18.748  0.00  0.00    +0.000 OA
ATOM     16  N   UNL     1       3.661   4.088  17.717  0.00  0.00    +0.000 N 
ATOM     17  H   UNL     1       3.188   4.199  16.830  0.00  0.00    +0.000 HD
BRANCH  16  18
ATOM     18  C   UNL     1       2.817   3.799  18.815  0.00  0.00    +0.000 A 
ATOM     19  C   UNL     1       2.530   2.504  19.253  0.00  0.00    +0.000 A 
ATOM     20  C   UNL     1       1.673   2.288  20.332  0.00  0.00    +0.000 A 
ATOM     21  C   UNL     1       1.085   3.366  20.988  0.00  0.00    +0.000 A 
ATOM     22  C   UNL     1       1.374   4.662  20.574  0.00  0.00    +0.000 A 
ATOM     23  C   UNL     1       2.245   4.879  19.499  0.00  0.00    +0.000 A 
ENDBRANCH  16  18
ENDBRANCH   3  14
TORSDOF 4
ENDMDL
MODEL 3
REMARK VINA RESULT:      -7.4      1.052      1.212
REMARK  Name = 
REMARK  5 active torsions:
REMARK  status: ('A' for Active; 'I' for Inactive)
REMARK    1  A    between atoms: C_1  and  C_2
REMARK    2  A    between atoms: C_2  and  C_3
REMARK    3  A    between atoms: N_5  and  C_6
REMARK    4  A    between atoms: C_8  and  C_9
REMARK    5  A    between atoms: N_11  and  C_12
REMARK                            x       y       z     vdW  Elec       q    Type
REMARK                         _______ _______ _______ _____ _____    ______ ____
ROOT
ATOM      1  C   UNL     1       6.447   3.918  14.249  0.00  0.00    +0.000 A 
ATOM      2  C   UNL     1       5.757   3.618  15.430  0.00  0.00    +0.000 A 
ATOM      3  C   UNL     1       5.770   4.511  16.506  0.00  0.00    +0.000 A 
ATOM      4  C   UNL     1       6.493   5.708  16.389  0.00  0.00    +0.000 A 
ATOM      5  C   UNL     1       7.194   6.006  15.222  0.00  0.00    +0.000 A 
ATOM      6  C   UNL     1       7.189   5.108  14.159  0.00  0.00    +0.000 A 
ATOM      7 CL   UNL     1       8.043   5.519  12.715  0.00  0.00    +0.000 Cl
ENDROOT
BRANCH   1  10
ATOM      8  C   UNL     1       5.428   3.009  12.214  0.00  0.00    +0.000 C 
ATOM      9  O   UNL     1       4.490   3.799  12.193  0.00  0.00    +0.000 OA
ATOM     10  N   UNL     1       6.437   3.011  13.164  0.00  0.00    +0.000 N 
ATOM     11  H   UNL     1       7.337   2.637  12.882  0.00  0.00    +0.000 HD
BRANCH   8  13
ATOM     12  C   UNL     1       7.043   1.484  11.048  0.00  0.00    +0.000 C 
ATOM     13  C   UNL     1       5.589   1.901  11.192  0.00  0.00    +0.000 C 
ENDBRANCH   8  13
ENDBRANCH   1  10
BRANCH   3  14
ATOM     14  C   UNL     1       5.099   4.224  17.809  0.00  0.00    +0.000 C 
ATOM     15  O   UNL     1       5.824   4.013  18.777  0.00  0.00    +0.000 OA
ATOM     16  N   UNL     1       3.714   4.200  17.812  0.00  0.00    +0.000 N 
ATOM     17  H   UNL     1       3.223   4.364  16.943  0.00  0.00    +0.000 HD
BRANCH  16  18
ATOM     18  C   UNL     1       2.886   3.927  18.927  0.00  0.00    +0.000 A 
ATOM     19  C   UNL     1       2.713   4.807  19.998  0.00  0.00    +0.000 A 
ATOM     20  C   UNL     1       1.895   4.466  21.076  0.00  0.00    +0.000 A 
ATOM     21  C   UNL     1       1.241   3.238  21.101  0.00  0.00    +0.000 A 
ATOM     22  C   UNL     1       1.391   2.358  20.034  0.00  0.00    +0.000 A 
ATOM     23  C   UNL     1       2.201   2.706  18.945  0.00  0.00    +0.000 A 
ENDBRANCH  16  18
ENDBRANCH   3  14
TORSDOF 4
ENDMDL
MODEL 4
REMARK VINA RESULT:      -7.1      5.338      6.917
REMARK  Name = 
REMARK  5 active torsions:
REMARK  status: ('A' for Active; 'I' for Inactive)
REMARK    1  A    between atoms: C_1  and  C_2
REMARK    2  A    between atoms: C_2  and  C_3
REMARK    3  A    between atoms: N_5  and  C_6
REMARK    4  A    between atoms: C_8  and  C_9
REMARK    5  A    between atoms: N_11  and  C_12
REMARK                            x       y       z     vdW  Elec       q    Type
REMARK                         _______ _______ _______ _____ _____    ______ ____
ROOT
ATOM      1  C   UNL     1       4.017   5.249  18.985  0.00  0.00    +0.000 A 
ATOM      2  C   UNL     1       3.418   6.506  19.139  0.00  0.00    +0.000 A 
ATOM      3  C   UNL     1       2.318   6.668  19.988  0.00  0.00    +0.000 A 
ATOM      4  C   UNL     1       1.816   5.552  20.673  0.00  0.00    +0.000 A 
ATOM      5  C   UNL     1       2.398   4.295  20.513  0.00  0.00    +0.000 A 
ATOM      6  C   UNL     1       3.484   4.136  19.657  0.00  0.00    +0.000 A 
ATOM      7 CL   UNL     1       4.202   2.573  19.501  0.00  0.00    +0.000 Cl
ENDROOT
BRANCH   1  10
ATOM      8  C   UNL     1       6.432   5.148  18.580  0.00  0.00    +0.000 C 
ATOM      9  O   UNL     1       6.750   5.304  19.755  0.00  0.00    +0.000 OA
ATOM     10  N   UNL     1       5.125   5.087  18.122  0.00  0.00    +0.000 N 
ATOM     11  H   UNL     1       4.960   4.559  17.271  0.00  0.00    +0.000 HD
BRANCH   8  13
ATOM     12  C   UNL     1       6.858   4.332  16.248  0.00  0.00    +0.000 C 
ATOM     13  C   UNL     1       7.450   5.022  17.465  0.00  0.00    +0.000 C 
ENDBRANCH   8  13
ENDBRANCH   1  10
BRANCH   3  14
ATOM     14  C   UNL     1       1.604   7.970  20.153  0.00  0.00    +0.000 C 
ATOM     15  O   UNL     1       1.472   8.666  19.151  0.00  0.00    +0.000 OA
ATOM     16  N   UNL     1       1.169   8.290  21.428  0.00  0.00    +0.000 N 
ATOM     17  H   UNL     1       1.360   7.646  22.184  0.00  0.00    +0.000 HD
BRANCH  16  18
ATOM     18  C   UNL     1       0.496   9.476  21.807  0.00  0.00    +0.000 A 
ATOM     19  C   UNL     1      -0.437   9.541  22.844  0.00  0.00    +0.000 A 
ATOM     20  C   UNL     1      -1.078  10.741  23.153  0.00  0.00    +0.000 A 
ATOM     21  C   UNL     1      -0.799  11.895  22.426  0.00  0.00    +0.000 A 
ATOM     22  C   UNL     1       0.140  11.850  21.401  0.00  0.00    +0.000 A 
ATOM     23  C   UNL     1       0.794  10.648  21.100  0.00  0.00    +0.000 A 
ENDBRANCH  16  18
ENDBRANCH   3  14
TORSDOF 4
ENDMDL
MODEL 5
REMARK VINA RESULT:      -7.0      5.207      7.101
REMARK  Name = 
REMARK  5 active torsions:
REMARK  status: ('A' for Active; 'I' for Inactive)
REMARK    1  A    between atoms: C_1  and  C_2
REMARK    2  A    between atoms: C_2  and  C_3
REMARK    3  A    between atoms: N_5  and  C_6
REMARK    4  A    between atoms: C_8  and  C_9
REMARK    5  A    between atoms: N_11  and  C_12
REMARK                            x       y       z     vdW  Elec       q    Type
REMARK                         _______ _______ _______ _____ _____    ______ ____
ROOT
ATOM      1  C   UNL     1       3.952   5.196  18.994  0.00  0.00    +0.000 A 
ATOM      2  C   UNL     1       3.419   6.488  19.089  0.00  0.00    +0.000 A 
ATOM      3  C   UNL     1       2.321   6.743  19.916  0.00  0.00    +0.000 A 
ATOM      4  C   UNL     1       1.753   5.685  20.642  0.00  0.00    +0.000 A 
ATOM      5  C   UNL     1       2.270   4.394  20.541  0.00  0.00    +0.000 A 
ATOM      6  C   UNL     1       3.355   4.142  19.706  0.00  0.00    +0.000 A 
ATOM      7 CL   UNL     1       3.991   2.538  19.623  0.00  0.00    +0.000 Cl
ENDROOT
BRANCH   1  10
ATOM      8  C   UNL     1       6.365   5.014  18.610  0.00  0.00    +0.000 C 
ATOM      9  O   UNL     1       6.684   5.261  19.769  0.00  0.00    +0.000 OA
ATOM     10  N   UNL     1       5.059   4.940  18.153  0.00  0.00    +0.000 N 
ATOM     11  H   UNL     1       4.885   4.346  17.349  0.00  0.00    +0.000 HD
BRANCH   8  13
ATOM     12  C   UNL     1       6.712   4.387  16.207  0.00  0.00    +0.000 C 
ATOM     13  C   UNL     1       7.383   4.774  17.513  0.00  0.00    +0.000 C 
ENDBRANCH   8  13
ENDBRANCH   1  10
BRANCH   3  14
ATOM     14  C   UNL     1       1.675   8.086  20.019  0.00  0.00    +0.000 C 
ATOM     15  O   UNL     1       1.301   8.443  21.133  0.00  0.00    +0.000 OA
ATOM     16  N   UNL     1       1.534   8.808  18.846  0.00  0.00    +0.000 N 
ATOM     17  H   UNL     1       1.858   8.397  17.980  0.00  0.00    +0.000 HD
BRANCH  16  18
ATOM     18  C   UNL     1       0.933  10.083  18.717  0.00  0.00    +0.000 A 
ATOM     19  C   UNL     1       1.644  11.284  18.771  0.00  0.00    +0.000 A 
ATOM     20  C   UNL     1       0.986  12.509  18.655  0.00  0.00    +0.000 A 
ATOM     21  C   UNL     1      -0.395  12.551  18.489  0.00  0.00    +0.000 A 
ATOM     22  C   UNL     1      -1.115  11.363  18.417  0.00  0.00    +0.000 A 
ATOM     23  C   UNL     1      -0.452  10.132  18.519  0.00  0.00    +0.000 A 
ENDBRANCH  16  18
ENDBRANCH   3  14
TORSDOF 4
ENDMDL
MODEL 6
REMARK VINA RESULT:      -7.0      5.442      8.542
REMARK  Name = 
REMARK  5 active torsions:
REMARK  status: ('A' for Active; 'I' for Inactive)
REMARK    1  A    between atoms: C_1  and  C_2
REMARK    2  A    between atoms: C_2  and  C_3
REMARK    3  A    between atoms: N_5  and  C_6
REMARK    4  A    between atoms: C_8  and  C_9
REMARK    5  A    between atoms: N_11  and  C_12
REMARK                            x       y       z     vdW  Elec       q    Type
REMARK                         _______ _______ _______ _____ _____    ______ ____
ROOT
ATOM      1  C   UNL     1       0.885   9.430  19.932  0.00  0.00    +0.000 A 
ATOM      2  C   UNL     1       1.478   8.176  19.740  0.00  0.00    +0.000 A 
ATOM      3  C   UNL     1       2.287   7.936  18.624  0.00  0.00    +0.000 A 
ATOM      4  C   UNL     1       2.488   8.968  17.695  0.00  0.00    +0.000 A 
ATOM      5  C   UNL     1       1.889  10.214  17.872  0.00  0.00    +0.000 A 
ATOM      6  C   UNL     1       1.074  10.444  18.977  0.00  0.00    +0.000 A 
ATOM      7 CL   UNL     1       0.370  12.007  19.186  0.00  0.00    +0.000 Cl
ENDROOT
BRANCH   1  10
ATOM      8  C   UNL     1       0.561   9.652  22.351  0.00  0.00    +0.000 C 
ATOM      9  O   UNL     1       1.741   9.478  22.640  0.00  0.00    +0.000 OA
ATOM     10  N   UNL     1       0.063   9.667  21.058  0.00  0.00    +0.000 N 
ATOM     11  H   UNL     1      -0.778  10.212  20.894  0.00  0.00    +0.000 HD
BRANCH   8  13
ATOM     12  C   UNL     1      -1.360  11.084  23.092  0.00  0.00    +0.000 C 
ATOM     13  C   UNL     1      -0.517   9.857  23.396  0.00  0.00    +0.000 C 
ENDBRANCH   8  13
ENDBRANCH   1  10
BRANCH   3  14
ATOM     14  C   UNL     1       2.902   6.606  18.336  0.00  0.00    +0.000 C 
ATOM     15  O   UNL     1       3.876   6.591  17.590  0.00  0.00    +0.000 OA
ATOM     16  N   UNL     1       2.309   5.499  18.920  0.00  0.00    +0.000 N 
ATOM     17  H   UNL     1       1.490   5.634  19.498  0.00  0.00    +0.000 HD
BRANCH  16  18
ATOM     18  C   UNL     1       2.716   4.153  18.761  0.00  0.00    +0.000 A 
ATOM     19  C   UNL     1       2.232   3.310  17.758  0.00  0.00    +0.000 A 
ATOM     20  C   UNL     1       2.662   1.986  17.669  0.00  0.00    +0.000 A 
ATOM     21  C   UNL     1       3.581   1.483  18.586  0.00  0.00    +0.000 A 
ATOM     22  C   UNL     1       4.085   2.315  19.581  0.00  0.00    +0.000 A 
ATOM     23  C   UNL     1       3.663   3.649  19.661  0.00  0.00    +0.000 A 
ENDBRANCH  16  18
ENDBRANCH   3  14
TORSDOF 4
ENDMDL
MODEL 7
REMARK VINA RESULT:      -6.9      5.331      6.555
REMARK  Name = 
REMARK  5 active torsions:
REMARK  status: ('A' for Active; 'I' for Inactive)
REMARK    1  A    between atoms: C_1  and  C_2
REMARK    2  A    between atoms: C_2  and  C_3
REMARK    3  A    between atoms: N_5  and  C_6
REMARK    4  A    between atoms: C_8  and  C_9
REMARK    5  A    between atoms: N_11  and  C_12
REMARK                            x       y       z     vdW  Elec       q    Type
REMARK                         _______ _______ _______ _____ _____    ______ ____
ROOT
ATOM      1  C   UNL     1       4.126   5.678  17.717  0.00  0.00    +0.000 A 
ATOM      2  C   UNL     1       3.502   6.919  17.542  0.00  0.00    +0.000 A 
ATOM      3  C   UNL     1       2.663   7.437  18.534  0.00  0.00    +0.000 A 
ATOM      4  C   UNL     1       2.447   6.690  19.702  0.00  0.00    +0.000 A 
ATOM      5  C   UNL     1       3.054   5.447  19.876  0.00  0.00    +0.000 A 
ATOM      6  C   UNL     1       3.878   4.930  18.880  0.00  0.00    +0.000 A 
ATOM      7 CL   UNL     1       4.639   3.401  19.136  0.00  0.00    +0.000 Cl
ENDROOT
BRANCH   1  10
ATOM      8  C   UNL     1       6.325   5.439  16.661  0.00  0.00    +0.000 C 
ATOM      9  O   UNL     1       6.923   6.121  17.488  0.00  0.00    +0.000 OA
ATOM     10  N   UNL     1       4.970   5.154  16.709  0.00  0.00    +0.000 N 
ATOM     11  H   UNL     1       4.664   4.292  16.270  0.00  0.00    +0.000 HD
BRANCH   8  13
ATOM     12  C   UNL     1       6.025   4.061  14.587  0.00  0.00    +0.000 C 
ATOM     13  C   UNL     1       7.008   4.830  15.453  0.00  0.00    +0.000 C 
ENDBRANCH   8  13
ENDBRANCH   1  10
BRANCH   3  14
ATOM     14  C   UNL     1       1.927   8.729  18.384  0.00  0.00    +0.000 C 
ATOM     15  O   UNL     1       2.090   9.346  17.336  0.00  0.00    +0.000 OA
ATOM     16  N   UNL     1       1.139   9.130  19.449  0.00  0.00    +0.000 N 
ATOM     17  H   UNL     1       1.104   8.548  20.276  0.00  0.00    +0.000 HD
BRANCH  16  18
ATOM     18  C   UNL     1       0.382  10.323  19.524  0.00  0.00    +0.000 A 
ATOM     19  C   UNL     1       0.820  11.481  20.171  0.00  0.00    +0.000 A 
ATOM     20  C   UNL     1       0.014  12.618  20.223  0.00  0.00    +0.000 A 
ATOM     21  C   UNL     1      -1.246  12.614  19.632  0.00  0.00    +0.000 A 
ATOM     22  C   UNL     1      -1.690  11.474  18.969  0.00  0.00    +0.000 A 
ATOM     23  C   UNL     1      -0.874  10.337  18.905  0.00  0.00    +0.000 A 
ENDBRANCH  16  18
ENDBRANCH   3  14
TORSDOF 4
ENDMDL
MODEL 8
REMARK VINA RESULT:      -6.9      5.341      7.329
REMARK  Name = 
REMARK  5 active torsions:
REMARK  status: ('A' for Active; 'I' for Inactive)
REMARK    1  A    between atoms: C_1  and  C_2
REMARK    2  A    between atoms: C_2  and  C_3
REMARK    3  A    between atoms: N_5  and  C_6
REMARK    4  A    between atoms: C_8  and  C_9
REMARK    5  A    between atoms: N_11  and  C_12
REMARK                            x       y       z     vdW  Elec       q    Type
REMARK                         _______ _______ _______ _____ _____    ______ ____
ROOT
ATOM      1  C   UNL     1       2.986   5.440  18.738  0.00  0.00    +0.000 A 
ATOM      2  C   UNL     1       2.259   6.629  18.879  0.00  0.00    +0.000 A 
ATOM      3  C   UNL     1       2.622   7.772  18.159  0.00  0.00    +0.000 A 
ATOM      4  C   UNL     1       3.731   7.713  17.303  0.00  0.00    +0.000 A 
ATOM      5  C   UNL     1       4.468   6.538  17.169  0.00  0.00    +0.000 A 
ATOM      6  C   UNL     1       4.111   5.406  17.897  0.00  0.00    +0.000 A 
ATOM      7 CL   UNL     1       5.025   3.956  17.689  0.00  0.00    +0.000 Cl
ENDROOT
BRANCH   1  10
ATOM      8  C   UNL     1       1.714   3.359  18.983  0.00  0.00    +0.000 C 
ATOM      9  O   UNL     1       1.184   3.420  17.878  0.00  0.00    +0.000 OA
ATOM     10  N   UNL     1       2.620   4.287  19.471  0.00  0.00    +0.000 N 
ATOM     11  H   UNL     1       3.292   3.959  20.158  0.00  0.00    +0.000 HD
BRANCH   8  13
ATOM     12  C   UNL     1       1.503   2.748  21.406  0.00  0.00    +0.000 C 
ATOM     13  C   UNL     1       1.421   2.250  19.973  0.00  0.00    +0.000 C 
ENDBRANCH   8  13
ENDBRANCH   1  10
BRANCH   3  14
ATOM     14  C   UNL     1       1.920   9.082  18.306  0.00  0.00    +0.000 C 
ATOM     15  O   UNL     1       2.153   9.938  17.458  0.00  0.00    +0.000 OA
ATOM     16  N   UNL     1       1.080   9.227  19.397  0.00  0.00    +0.000 N 
ATOM     17  H   UNL     1       0.988   8.456  20.046  0.00  0.00    +0.000 HD
BRANCH  16  18
ATOM     18  C   UNL     1       0.342  10.386  19.734  0.00  0.00    +0.000 A 
ATOM     19  C   UNL     1       0.791  11.359  20.630  0.00  0.00    +0.000 A 
ATOM     20  C   UNL     1       0.004  12.470  20.932  0.00  0.00    +0.000 A 
ATOM     21  C   UNL     1      -1.249  12.623  20.346  0.00  0.00    +0.000 A 
ATOM     22  C   UNL     1      -1.704  11.671  19.438  0.00  0.00    +0.000 A 
ATOM     23  C   UNL     1      -0.907  10.562  19.125  0.00  0.00    +0.000 A 
ENDBRANCH  16  18
ENDBRANCH   3  14
TORSDOF 4
ENDMDL
MODEL 9
REMARK VINA RESULT:      -6.9      5.341      6.536
REMARK  Name = 
REMARK  5 active torsions:
REMARK  status: ('A' for Active; 'I' for Inactive)
REMARK    1  A    between atoms: C_1  and  C_2
REMARK    2  A    between atoms: C_2  and  C_3
REMARK    3  A    between atoms: N_5  and  C_6
REMARK    4  A    between atoms: C_8  and  C_9
REMARK    5  A    between atoms: N_11  and  C_12
REMARK                            x       y       z     vdW  Elec       q    Type
REMARK                         _______ _______ _______ _____ _____    ______ ____
ROOT
ATOM      1  C   UNL     1       4.098   5.636  17.786  0.00  0.00    +0.000 A 
ATOM      2  C   UNL     1       3.483   6.878  17.580  0.00  0.00    +0.000 A 
ATOM      3  C   UNL     1       2.640   7.422  18.553  0.00  0.00    +0.000 A 
ATOM      4  C   UNL     1       2.409   6.702  19.735  0.00  0.00    +0.000 A 
ATOM      5  C   UNL     1       3.005   5.459  19.940  0.00  0.00    +0.000 A 
ATOM      6  C   UNL     1       3.834   4.915  18.963  0.00  0.00    +0.000 A 
ATOM      7 CL   UNL     1       4.582   3.387  19.258  0.00  0.00    +0.000 Cl
ENDROOT
BRANCH   1  10
ATOM      8  C   UNL     1       6.297   5.386  16.735  0.00  0.00    +0.000 C 
ATOM      9  O   UNL     1       6.888   6.107  17.533  0.00  0.00    +0.000 OA
ATOM     10  N   UNL     1       4.946   5.085  16.798  0.00  0.00    +0.000 N 
ATOM     11  H   UNL     1       4.651   4.203  16.393  0.00  0.00    +0.000 HD
BRANCH   8  13
ATOM     12  C   UNL     1       5.983   4.101  14.604  0.00  0.00    +0.000 C 
ATOM     13  C   UNL     1       6.986   4.740  15.550  0.00  0.00    +0.000 C 
ENDBRANCH   8  13
ENDBRANCH   1  10
BRANCH   3  14
ATOM     14  C   UNL     1       1.914   8.715  18.369  0.00  0.00    +0.000 C 
ATOM     15  O   UNL     1       2.116   9.325  17.323  0.00  0.00    +0.000 OA
ATOM     16  N   UNL     1       1.091   9.127  19.404  0.00  0.00    +0.000 N 
ATOM     17  H   UNL     1       1.026   8.551  20.233  0.00  0.00    +0.000 HD
BRANCH  16  18
ATOM     18  C   UNL     1       0.336  10.323  19.444  0.00  0.00    +0.000 A 
ATOM     19  C   UNL     1      -0.980  10.425  18.989  0.00  0.00    +0.000 A 
ATOM     20  C   UNL     1      -1.662  11.641  19.041  0.00  0.00    +0.000 A 
ATOM     21  C   UNL     1      -1.034  12.777  19.544  0.00  0.00    +0.000 A 
ATOM     22  C   UNL     1       0.272  12.688  20.017  0.00  0.00    +0.000 A 
ATOM     23  C   UNL     1       0.951  11.463  19.977  0.00  0.00    +0.000 A 
ENDBRANCH  16  18
ENDBRANCH   3  14
TORSDOF 4
ENDMDL
