MODEL 1
REMARK VINA RESULT:      -5.6      0.000      0.000
REMARK  Name = 
REMARK  8 active torsions:
REMARK  status: ('A' for Active; 'I' for Inactive)
REMARK    1  A    between atoms: C_1  and  N_2
REMARK    2  A    between atoms: N_2  and  C_3
REMARK    3  A    between atoms: C_3  and  C_4
REMARK    4  A    between atoms: C_5  and  C_6
REMARK    5  A    between atoms: C_6  and  O_7
REMARK    6  A    between atoms: O_7  and  C_8
REMARK    7  A    between atoms: C_13  and  O_14
REMARK    8  A    between atoms: O_14  and  C_15
REMARK                            x       y       z     vdW  Elec       q    Type
REMARK                         _______ _______ _______ _____ _____    ______ ____
ROOT
ATOM      1  O   UNL     1       4.042   6.050  18.620  0.00  0.00    +0.000 OA
ENDROOT
BRANCH   1   2
ATOM      2  C   UNL     1       5.060   5.566  17.828  0.00  0.00    +0.000 A 
ATOM      3  C   UNL     1       4.875   5.437  16.432  0.00  0.00    +0.000 A 
ATOM      4  C   UNL     1       5.849   4.888  15.607  0.00  0.00    +0.000 A 
ATOM      5  C   UNL     1       7.060   4.511  16.147  0.00  0.00    +0.000 A 
ATOM      6  C   UNL     1       7.293   4.694  17.508  0.00  0.00    +0.000 A 
ATOM      7  C   UNL     1       6.308   5.214  18.369  0.00  0.00    +0.000 A 
BRANCH   7   8
ATOM      8  O   UNL     1       6.775   5.265  19.652  0.00  0.00    +0.000 OA
ATOM      9  C   UNL     1       8.134   5.560  19.912  0.00  0.00    +0.000 C 
ENDBRANCH   7   8
ENDBRANCH   1   2
BRANCH   1  10
ATOM     10  C   UNL     1       2.750   5.919  18.007  0.00  0.00    +0.000 C 
BRANCH  10  12
ATOM     11  C   UNL     1       1.915   3.621  18.515  0.00  0.00    +0.000 C 
ATOM     12  C   UNL     1       1.894   4.945  18.748  0.00  0.00    +0.000 C 
BRANCH  11  13
ATOM     13  C   UNL     1       0.986   2.639  19.150  0.00  0.00    +0.000 C 
BRANCH  13  15
ATOM     14  C   UNL     1       1.480   2.627  21.496  0.00  0.00    +0.000 C 
ATOM     15  N   UNL     1       0.592   3.134  20.463  0.00  0.00    +0.000 NA
ATOM     16  H   UNL     1       0.623   4.151  20.461  0.00  0.00    +0.000 HD
ENDBRANCH  13  15
ENDBRANCH  11  13
ENDBRANCH  10  12
ENDBRANCH   1  10
TORSDOF 6
ENDMDL
MODEL 2
REMARK VINA RESULT:      -5.5      1.279      1.404
REMARK  Name = 
REMARK  8 active torsions:
REMARK  status: ('A' for Active; 'I' for Inactive)
REMARK    1  A    between atoms: C_1  and  N_2
REMARK    2  A    between atoms: N_2  and  C_3
REMARK    3  A    between atoms: C_3  and  C_4
REMARK    4  A    between atoms: C_5  and  C_6
REMARK    5  A    between atoms: C_6  and  O_7
REMARK    6  A    between atoms: O_7  and  C_8
REMARK    7  A    between atoms: C_13  and  O_14
REMARK    8  A    between atoms: O_14  and  C_15
REMARK                            x       y       z     vdW  Elec       q    Type
REMARK                         _______ _______ _______ _____ _____    ______ ____
ROOT
ATOM      1  O   UNL     1       4.336   6.596  18.159  0.00  0.00    +0.000 OA
ENDROOT
BRANCH   1   2
ATOM      2  C   UNL     1       5.224   5.949  17.328  0.00  0.00    +0.000 A 
ATOM      3  C   UNL     1       5.055   6.006  15.925  0.00  0.00    +0.000 A 
ATOM      4  C   UNL     1       5.885   5.310  15.055  0.00  0.00    +0.000 A 
ATOM      5  C   UNL     1       6.947   4.590  15.560  0.00  0.00    +0.000 A 
ATOM      6  C   UNL     1       7.177   4.577  16.935  0.00  0.00    +0.000 A 
ATOM      7  C   UNL     1       6.327   5.243  17.838  0.00  0.00    +0.000 A 
BRANCH   7   8
ATOM      8  O   UNL     1       6.752   5.052  19.122  0.00  0.00    +0.000 OA
ATOM      9  C   UNL     1       7.975   5.608  19.565  0.00  0.00    +0.000 C 
ENDBRANCH   7   8
ENDBRANCH   1   2
BRANCH   1  10
ATOM     10  C   UNL     1       2.966   6.325  17.829  0.00  0.00    +0.000 C 
BRANCH  10  12
ATOM     11  C   UNL     1       2.037   4.007  17.872  0.00  0.00    +0.000 C 
ATOM     12  C   UNL     1       2.472   5.099  18.524  0.00  0.00    +0.000 C 
BRANCH  11  13
ATOM     13  C   UNL     1       1.425   2.817  18.535  0.00  0.00    +0.000 C 
BRANCH  13  15
ATOM     14  C   UNL     1       3.472   1.569  18.537  0.00  0.00    +0.000 C 
ATOM     15  N   UNL     1       2.097   1.612  18.068  0.00  0.00    +0.000 NA
ATOM     16  H   UNL     1       1.598   0.795  18.411  0.00  0.00    +0.000 HD
ENDBRANCH  13  15
ENDBRANCH  11  13
ENDBRANCH  10  12
ENDBRANCH   1  10
TORSDOF 6
ENDMDL
MODEL 3
REMARK VINA RESULT:      -5.5      1.420      2.558
REMARK  Name = 
REMARK  8 active torsions:
REMARK  status: ('A' for Active; 'I' for Inactive)
REMARK    1  A    between atoms: C_1  and  N_2
REMARK    2  A    between atoms: N_2  and  C_3
REMARK    3  A    between atoms: C_3  and  C_4
REMARK    4  A    between atoms: C_5  and  C_6
REMARK    5  A    between atoms: C_6  and  O_7
REMARK    6  A    between atoms: O_7  and  C_8
REMARK    7  A    between atoms: C_13  and  O_14
REMARK    8  A    between atoms: O_14  and  C_15
REMARK                            x       y       z     vdW  Elec       q    Type
REMARK                         _______ _______ _______ _____ _____    ______ ____
ROOT
ATOM      1  O   UNL     1       4.063   4.714  17.403  0.00  0.00    +0.000 OA
ENDROOT
BRANCH   1   2
ATOM      2  C   UNL     1       5.300   5.214  17.751  0.00  0.00    +0.000 A 
ATOM      3  C   UNL     1       5.775   5.075  19.076  0.00  0.00    +0.000 A 
ATOM      4  C   UNL     1       6.982   5.626  19.487  0.00  0.00    +0.000 A 
ATOM      5  C   UNL     1       7.779   6.275  18.568  0.00  0.00    +0.000 A 
ATOM      6  C   UNL     1       7.365   6.363  17.240  0.00  0.00    +0.000 A 
ATOM      7  C   UNL     1       6.129   5.846  16.810  0.00  0.00    +0.000 A 
BRANCH   7   8
ATOM      8  O   UNL     1       5.949   6.085  15.477  0.00  0.00    +0.000 OA
ATOM      9  C   UNL     1       6.088   5.041  14.533  0.00  0.00    +0.000 C 
ENDBRANCH   7   8
ENDBRANCH   1   2
BRANCH   1  10
ATOM     10  C   UNL     1       2.984   5.572  17.803  0.00  0.00    +0.000 C 
BRANCH  10  12
ATOM     11  C   UNL     1       1.999   3.751  19.200  0.00  0.00    +0.000 C 
ATOM     12  C   UNL     1       1.841   4.784  18.356  0.00  0.00    +0.000 C 
BRANCH  11  13
ATOM     13  C   UNL     1       0.889   2.869  19.671  0.00  0.00    +0.000 C 
BRANCH  13  15
ATOM     14  C   UNL     1       2.227   2.967  21.658  0.00  0.00    +0.000 C 
ATOM     15  N   UNL     1       0.879   2.853  21.128  0.00  0.00    +0.000 NA
ATOM     16  H   UNL     1       0.316   3.628  21.469  0.00  0.00    +0.000 HD
ENDBRANCH  13  15
ENDBRANCH  11  13
ENDBRANCH  10  12
ENDBRANCH   1  10
TORSDOF 6
ENDMDL
MODEL 4
REMARK VINA RESULT:      -5.5      3.049      6.104
REMARK  Name = 
REMARK  8 active torsions:
REMARK  status: ('A' for Active; 'I' for Inactive)
REMARK    1  A    between atoms: C_1  and  N_2
REMARK    2  A    between atoms: N_2  and  C_3
REMARK    3  A    between atoms: C_3  and  C_4
REMARK    4  A    between atoms: C_5  and  C_6
REMARK    5  A    between atoms: C_6  and  O_7
REMARK    6  A    between atoms: O_7  and  C_8
REMARK    7  A    between atoms: C_13  and  O_14
REMARK    8  A    between atoms: O_14  and  C_15
REMARK                            x       y       z     vdW  Elec       q    Type
REMARK                         _______ _______ _______ _____ _____    ______ ____
ROOT
ATOM      1  O   UNL     1       3.304   4.476  17.233  0.00  0.00    +0.000 OA
ENDROOT
BRANCH   1   2
ATOM      2  C   UNL     1       2.546   4.241  18.359  0.00  0.00    +0.000 A 
ATOM      3  C   UNL     1       1.894   2.998  18.531  0.00  0.00    +0.000 A 
ATOM      4  C   UNL     1       1.063   2.745  19.615  0.00  0.00    +0.000 A 
ATOM      5  C   UNL     1       0.911   3.707  20.591  0.00  0.00    +0.000 A 
ATOM      6  C   UNL     1       1.599   4.914  20.481  0.00  0.00    +0.000 A 
ATOM      7  C   UNL     1       2.417   5.206  19.373  0.00  0.00    +0.000 A 
BRANCH   7   8
ATOM      8  O   UNL     1       2.951   6.457  19.490  0.00  0.00    +0.000 OA
ATOM      9  C   UNL     1       2.506   7.511  18.657  0.00  0.00    +0.000 C 
ENDBRANCH   7   8
ENDBRANCH   1   2
BRANCH   1  10
ATOM     10  C   UNL     1       4.697   4.194  17.431  0.00  0.00    +0.000 C 
BRANCH  10  12
ATOM     11  C   UNL     1       6.266   4.838  15.598  0.00  0.00    +0.000 C 
ATOM     12  C   UNL     1       5.395   3.964  16.130  0.00  0.00    +0.000 C 
BRANCH  11  13
ATOM     13  C   UNL     1       6.883   4.695  14.245  0.00  0.00    +0.000 C 
BRANCH  13  15
ATOM     14  C   UNL     1       6.660   3.528  12.163  0.00  0.00    +0.000 C 
ATOM     15  N   UNL     1       6.289   3.550  13.568  0.00  0.00    +0.000 NA
ATOM     16  H   UNL     1       6.608   2.694  14.014  0.00  0.00    +0.000 HD
ENDBRANCH  13  15
ENDBRANCH  11  13
ENDBRANCH  10  12
ENDBRANCH   1  10
TORSDOF 6
ENDMDL
MODEL 5
REMARK VINA RESULT:      -5.4      2.942      5.727
REMARK  Name = 
REMARK  8 active torsions:
REMARK  status: ('A' for Active; 'I' for Inactive)
REMARK    1  A    between atoms: C_1  and  N_2
REMARK    2  A    between atoms: N_2  and  C_3
REMARK    3  A    between atoms: C_3  and  C_4
REMARK    4  A    between atoms: C_5  and  C_6
REMARK    5  A    between atoms: C_6  and  O_7
REMARK    6  A    between atoms: O_7  and  C_8
REMARK    7  A    between atoms: C_13  and  O_14
REMARK    8  A    between atoms: O_14  and  C_15
REMARK                            x       y       z     vdW  Elec       q    Type
REMARK                         _______ _______ _______ _____ _____    ______ ____
ROOT
ATOM      1  O   UNL     1       2.538   3.949  17.335  0.00  0.00    +0.000 OA
ENDROOT
BRANCH   1   2
ATOM      2  C   UNL     1       2.289   4.804  18.387  0.00  0.00    +0.000 A 
ATOM      3  C   UNL     1       2.538   6.190  18.250  0.00  0.00    +0.000 A 
ATOM      4  C   UNL     1       2.370   7.076  19.307  0.00  0.00    +0.000 A 
ATOM      5  C   UNL     1       1.886   6.611  20.511  0.00  0.00    +0.000 A 
ATOM      6  C   UNL     1       1.566   5.262  20.649  0.00  0.00    +0.000 A 
ATOM      7  C   UNL     1       1.764   4.339  19.604  0.00  0.00    +0.000 A 
BRANCH   7   8
ATOM      8  O   UNL     1       1.401   3.084  20.001  0.00  0.00    +0.000 OA
ATOM      9  C   UNL     1       1.461   2.715  21.365  0.00  0.00    +0.000 C 
ENDBRANCH   7   8
ENDBRANCH   1   2
BRANCH   1  10
ATOM     10  C   UNL     1       3.837   3.344  17.405  0.00  0.00    +0.000 C 
BRANCH  10  12
ATOM     11  C   UNL     1       6.030   4.295  16.685  0.00  0.00    +0.000 C 
ATOM     12  C   UNL     1       4.767   3.936  16.398  0.00  0.00    +0.000 C 
BRANCH  11  13
ATOM     13  C   UNL     1       6.942   5.002  15.736  0.00  0.00    +0.000 C 
BRANCH  13  15
ATOM     14  C   UNL     1       7.397   6.179  17.774  0.00  0.00    +0.000 C 
ATOM     15  N   UNL     1       7.354   6.269  16.324  0.00  0.00    +0.000 NA
ATOM     16  H   UNL     1       8.277   6.518  15.975  0.00  0.00    +0.000 HD
ENDBRANCH  13  15
ENDBRANCH  11  13
ENDBRANCH  10  12
ENDBRANCH   1  10
TORSDOF 6
ENDMDL
MODEL 6
REMARK VINA RESULT:      -5.4      3.017      6.069
REMARK  Name = 
REMARK  8 active torsions:
REMARK  status: ('A' for Active; 'I' for Inactive)
REMARK    1  A    between atoms: C_1  and  N_2
REMARK    2  A    between atoms: N_2  and  C_3
REMARK    3  A    between atoms: C_3  and  C_4
REMARK    4  A    between atoms: C_5  and  C_6
REMARK    5  A    between atoms: C_6  and  O_7
REMARK    6  A    between atoms: O_7  and  C_8
REMARK    7  A    between atoms: C_13  and  O_14
REMARK    8  A    between atoms: O_14  and  C_15
REMARK                            x       y       z     vdW  Elec       q    Type
REMARK                         _______ _______ _______ _____ _____    ______ ____
ROOT
ATOM      1  O   UNL     1       3.007   4.921  17.422  0.00  0.00    +0.000 OA
ENDROOT
BRANCH   1   2
ATOM      2  C   UNL     1       2.501   4.424  18.604  0.00  0.00    +0.000 A 
ATOM      3  C   UNL     1       2.075   5.309  19.621  0.00  0.00    +0.000 A 
ATOM      4  C   UNL     1       1.625   4.852  20.854  0.00  0.00    +0.000 A 
ATOM      5  C   UNL     1       1.529   3.496  21.080  0.00  0.00    +0.000 A 
ATOM      6  C   UNL     1       1.876   2.604  20.068  0.00  0.00    +0.000 A 
ATOM      7  C   UNL     1       2.369   3.043  18.825  0.00  0.00    +0.000 A 
BRANCH   7   8
ATOM      8  O   UNL     1       2.661   1.976  18.023  0.00  0.00    +0.000 OA
ATOM      9  C   UNL     1       3.816   1.194  18.259  0.00  0.00    +0.000 C 
ENDBRANCH   7   8
ENDBRANCH   1   2
BRANCH   1  10
ATOM     10  C   UNL     1       4.432   5.093  17.456  0.00  0.00    +0.000 C 
BRANCH  10  12
ATOM     11  C   UNL     1       6.180   5.172  15.675  0.00  0.00    +0.000 C 
ATOM     12  C   UNL     1       5.066   4.623  16.188  0.00  0.00    +0.000 C 
BRANCH  11  13
ATOM     13  C   UNL     1       6.767   4.808  14.350  0.00  0.00    +0.000 C 
BRANCH  13  15
ATOM     14  C   UNL     1       6.208   3.420  12.477  0.00  0.00    +0.000 C 
ATOM     15  N   UNL     1       6.227   3.523  13.927  0.00  0.00    +0.000 NA
ATOM     16  H   UNL     1       6.801   2.775  14.310  0.00  0.00    +0.000 HD
ENDBRANCH  13  15
ENDBRANCH  11  13
ENDBRANCH  10  12
ENDBRANCH   1  10
TORSDOF 6
ENDMDL
MODEL 7
REMARK VINA RESULT:      -5.4      3.719      5.809
REMARK  Name = 
REMARK  8 active torsions:
REMARK  status: ('A' for Active; 'I' for Inactive)
REMARK    1  A    between atoms: C_1  and  N_2
REMARK    2  A    between atoms: N_2  and  C_3
REMARK    3  A    between atoms: C_3  and  C_4
REMARK    4  A    between atoms: C_5  and  C_6
REMARK    5  A    between atoms: C_6  and  O_7
REMARK    6  A    between atoms: O_7  and  C_8
REMARK    7  A    between atoms: C_13  and  O_14
REMARK    8  A    between atoms: O_14  and  C_15
REMARK                            x       y       z     vdW  Elec       q    Type
REMARK                         _______ _______ _______ _____ _____    ______ ____
ROOT
ATOM      1  O   UNL     1       6.715   4.293  16.138  0.00  0.00    +0.000 OA
ENDROOT
BRANCH   1   2
ATOM      2  C   UNL     1       5.592   4.857  16.705  0.00  0.00    +0.000 A 
ATOM      3  C   UNL     1       4.495   4.043  17.069  0.00  0.00    +0.000 A 
ATOM      4  C   UNL     1       3.318   4.578  17.577  0.00  0.00    +0.000 A 
ATOM      5  C   UNL     1       3.228   5.937  17.794  0.00  0.00    +0.000 A 
ATOM      6  C   UNL     1       4.322   6.752  17.509  0.00  0.00    +0.000 A 
ATOM      7  C   UNL     1       5.511   6.237  16.959  0.00  0.00    +0.000 A 
BRANCH   7   8
ATOM      8  O   UNL     1       6.413   7.241  16.748  0.00  0.00    +0.000 OA
ATOM      9  C   UNL     1       7.562   7.359  17.564  0.00  0.00    +0.000 C 
ENDBRANCH   7   8
ENDBRANCH   1   2
BRANCH   1  10
ATOM     10  C   UNL     1       6.877   4.645  14.756  0.00  0.00    +0.000 C 
BRANCH  10  12
ATOM     11  C   UNL     1       6.282   3.435  12.654  0.00  0.00    +0.000 C 
ATOM     12  C   UNL     1       5.951   3.862  13.885  0.00  0.00    +0.000 C 
BRANCH  11  13
ATOM     13  C   UNL     1       5.339   2.760  11.713  0.00  0.00    +0.000 C 
BRANCH  13  15
ATOM     14  C   UNL     1       3.287   3.041  10.505  0.00  0.00    +0.000 C 
ATOM     15  N   UNL     1       4.213   3.645  11.449  0.00  0.00    +0.000 NA
ATOM     16  H   UNL     1       3.727   3.840  12.321  0.00  0.00    +0.000 HD
ENDBRANCH  13  15
ENDBRANCH  11  13
ENDBRANCH  10  12
ENDBRANCH   1  10
TORSDOF 6
ENDMDL
MODEL 8
REMARK VINA RESULT:      -5.4      3.821      5.788
REMARK  Name = 
REMARK  8 active torsions:
REMARK  status: ('A' for Active; 'I' for Inactive)
REMARK    1  A    between atoms: C_1  and  N_2
REMARK    2  A    between atoms: N_2  and  C_3
REMARK    3  A    between atoms: C_3  and  C_4
REMARK    4  A    between atoms: C_5  and  C_6
REMARK    5  A    between atoms: C_6  and  O_7
REMARK    6  A    between atoms: O_7  and  C_8
REMARK    7  A    between atoms: C_13  and  O_14
REMARK    8  A    between atoms: O_14  and  C_15
REMARK                            x       y       z     vdW  Elec       q    Type
REMARK                         _______ _______ _______ _____ _____    ______ ____
ROOT
ATOM      1  O   UNL     1       5.791   3.598  15.970  0.00  0.00    +0.000 OA
ENDROOT
BRANCH   1   2
ATOM      2  C   UNL     1       5.167   4.166  17.060  0.00  0.00    +0.000 A 
ATOM      3  C   UNL     1       3.756   4.232  17.116  0.00  0.00    +0.000 A 
ATOM      4  C   UNL     1       3.089   4.859  18.161  0.00  0.00    +0.000 A 
ATOM      5  C   UNL     1       3.813   5.381  19.212  0.00  0.00    +0.000 A 
ATOM      6  C   UNL     1       5.202   5.265  19.214  0.00  0.00    +0.000 A 
ATOM      7  C   UNL     1       5.901   4.667  18.149  0.00  0.00    +0.000 A 
BRANCH   7   8
ATOM      8  O   UNL     1       7.247   4.705  18.380  0.00  0.00    +0.000 OA
ATOM      9  C   UNL     1       7.795   5.646  19.283  0.00  0.00    +0.000 C 
ENDBRANCH   7   8
ENDBRANCH   1   2
BRANCH   1  10
ATOM     10  C   UNL     1       6.152   4.563  14.971  0.00  0.00    +0.000 C 
BRANCH  10  12
ATOM     11  C   UNL     1       5.236   3.539  12.886  0.00  0.00    +0.000 C 
ATOM     12  C   UNL     1       6.288   3.926  13.626  0.00  0.00    +0.000 C 
BRANCH  11  13
ATOM     13  C   UNL     1       5.341   2.791  11.597  0.00  0.00    +0.000 C 
BRANCH  13  15
ATOM     14  C   UNL     1       6.139   0.579  11.129  0.00  0.00    +0.000 C 
ATOM     15  N   UNL     1       6.481   1.886  11.663  0.00  0.00    +0.000 NA
ATOM     16  H   UNL     1       7.252   2.277  11.127  0.00  0.00    +0.000 HD
ENDBRANCH  13  15
ENDBRANCH  11  13
ENDBRANCH  10  12
ENDBRANCH   1  10
TORSDOF 6
ENDMDL
MODEL 9
REMARK VINA RESULT:      -5.3      3.587      6.047
REMARK  Name = 
REMARK  8 active torsions:
REMARK  status: ('A' for Active; 'I' for Inactive)
REMARK    1  A    between atoms: C_1  and  N_2
REMARK    2  A    between atoms: N_2  and  C_3
REMARK    3  A    between atoms: C_3  and  C_4
REMARK    4  A    between atoms: C_5  and  C_6
REMARK    5  A    between atoms: C_6  and  O_7
REMARK    6  A    between atoms: O_7  and  C_8
REMARK    7  A    between atoms: C_13  and  O_14
REMARK    8  A    between atoms: O_14  and  C_15
REMARK                            x       y       z     vdW  Elec       q    Type
REMARK                         _______ _______ _______ _____ _____    ______ ____
ROOT
ATOM      1  O   UNL     1       5.779   4.292  16.756  0.00  0.00    +0.000 OA
ENDROOT
BRANCH   1   2
ATOM      2  C   UNL     1       4.634   4.919  17.198  0.00  0.00    +0.000 A 
ATOM      3  C   UNL     1       4.630   6.316  17.421  0.00  0.00    +0.000 A 
ATOM      4  C   UNL     1       3.520   6.976  17.934  0.00  0.00    +0.000 A 
ATOM      5  C   UNL     1       2.363   6.268  18.178  0.00  0.00    +0.000 A 
ATOM      6  C   UNL     1       2.320   4.903  17.900  0.00  0.00    +0.000 A 
ATOM      7  C   UNL     1       3.443   4.207  17.415  0.00  0.00    +0.000 A 
BRANCH   7   8
ATOM      8  O   UNL     1       3.150   2.882  17.253  0.00  0.00    +0.000 OA
ATOM      9  C   UNL     1       3.525   1.937  18.236  0.00  0.00    +0.000 C 
ENDBRANCH   7   8
ENDBRANCH   1   2
BRANCH   1  10
ATOM     10  C   UNL     1       6.583   5.131  15.914  0.00  0.00    +0.000 C 
BRANCH  10  12
ATOM     11  C   UNL     1       5.921   3.750  13.941  0.00  0.00    +0.000 C 
ATOM     12  C   UNL     1       6.238   4.943  14.472  0.00  0.00    +0.000 C 
BRANCH  11  13
ATOM     13  C   UNL     1       5.693   3.510  12.484  0.00  0.00    +0.000 C 
BRANCH  13  15
ATOM     14  C   UNL     1       5.959   1.439  11.307  0.00  0.00    +0.000 C 
ATOM     15  N   UNL     1       6.642   2.511  12.011  0.00  0.00    +0.000 NA
ATOM     16  H   UNL     1       7.311   2.953  11.385  0.00  0.00    +0.000 HD
ENDBRANCH  13  15
ENDBRANCH  11  13
ENDBRANCH  10  12
ENDBRANCH   1  10
TORSDOF 6
ENDMDL
