MODEL 1
REMARK VINA RESULT:      -7.2      0.000      0.000
REMARK  Name = 
REMARK  14 active torsions:
REMARK  status: ('A' for Active; 'I' for Inactive)
REMARK    1  A    between atoms: C_1  and  C_2
REMARK    2  A    between atoms: C_2  and  N_3
REMARK    3  A    between atoms: N_3  and  C_4
REMARK    4  A    between atoms: N_3  and  C_6
REMARK    5  A    between atoms: C_4  and  C_5
REMARK    6  A    between atoms: C_6  and  C_7
REMARK    7  A    between atoms: C_7  and  N_8
REMARK    8  A    between atoms: C_9  and  C_11
REMARK    9  A    between atoms: N_13  and  C_14
REMARK   10  A    between atoms: C_14  and  C_15
REMARK   11  A    between atoms: C_19  and  S_20
REMARK   12  A    between atoms: S_20  and  N_23
REMARK   13  A    between atoms: N_23  and  C_24
REMARK   14  A    between atoms: N_23  and  C_25
REMARK                            x       y       z     vdW  Elec       q    Type
REMARK                         _______ _______ _______ _____ _____    ______ ____
ROOT
ATOM      1  C   UNL     1       4.279   5.362  18.287  0.00  0.00    +0.000 A 
ATOM      2  C   UNL     1       3.753   4.851  19.410  0.00  0.00    +0.000 A 
ATOM      3  N   UNL     1       2.723   5.395  20.172  0.00  0.00    +0.000 N 
ATOM      4  C   UNL     1       2.240   6.680  19.839  0.00  0.00    +0.000 A 
ATOM      5  C   UNL     1       1.315   7.394  20.618  0.00  0.00    +0.000 A 
ATOM      6  C   UNL     1       0.936   8.701  20.285  0.00  0.00    +0.000 A 
ATOM      7  C   UNL     1       1.441   9.300  19.128  0.00  0.00    +0.000 A 
ATOM      8  C   UNL     1       2.329   8.614  18.313  0.00  0.00    +0.000 A 
ATOM      9  C   UNL     1       2.723   7.319  18.674  0.00  0.00    +0.000 A 
ATOM     10  C   UNL     1       3.698   6.630  17.802  0.00  0.00    +0.000 A 
ATOM     11  O   UNL     1       4.011   7.114  16.718  0.00  0.00    +0.000 OA
ENDROOT
BRANCH   1  13
ATOM     12  N   UNL     1       5.109   4.259  16.300  0.00  0.00    +0.000 N 
ATOM     13  C   UNL     1       5.373   4.630  17.594  0.00  0.00    +0.000 C 
ATOM     14  O   UNL     1       6.435   4.378  18.159  0.00  0.00    +0.000 OA
ATOM     15  H   UNL     1       4.274   4.624  15.835  0.00  0.00    +0.000 HD
BRANCH  12  16
ATOM     16  C   UNL     1       6.099   3.588  15.488  0.00  0.00    +0.000 C 
BRANCH  16  17
ATOM     17  C   UNL     1       6.656   4.467  14.350  0.00  0.00    +0.000 C 
BRANCH  17  18
ATOM     18  N   UNL     1       6.701   3.834  13.013  0.00  0.00    +0.000 NA
BRANCH  18  20
ATOM     19  C   UNL     1       5.308   2.286  11.577  0.00  0.00    +0.000 C 
ATOM     20  C   UNL     1       5.358   3.478  12.530  0.00  0.00    +0.000 C 
ENDBRANCH  18  20
BRANCH  18  21
ATOM     21  C   UNL     1       7.485   4.647  12.063  0.00  0.00    +0.000 C 
ATOM     22  C   UNL     1       8.287   5.802  12.660  0.00  0.00    +0.000 C 
ENDBRANCH  18  21
ENDBRANCH  17  18
ENDBRANCH  16  17
ENDBRANCH  12  16
ENDBRANCH   1  13
BRANCH   7  23
ATOM     23  S   UNL     1       1.066  10.995  18.752  0.00  0.00    +0.000 S 
ATOM     24  O   UNL     1       2.277  11.592  18.217  0.00  0.00    +0.000 OA
ATOM     25  O   UNL     1      -0.156  10.982  17.983  0.00  0.00    +0.000 OA
BRANCH  23  26
ATOM     26  N   UNL     1       0.776  11.740  20.309  0.00  0.00    +0.000 NA
ATOM     27  C   UNL     1       1.792  12.806  20.584  0.00  0.00    +0.000 C 
BRANCH  26  28
ATOM     28  C   UNL     1      -0.653  12.292  20.420  0.00  0.00    +0.000 C 
ATOM     29  C   UNL     1      -1.576  11.451  21.319  0.00  0.00    +0.000 C 
ATOM     30  C   UNL     1      -1.297  11.581  22.815  0.00  0.00    +0.000 C 
ATOM     31  C   UNL     1      -1.251  13.031  23.282  0.00  0.00    +0.000 C 
ATOM     32  C   UNL     1      -0.368  13.904  22.400  0.00  0.00    +0.000 C 
ATOM     33  C   UNL     1      -0.712  13.751  20.921  0.00  0.00    +0.000 C 
ENDBRANCH  26  28
ENDBRANCH  23  26
ENDBRANCH   7  23
BRANCH   3  34
ATOM     34  C   UNL     1       2.218   4.696  21.368  0.00  0.00    +0.000 C 
ATOM     35  C   UNL     1       1.462   3.428  20.997  0.00  0.00    +0.000 C 
ENDBRANCH   3  34
TORSDOF 10
ENDMDL
MODEL 2
REMARK VINA RESULT:      -7.2      1.819      2.694
REMARK  Name = 
REMARK  14 active torsions:
REMARK  status: ('A' for Active; 'I' for Inactive)
REMARK    1  A    between atoms: C_1  and  C_2
REMARK    2  A    between atoms: C_2  and  N_3
REMARK    3  A    between atoms: N_3  and  C_4
REMARK    4  A    between atoms: N_3  and  C_6
REMARK    5  A    between atoms: C_4  and  C_5
REMARK    6  A    between atoms: C_6  and  C_7
REMARK    7  A    between atoms: C_7  and  N_8
REMARK    8  A    between atoms: C_9  and  C_11
REMARK    9  A    between atoms: N_13  and  C_14
REMARK   10  A    between atoms: C_14  and  C_15
REMARK   11  A    between atoms: C_19  and  S_20
REMARK   12  A    between atoms: S_20  and  N_23
REMARK   13  A    between atoms: N_23  and  C_24
REMARK   14  A    between atoms: N_23  and  C_25
REMARK                            x       y       z     vdW  Elec       q    Type
REMARK                         _______ _______ _______ _____ _____    ______ ____
ROOT
ATOM      1  C   UNL     1       3.845   5.505  18.236  0.00  0.00    +0.000 A 
ATOM      2  C   UNL     1       3.411   4.754  19.260  0.00  0.00    +0.000 A 
ATOM      3  N   UNL     1       2.459   5.109  20.211  0.00  0.00    +0.000 N 
ATOM      4  C   UNL     1       1.967   6.433  20.215  0.00  0.00    +0.000 A 
ATOM      5  C   UNL     1       1.124   6.950  21.212  0.00  0.00    +0.000 A 
ATOM      6  C   UNL     1       0.735   8.297  21.211  0.00  0.00    +0.000 A 
ATOM      7  C   UNL     1       1.145   9.141  20.176  0.00  0.00    +0.000 A 
ATOM      8  C   UNL     1       1.950   8.658  19.153  0.00  0.00    +0.000 A 
ATOM      9  C   UNL     1       2.356   7.318  19.183  0.00  0.00    +0.000 A 
ATOM     10  C   UNL     1       3.241   6.845  18.098  0.00  0.00    +0.000 A 
ATOM     11  O   UNL     1       3.464   7.559  17.124  0.00  0.00    +0.000 OA
ENDROOT
BRANCH   1  13
ATOM     12  N   UNL     1       4.983   5.603  16.103  0.00  0.00    +0.000 N 
ATOM     13  C   UNL     1       4.864   4.952  17.304  0.00  0.00    +0.000 C 
ATOM     14  O   UNL     1       5.542   3.971  17.603  0.00  0.00    +0.000 OA
ATOM     15  H   UNL     1       4.504   6.498  15.969  0.00  0.00    +0.000 HD
BRANCH  12  16
ATOM     16  C   UNL     1       5.968   5.208  15.123  0.00  0.00    +0.000 C 
BRANCH  16  17
ATOM     17  C   UNL     1       5.541   3.988  14.282  0.00  0.00    +0.000 C 
BRANCH  17  18
ATOM     18  N   UNL     1       5.770   4.101  12.823  0.00  0.00    +0.000 NA
BRANCH  18  20
ATOM     19  C   UNL     1       7.810   5.401  12.085  0.00  0.00    +0.000 C 
ATOM     20  C   UNL     1       7.202   4.060  12.489  0.00  0.00    +0.000 C 
ENDBRANCH  18  20
BRANCH  18  21
ATOM     21  C   UNL     1       4.951   3.127  12.076  0.00  0.00    +0.000 C 
ATOM     22  C   UNL     1       5.701   1.959  11.437  0.00  0.00    +0.000 C 
ENDBRANCH  18  21
ENDBRANCH  17  18
ENDBRANCH  16  17
ENDBRANCH  12  16
ENDBRANCH   1  13
BRANCH   7  23
ATOM     23  S   UNL     1       0.762  10.875  20.220  0.00  0.00    +0.000 S 
ATOM     24  O   UNL     1       0.962  11.321  21.587  0.00  0.00    +0.000 OA
ATOM     25  O   UNL     1       1.487  11.481  19.129  0.00  0.00    +0.000 OA
BRANCH  23  26
ATOM     26  N   UNL     1      -0.957  10.956  19.905  0.00  0.00    +0.000 NA
ATOM     27  C   UNL     1      -1.631  11.880  20.873  0.00  0.00    +0.000 C 
BRANCH  26  28
ATOM     28  C   UNL     1      -1.253  11.361  18.453  0.00  0.00    +0.000 C 
ATOM     29  C   UNL     1      -1.494  10.168  17.511  0.00  0.00    +0.000 C 
ATOM     30  C   UNL     1      -2.840   9.471  17.702  0.00  0.00    +0.000 C 
ATOM     31  C   UNL     1      -4.016  10.440  17.669  0.00  0.00    +0.000 C 
ATOM     32  C   UNL     1      -3.803  11.651  18.568  0.00  0.00    +0.000 C 
ATOM     33  C   UNL     1      -2.454  12.320  18.313  0.00  0.00    +0.000 C 
ENDBRANCH  26  28
ENDBRANCH  23  26
ENDBRANCH   7  23
BRANCH   3  34
ATOM     34  C   UNL     1       2.051   4.159  21.262  0.00  0.00    +0.000 C 
ATOM     35  C   UNL     1       1.403   2.916  20.671  0.00  0.00    +0.000 C 
ENDBRANCH   3  34
TORSDOF 10
ENDMDL
MODEL 3
REMARK VINA RESULT:      -7.2      1.791      2.367
REMARK  Name = 
REMARK  14 active torsions:
REMARK  status: ('A' for Active; 'I' for Inactive)
REMARK    1  A    between atoms: C_1  and  C_2
REMARK    2  A    between atoms: C_2  and  N_3
REMARK    3  A    between atoms: N_3  and  C_4
REMARK    4  A    between atoms: N_3  and  C_6
REMARK    5  A    between atoms: C_4  and  C_5
REMARK    6  A    between atoms: C_6  and  C_7
REMARK    7  A    between atoms: C_7  and  N_8
REMARK    8  A    between atoms: C_9  and  C_11
REMARK    9  A    between atoms: N_13  and  C_14
REMARK   10  A    between atoms: C_14  and  C_15
REMARK   11  A    between atoms: C_19  and  S_20
REMARK   12  A    between atoms: S_20  and  N_23
REMARK   13  A    between atoms: N_23  and  C_24
REMARK   14  A    between atoms: N_23  and  C_25
REMARK                            x       y       z     vdW  Elec       q    Type
REMARK                         _______ _______ _______ _____ _____    ______ ____
ROOT
ATOM      1  C   UNL     1       3.775   5.294  18.132  0.00  0.00    +0.000 A 
ATOM      2  C   UNL     1       3.381   4.606  19.214  0.00  0.00    +0.000 A 
ATOM      3  N   UNL     1       2.486   5.032  20.192  0.00  0.00    +0.000 N 
ATOM      4  C   UNL     1       2.021   6.365  20.150  0.00  0.00    +0.000 A 
ATOM      5  C   UNL     1       1.241   6.952  21.160  0.00  0.00    +0.000 A 
ATOM      6  C   UNL     1       0.879   8.306  21.107  0.00  0.00    +0.000 A 
ATOM      7  C   UNL     1       1.252   9.085  20.009  0.00  0.00    +0.000 A 
ATOM      8  C   UNL     1       1.993   8.532  18.975  0.00  0.00    +0.000 A 
ATOM      9  C   UNL     1       2.373   7.186  19.054  0.00  0.00    +0.000 A 
ATOM     10  C   UNL     1       3.192   6.638  17.953  0.00  0.00    +0.000 A 
ATOM     11  O   UNL     1       3.379   7.295  16.933  0.00  0.00    +0.000 OA
ENDROOT
BRANCH   1  13
ATOM     12  N   UNL     1       5.478   5.545  16.431  0.00  0.00    +0.000 N 
ATOM     13  C   UNL     1       4.734   4.670  17.180  0.00  0.00    +0.000 C 
ATOM     14  O   UNL     1       4.836   3.449  17.080  0.00  0.00    +0.000 OA
ATOM     15  H   UNL     1       5.461   6.542  16.661  0.00  0.00    +0.000 HD
BRANCH  12  16
ATOM     16  C   UNL     1       6.485   5.081  15.504  0.00  0.00    +0.000 C 
BRANCH  16  17
ATOM     17  C   UNL     1       5.901   4.541  14.183  0.00  0.00    +0.000 C 
BRANCH  17  18
ATOM     18  N   UNL     1       6.889   4.203  13.133  0.00  0.00    +0.000 NA
BRANCH  18  20
ATOM     19  C   UNL     1       4.797   3.292  12.041  0.00  0.00    +0.000 C 
ATOM     20  C   UNL     1       6.322   3.301  12.119  0.00  0.00    +0.000 C 
ENDBRANCH  18  20
BRANCH  18  21
ATOM     21  C   UNL     1       7.514   5.418  12.576  0.00  0.00    +0.000 C 
ATOM     22  C   UNL     1       8.944   5.712  13.028  0.00  0.00    +0.000 C 
ENDBRANCH  18  21
ENDBRANCH  17  18
ENDBRANCH  16  17
ENDBRANCH  12  16
ENDBRANCH   1  13
BRANCH   7  23
ATOM     23  S   UNL     1       0.906  10.827  19.981  0.00  0.00    +0.000 S 
ATOM     24  O   UNL     1       1.231  11.348  21.297  0.00  0.00    +0.000 OA
ATOM     25  O   UNL     1       1.547  11.351  18.798  0.00  0.00    +0.000 OA
BRANCH  23  26
ATOM     26  N   UNL     1      -0.832  10.930  19.807  0.00  0.00    +0.000 NA
ATOM     27  C   UNL     1      -1.424  11.774  20.893  0.00  0.00    +0.000 C 
BRANCH  26  28
ATOM     28  C   UNL     1      -1.237  11.447  18.419  0.00  0.00    +0.000 C 
ATOM     29  C   UNL     1      -1.537  10.330  17.403  0.00  0.00    +0.000 C 
ATOM     30  C   UNL     1      -2.859   9.601  17.633  0.00  0.00    +0.000 C 
ATOM     31  C   UNL     1      -4.043  10.553  17.765  0.00  0.00    +0.000 C 
ATOM     32  C   UNL     1      -3.774  11.690  18.742  0.00  0.00    +0.000 C 
ATOM     33  C   UNL     1      -2.453  12.397  18.445  0.00  0.00    +0.000 C 
ENDBRANCH  26  28
ENDBRANCH  23  26
ENDBRANCH   7  23
BRANCH   3  34
ATOM     34  C   UNL     1       2.114   4.147  21.311  0.00  0.00    +0.000 C 
ATOM     35  C   UNL     1       1.121   3.080  20.874  0.00  0.00    +0.000 C 
ENDBRANCH   3  34
TORSDOF 10
ENDMDL
MODEL 4
REMARK VINA RESULT:      -7.1      2.345      3.658
REMARK  Name = 
REMARK  14 active torsions:
REMARK  status: ('A' for Active; 'I' for Inactive)
REMARK    1  A    between atoms: C_1  and  C_2
REMARK    2  A    between atoms: C_2  and  N_3
REMARK    3  A    between atoms: N_3  and  C_4
REMARK    4  A    between atoms: N_3  and  C_6
REMARK    5  A    between atoms: C_4  and  C_5
REMARK    6  A    between atoms: C_6  and  C_7
REMARK    7  A    between atoms: C_7  and  N_8
REMARK    8  A    between atoms: C_9  and  C_11
REMARK    9  A    between atoms: N_13  and  C_14
REMARK   10  A    between atoms: C_14  and  C_15
REMARK   11  A    between atoms: C_19  and  S_20
REMARK   12  A    between atoms: S_20  and  N_23
REMARK   13  A    between atoms: N_23  and  C_24
REMARK   14  A    between atoms: N_23  and  C_25
REMARK                            x       y       z     vdW  Elec       q    Type
REMARK                         _______ _______ _______ _____ _____    ______ ____
ROOT
ATOM      1  C   UNL     1       3.214   6.008  18.135  0.00  0.00    +0.000 A 
ATOM      2  C   UNL     1       2.956   5.256  19.215  0.00  0.00    +0.000 A 
ATOM      3  N   UNL     1       2.160   5.604  20.303  0.00  0.00    +0.000 N 
ATOM      4  C   UNL     1       1.658   6.922  20.380  0.00  0.00    +0.000 A 
ATOM      5  C   UNL     1       0.974   7.433  21.495  0.00  0.00    +0.000 A 
ATOM      6  C   UNL     1       0.572   8.775  21.552  0.00  0.00    +0.000 A 
ATOM      7  C   UNL     1       0.803   9.618  20.462  0.00  0.00    +0.000 A 
ATOM      8  C   UNL     1       1.444   9.141  19.328  0.00  0.00    +0.000 A 
ATOM      9  C   UNL     1       1.867   7.807  19.297  0.00  0.00    +0.000 A 
ATOM     10  C   UNL     1       2.578   7.340  18.088  0.00  0.00    +0.000 A 
ATOM     11  O   UNL     1       2.637   8.052  17.089  0.00  0.00    +0.000 OA
ENDROOT
BRANCH   1  13
ATOM     12  N   UNL     1       4.849   6.385  16.391  0.00  0.00    +0.000 N 
ATOM     13  C   UNL     1       4.082   5.463  17.056  0.00  0.00    +0.000 C 
ATOM     14  O   UNL     1       4.094   4.263  16.787  0.00  0.00    +0.000 OA
ATOM     15  H   UNL     1       4.911   7.340  16.754  0.00  0.00    +0.000 HD
BRANCH  12  16
ATOM     16  C   UNL     1       5.778   5.991  15.356  0.00  0.00    +0.000 C 
BRANCH  16  17
ATOM     17  C   UNL     1       7.048   5.307  15.900  0.00  0.00    +0.000 C 
BRANCH  17  18
ATOM     18  N   UNL     1       7.709   5.989  17.035  0.00  0.00    +0.000 NA
BRANCH  18  20
ATOM     19  C   UNL     1       8.126   8.358  17.818  0.00  0.00    +0.000 C 
ATOM     20  C   UNL     1       7.141   7.325  17.278  0.00  0.00    +0.000 C 
ENDBRANCH  18  20
BRANCH  18  21
ATOM     21  C   UNL     1       7.746   5.125  18.231  0.00  0.00    +0.000 C 
ATOM     22  C   UNL     1       6.768   5.477  19.352  0.00  0.00    +0.000 C 
ENDBRANCH  18  21
ENDBRANCH  17  18
ENDBRANCH  16  17
ENDBRANCH  12  16
ENDBRANCH   1  13
BRANCH   7  23
ATOM     23  S   UNL     1       0.408  11.348  20.561  0.00  0.00    +0.000 S 
ATOM     24  O   UNL     1       0.604  11.752  21.942  0.00  0.00    +0.000 OA
ATOM     25  O   UNL     1       1.131  11.993  19.491  0.00  0.00    +0.000 OA
BRANCH  23  26
ATOM     26  N   UNL     1      -1.311  11.428  20.246  0.00  0.00    +0.000 NA
ATOM     27  C   UNL     1      -1.995  12.298  21.255  0.00  0.00    +0.000 C 
BRANCH  26  28
ATOM     28  C   UNL     1      -1.608  11.898  18.814  0.00  0.00    +0.000 C 
ATOM     29  C   UNL     1      -1.484  10.787  17.756  0.00  0.00    +0.000 C 
ATOM     30  C   UNL     1      -2.622   9.768  17.770  0.00  0.00    +0.000 C 
ATOM     31  C   UNL     1      -3.998  10.421  17.719  0.00  0.00    +0.000 C 
ATOM     32  C   UNL     1      -4.151  11.547  18.734  0.00  0.00    +0.000 C 
ATOM     33  C   UNL     1      -2.999  12.546  18.654  0.00  0.00    +0.000 C 
ENDBRANCH  26  28
ENDBRANCH  23  26
ENDBRANCH   7  23
BRANCH   3  34
ATOM     34  C   UNL     1       1.935   4.654  21.408  0.00  0.00    +0.000 C 
ATOM     35  C   UNL     1       1.379   3.331  20.902  0.00  0.00    +0.000 C 
ENDBRANCH   3  34
TORSDOF 10
ENDMDL
MODEL 5
REMARK VINA RESULT:      -7.0      1.977      2.985
REMARK  Name = 
REMARK  14 active torsions:
REMARK  status: ('A' for Active; 'I' for Inactive)
REMARK    1  A    between atoms: C_1  and  C_2
REMARK    2  A    between atoms: C_2  and  N_3
REMARK    3  A    between atoms: N_3  and  C_4
REMARK    4  A    between atoms: N_3  and  C_6
REMARK    5  A    between atoms: C_4  and  C_5
REMARK    6  A    between atoms: C_6  and  C_7
REMARK    7  A    between atoms: C_7  and  N_8
REMARK    8  A    between atoms: C_9  and  C_11
REMARK    9  A    between atoms: N_13  and  C_14
REMARK   10  A    between atoms: C_14  and  C_15
REMARK   11  A    between atoms: C_19  and  S_20
REMARK   12  A    between atoms: S_20  and  N_23
REMARK   13  A    between atoms: N_23  and  C_24
REMARK   14  A    between atoms: N_23  and  C_25
REMARK                            x       y       z     vdW  Elec       q    Type
REMARK                         _______ _______ _______ _____ _____    ______ ____
ROOT
ATOM      1  C   UNL     1       3.636   6.647  17.937  0.00  0.00    +0.000 A 
ATOM      2  C   UNL     1       3.354   5.788  18.927  0.00  0.00    +0.000 A 
ATOM      3  N   UNL     1       2.435   5.974  19.956  0.00  0.00    +0.000 N 
ATOM      4  C   UNL     1       1.809   7.233  20.085  0.00  0.00    +0.000 A 
ATOM      5  C   UNL     1       0.984   7.588  21.165  0.00  0.00    +0.000 A 
ATOM      6  C   UNL     1       0.457   8.881  21.285  0.00  0.00    +0.000 A 
ATOM      7  C   UNL     1       0.706   9.831  20.291  0.00  0.00    +0.000 A 
ATOM      8  C   UNL     1       1.487   9.507  19.190  0.00  0.00    +0.000 A 
ATOM      9  C   UNL     1       2.032   8.221  19.098  0.00  0.00    +0.000 A 
ATOM     10  C   UNL     1       2.888   7.920  17.931  0.00  0.00    +0.000 A 
ATOM     11  O   UNL     1       2.969   8.716  17.000  0.00  0.00    +0.000 OA
ENDROOT
BRANCH   1  13
ATOM     12  N   UNL     1       5.388   5.154  17.189  0.00  0.00    +0.000 N 
ATOM     13  C   UNL     1       4.643   6.271  16.908  0.00  0.00    +0.000 C 
ATOM     14  O   UNL     1       4.789   6.932  15.881  0.00  0.00    +0.000 OA
ATOM     15  H   UNL     1       5.122   4.561  17.980  0.00  0.00    +0.000 HD
BRANCH  12  16
ATOM     16  C   UNL     1       6.366   4.642  16.256  0.00  0.00    +0.000 C 
BRANCH  16  17
ATOM     17  C   UNL     1       5.753   3.763  15.147  0.00  0.00    +0.000 C 
BRANCH  17  18
ATOM     18  N   UNL     1       5.937   4.254  13.762  0.00  0.00    +0.000 NA
BRANCH  18  20
ATOM     19  C   UNL     1       7.856   5.519  12.707  0.00  0.00    +0.000 C 
ATOM     20  C   UNL     1       7.351   4.234  13.358  0.00  0.00    +0.000 C 
ENDBRANCH  18  20
BRANCH  18  21
ATOM     21  C   UNL     1       5.033   3.561  12.824  0.00  0.00    +0.000 C 
ATOM     22  C   UNL     1       5.697   2.656  11.787  0.00  0.00    +0.000 C 
ENDBRANCH  18  21
ENDBRANCH  17  18
ENDBRANCH  16  17
ENDBRANCH  12  16
ENDBRANCH   1  13
BRANCH   7  23
ATOM     23  S   UNL     1       0.146  11.506  20.483  0.00  0.00    +0.000 S 
ATOM     24  O   UNL     1       0.285  11.844  21.889  0.00  0.00    +0.000 OA
ATOM     25  O   UNL     1       0.818  12.280  19.466  0.00  0.00    +0.000 OA
BRANCH  23  26
ATOM     26  N   UNL     1      -1.569  11.442  20.142  0.00  0.00    +0.000 NA
ATOM     27  C   UNL     1      -2.347  12.163  21.199  0.00  0.00    +0.000 C 
BRANCH  26  28
ATOM     28  C   UNL     1      -1.893  11.988  18.744  0.00  0.00    +0.000 C 
ATOM     29  C   UNL     1      -1.265  11.175  17.597  0.00  0.00    +0.000 C 
ATOM     30  C   UNL     1      -1.930   9.824  17.340  0.00  0.00    +0.000 C 
ATOM     31  C   UNL     1      -3.440   9.933  17.169  0.00  0.00    +0.000 C 
ATOM     32  C   UNL     1      -4.097  10.755  18.271  0.00  0.00    +0.000 C 
ATOM     33  C   UNL     1      -3.407  12.103  18.463  0.00  0.00    +0.000 C 
ENDBRANCH  26  28
ENDBRANCH  23  26
ENDBRANCH   7  23
BRANCH   3  34
ATOM     34  C   UNL     1       2.201   4.918  20.958  0.00  0.00    +0.000 C 
ATOM     35  C   UNL     1       1.140   3.931  20.492  0.00  0.00    +0.000 C 
ENDBRANCH   3  34
TORSDOF 10
ENDMDL
MODEL 6
REMARK VINA RESULT:      -7.0      1.857      2.719
REMARK  Name = 
REMARK  14 active torsions:
REMARK  status: ('A' for Active; 'I' for Inactive)
REMARK    1  A    between atoms: C_1  and  C_2
REMARK    2  A    between atoms: C_2  and  N_3
REMARK    3  A    between atoms: N_3  and  C_4
REMARK    4  A    between atoms: N_3  and  C_6
REMARK    5  A    between atoms: C_4  and  C_5
REMARK    6  A    between atoms: C_6  and  C_7
REMARK    7  A    between atoms: C_7  and  N_8
REMARK    8  A    between atoms: C_9  and  C_11
REMARK    9  A    between atoms: N_13  and  C_14
REMARK   10  A    between atoms: C_14  and  C_15
REMARK   11  A    between atoms: C_19  and  S_20
REMARK   12  A    between atoms: S_20  and  N_23
REMARK   13  A    between atoms: N_23  and  C_24
REMARK   14  A    between atoms: N_23  and  C_25
REMARK                            x       y       z     vdW  Elec       q    Type
REMARK                         _______ _______ _______ _____ _____    ______ ____
ROOT
ATOM      1  C   UNL     1       4.478   5.110  17.744  0.00  0.00    +0.000 A 
ATOM      2  C   UNL     1       4.082   4.084  18.511  0.00  0.00    +0.000 A 
ATOM      3  N   UNL     1       3.076   4.101  19.473  0.00  0.00    +0.000 N 
ATOM      4  C   UNL     1       2.473   5.336  19.800  0.00  0.00    +0.000 A 
ATOM      5  C   UNL     1       1.560   5.505  20.854  0.00  0.00    +0.000 A 
ATOM      6  C   UNL     1       1.059   6.771  21.188  0.00  0.00    +0.000 A 
ATOM      7  C   UNL     1       1.425   7.887  20.433  0.00  0.00    +0.000 A 
ATOM      8  C   UNL     1       2.297   7.755  19.361  0.00  0.00    +0.000 A 
ATOM      9  C   UNL     1       2.814   6.490  19.057  0.00  0.00    +0.000 A 
ATOM     10  C   UNL     1       3.768   6.390  17.932  0.00  0.00    +0.000 A 
ATOM     11  O   UNL     1       3.957   7.352  17.193  0.00  0.00    +0.000 OA
ENDROOT
BRANCH   1  13
ATOM     12  N   UNL     1       5.222   5.117  15.441  0.00  0.00    +0.000 N 
ATOM     13  C   UNL     1       5.567   4.902  16.751  0.00  0.00    +0.000 C 
ATOM     14  O   UNL     1       6.695   4.556  17.098  0.00  0.00    +0.000 OA
ATOM     15  H   UNL     1       4.319   5.547  15.225  0.00  0.00    +0.000 HD
BRANCH  12  16
ATOM     16  C   UNL     1       6.192   5.003  14.376  0.00  0.00    +0.000 C 
BRANCH  16  17
ATOM     17  C   UNL     1       6.191   3.623  13.690  0.00  0.00    +0.000 C 
BRANCH  17  18
ATOM     18  N   UNL     1       5.992   3.633  12.223  0.00  0.00    +0.000 NA
BRANCH  18  20
ATOM     19  C   UNL     1       7.178   1.700  11.103  0.00  0.00    +0.000 C 
ATOM     20  C   UNL     1       7.191   3.173  11.504  0.00  0.00    +0.000 C 
ENDBRANCH  18  20
BRANCH  18  21
ATOM     21  C   UNL     1       4.755   2.923  11.845  0.00  0.00    +0.000 C 
ATOM     22  C   UNL     1       3.848   3.631  10.839  0.00  0.00    +0.000 C 
ENDBRANCH  18  21
ENDBRANCH  17  18
ENDBRANCH  16  17
ENDBRANCH  12  16
ENDBRANCH   1  13
BRANCH   7  23
ATOM     23  S   UNL     1       0.894   9.514  20.911  0.00  0.00    +0.000 S 
ATOM     24  O   UNL     1      -0.540   9.447  21.130  0.00  0.00    +0.000 OA
ATOM     25  O   UNL     1       1.785   9.940  21.964  0.00  0.00    +0.000 OA
BRANCH  23  26
ATOM     26  N   UNL     1       1.147  10.499  19.488  0.00  0.00    +0.000 NA
ATOM     27  C   UNL     1       0.634   9.804  18.264  0.00  0.00    +0.000 C 
BRANCH  26  28
ATOM     28  C   UNL     1       0.519  11.892  19.639  0.00  0.00    +0.000 C 
ATOM     29  C   UNL     1       1.073  12.698  20.829  0.00  0.00    +0.000 C 
ATOM     30  C   UNL     1       2.486  13.240  20.625  0.00  0.00    +0.000 C 
ATOM     31  C   UNL     1       2.637  14.016  19.321  0.00  0.00    +0.000 C 
ATOM     32  C   UNL     1       2.074  13.263  18.123  0.00  0.00    +0.000 C 
ATOM     33  C   UNL     1       0.652  12.769  18.376  0.00  0.00    +0.000 C 
ENDBRANCH  26  28
ENDBRANCH  23  26
ENDBRANCH   7  23
BRANCH   3  34
ATOM     34  C   UNL     1       2.720   2.878  20.215  0.00  0.00    +0.000 C 
ATOM     35  C   UNL     1       1.631   2.089  19.503  0.00  0.00    +0.000 C 
ENDBRANCH   3  34
TORSDOF 10
ENDMDL
MODEL 7
REMARK VINA RESULT:      -7.0      3.002      9.317
REMARK  Name = 
REMARK  14 active torsions:
REMARK  status: ('A' for Active; 'I' for Inactive)
REMARK    1  A    between atoms: C_1  and  C_2
REMARK    2  A    between atoms: C_2  and  N_3
REMARK    3  A    between atoms: N_3  and  C_4
REMARK    4  A    between atoms: N_3  and  C_6
REMARK    5  A    between atoms: C_4  and  C_5
REMARK    6  A    between atoms: C_6  and  C_7
REMARK    7  A    between atoms: C_7  and  N_8
REMARK    8  A    between atoms: C_9  and  C_11
REMARK    9  A    between atoms: N_13  and  C_14
REMARK   10  A    between atoms: C_14  and  C_15
REMARK   11  A    between atoms: C_19  and  S_20
REMARK   12  A    between atoms: S_20  and  N_23
REMARK   13  A    between atoms: N_23  and  C_24
REMARK   14  A    between atoms: N_23  and  C_25
REMARK                            x       y       z     vdW  Elec       q    Type
REMARK                         _______ _______ _______ _____ _____    ______ ____
ROOT
ATOM      1  C   UNL     1       1.150  10.764  19.364  0.00  0.00    +0.000 A 
ATOM      2  C   UNL     1       0.717  10.609  20.624  0.00  0.00    +0.000 A 
ATOM      3  N   UNL     1       0.799   9.455  21.398  0.00  0.00    +0.000 N 
ATOM      4  C   UNL     1       1.259   8.265  20.792  0.00  0.00    +0.000 A 
ATOM      5  C   UNL     1       1.243   7.010  21.423  0.00  0.00    +0.000 A 
ATOM      6  C   UNL     1       1.632   5.848  20.744  0.00  0.00    +0.000 A 
ATOM      7  C   UNL     1       2.098   5.931  19.429  0.00  0.00    +0.000 A 
ATOM      8  C   UNL     1       2.162   7.157  18.784  0.00  0.00    +0.000 A 
ATOM      9  C   UNL     1       1.742   8.307  19.464  0.00  0.00    +0.000 A 
ATOM     10  C   UNL     1       1.790   9.592  18.735  0.00  0.00    +0.000 A 
ATOM     11  O   UNL     1       2.341   9.663  17.640  0.00  0.00    +0.000 OA
ENDROOT
BRANCH   1  13
ATOM     12  N   UNL     1       2.151  12.786  18.490  0.00  0.00    +0.000 N 
ATOM     13  C   UNL     1       0.992  12.084  18.695  0.00  0.00    +0.000 C 
ATOM     14  O   UNL     1      -0.114  12.504  18.358  0.00  0.00    +0.000 OA
ATOM     15  H   UNL     1       3.051  12.326  18.651  0.00  0.00    +0.000 HD
BRANCH  12  16
ATOM     16  C   UNL     1       2.154  14.059  17.803  0.00  0.00    +0.000 C 
BRANCH  16  17
ATOM     17  C   UNL     1       2.190  15.269  18.757  0.00  0.00    +0.000 C 
BRANCH  17  18
ATOM     18  N   UNL     1       3.170  16.326  18.418  0.00  0.00    +0.000 NA
BRANCH  18  20
ATOM     19  C   UNL     1       5.110  15.433  19.773  0.00  0.00    +0.000 C 
ATOM     20  C   UNL     1       4.548  15.811  18.405  0.00  0.00    +0.000 C 
ENDBRANCH  18  20
BRANCH  18  21
ATOM     21  C   UNL     1       2.784  17.039  17.185  0.00  0.00    +0.000 C 
ATOM     22  C   UNL     1       1.490  17.851  17.249  0.00  0.00    +0.000 C 
ENDBRANCH  18  21
ENDBRANCH  17  18
ENDBRANCH  16  17
ENDBRANCH  12  16
ENDBRANCH   1  13
BRANCH   7  23
ATOM     23  S   UNL     1       2.483   4.458  18.514  0.00  0.00    +0.000 S 
ATOM     24  O   UNL     1       2.145   3.328  19.362  0.00  0.00    +0.000 OA
ATOM     25  O   UNL     1       1.877   4.616  17.213  0.00  0.00    +0.000 OA
BRANCH  23  26
ATOM     26  N   UNL     1       4.226   4.475  18.361  0.00  0.00    +0.000 NA
ATOM     27  C   UNL     1       4.815   3.190  18.857  0.00  0.00    +0.000 C 
BRANCH  26  28
ATOM     28  C   UNL     1       4.670   4.770  16.921  0.00  0.00    +0.000 C 
ATOM     29  C   UNL     1       4.766   6.272  16.595  0.00  0.00    +0.000 C 
ATOM     30  C   UNL     1       5.965   6.981  17.221  0.00  0.00    +0.000 C 
ATOM     31  C   UNL     1       7.284   6.274  16.935  0.00  0.00    +0.000 C 
ATOM     32  C   UNL     1       7.221   4.779  17.219  0.00  0.00    +0.000 C 
ATOM     33  C   UNL     1       6.019   4.121  16.545  0.00  0.00    +0.000 C 
ENDBRANCH  26  28
ENDBRANCH  23  26
ENDBRANCH   7  23
BRANCH   3  34
ATOM     34  C   UNL     1       0.313   9.443  22.790  0.00  0.00    +0.000 C 
ATOM     35  C   UNL     1      -0.832  10.426  22.991  0.00  0.00    +0.000 C 
ENDBRANCH   3  34
TORSDOF 10
ENDMDL
MODEL 8
REMARK VINA RESULT:      -7.0      2.904      9.640
REMARK  Name = 
REMARK  14 active torsions:
REMARK  status: ('A' for Active; 'I' for Inactive)
REMARK    1  A    between atoms: C_1  and  C_2
REMARK    2  A    between atoms: C_2  and  N_3
REMARK    3  A    between atoms: N_3  and  C_4
REMARK    4  A    between atoms: N_3  and  C_6
REMARK    5  A    between atoms: C_4  and  C_5
REMARK    6  A    between atoms: C_6  and  C_7
REMARK    7  A    between atoms: C_7  and  N_8
REMARK    8  A    between atoms: C_9  and  C_11
REMARK    9  A    between atoms: N_13  and  C_14
REMARK   10  A    between atoms: C_14  and  C_15
REMARK   11  A    between atoms: C_19  and  S_20
REMARK   12  A    between atoms: S_20  and  N_23
REMARK   13  A    between atoms: N_23  and  C_24
REMARK   14  A    between atoms: N_23  and  C_25
REMARK                            x       y       z     vdW  Elec       q    Type
REMARK                         _______ _______ _______ _____ _____    ______ ____
ROOT
ATOM      1  C   UNL     1       1.173  10.941  19.361  0.00  0.00    +0.000 A 
ATOM      2  C   UNL     1       0.708  10.801  20.611  0.00  0.00    +0.000 A 
ATOM      3  N   UNL     1       0.757   9.651  21.395  0.00  0.00    +0.000 N 
ATOM      4  C   UNL     1       1.216   8.451  20.808  0.00  0.00    +0.000 A 
ATOM      5  C   UNL     1       1.169   7.201  21.448  0.00  0.00    +0.000 A 
ATOM      6  C   UNL     1       1.559   6.029  20.786  0.00  0.00    +0.000 A 
ATOM      7  C   UNL     1       2.056   6.097  19.482  0.00  0.00    +0.000 A 
ATOM      8  C   UNL     1       2.152   7.317  18.830  0.00  0.00    +0.000 A 
ATOM      9  C   UNL     1       1.730   8.477  19.491  0.00  0.00    +0.000 A 
ATOM     10  C   UNL     1       1.812   9.756  18.755  0.00  0.00    +0.000 A 
ATOM     11  O   UNL     1       2.388   9.812  17.672  0.00  0.00    +0.000 OA
ENDROOT
BRANCH   1  13
ATOM     12  N   UNL     1       2.215  12.958  18.523  0.00  0.00    +0.000 N 
ATOM     13  C   UNL     1       1.046  12.257  18.678  0.00  0.00    +0.000 C 
ATOM     14  O   UNL     1      -0.042  12.677  18.290  0.00  0.00    +0.000 OA
ATOM     15  H   UNL     1       3.106  12.497  18.728  0.00  0.00    +0.000 HD
BRANCH  12  16
ATOM     16  C   UNL     1       2.250  14.227  17.832  0.00  0.00    +0.000 C 
BRANCH  16  17
ATOM     17  C   UNL     1       2.119  15.441  18.772  0.00  0.00    +0.000 C 
BRANCH  17  18
ATOM     18  N   UNL     1       0.819  16.148  18.732  0.00  0.00    +0.000 NA
BRANCH  18  20
ATOM     19  C   UNL     1      -1.377  16.515  19.933  0.00  0.00    +0.000 C 
ATOM     20  C   UNL     1      -0.014  15.828  19.902  0.00  0.00    +0.000 C 
ENDBRANCH  18  20
BRANCH  18  21
ATOM     21  C   UNL     1       1.002  17.594  18.502  0.00  0.00    +0.000 C 
ATOM     22  C   UNL     1       1.346  18.014  17.073  0.00  0.00    +0.000 C 
ENDBRANCH  18  21
ENDBRANCH  17  18
ENDBRANCH  16  17
ENDBRANCH  12  16
ENDBRANCH   1  13
BRANCH   7  23
ATOM     23  S   UNL     1       2.444   4.612  18.586  0.00  0.00    +0.000 S 
ATOM     24  O   UNL     1       2.126   3.493  19.457  0.00  0.00    +0.000 OA
ATOM     25  O   UNL     1       1.821   4.743  17.291  0.00  0.00    +0.000 OA
BRANCH  23  26
ATOM     26  N   UNL     1       4.185   4.643  18.412  0.00  0.00    +0.000 NA
ATOM     27  C   UNL     1       4.793   3.379  18.938  0.00  0.00    +0.000 C 
BRANCH  26  28
ATOM     28  C   UNL     1       4.608   4.899  16.958  0.00  0.00    +0.000 C 
ATOM     29  C   UNL     1       4.787   6.389  16.616  0.00  0.00    +0.000 C 
ATOM     30  C   UNL     1       6.042   7.029  17.205  0.00  0.00    +0.000 C 
ATOM     31  C   UNL     1       7.309   6.240  16.892  0.00  0.00    +0.000 C 
ATOM     32  C   UNL     1       7.162   4.754  17.191  0.00  0.00    +0.000 C 
ATOM     33  C   UNL     1       5.905   4.166  16.555  0.00  0.00    +0.000 C 
ENDBRANCH  26  28
ENDBRANCH  23  26
ENDBRANCH   7  23
BRANCH   3  34
ATOM     34  C   UNL     1       0.240   9.656  22.775  0.00  0.00    +0.000 C 
ATOM     35  C   UNL     1      -0.928  10.619  22.931  0.00  0.00    +0.000 C 
ENDBRANCH   3  34
TORSDOF 10
ENDMDL
MODEL 9
REMARK VINA RESULT:      -7.0      1.925      2.854
REMARK  Name = 
REMARK  14 active torsions:
REMARK  status: ('A' for Active; 'I' for Inactive)
REMARK    1  A    between atoms: C_1  and  C_2
REMARK    2  A    between atoms: C_2  and  N_3
REMARK    3  A    between atoms: N_3  and  C_4
REMARK    4  A    between atoms: N_3  and  C_6
REMARK    5  A    between atoms: C_4  and  C_5
REMARK    6  A    between atoms: C_6  and  C_7
REMARK    7  A    between atoms: C_7  and  N_8
REMARK    8  A    between atoms: C_9  and  C_11
REMARK    9  A    between atoms: N_13  and  C_14
REMARK   10  A    between atoms: C_14  and  C_15
REMARK   11  A    between atoms: C_19  and  S_20
REMARK   12  A    between atoms: S_20  and  N_23
REMARK   13  A    between atoms: N_23  and  C_24
REMARK   14  A    between atoms: N_23  and  C_25
REMARK                            x       y       z     vdW  Elec       q    Type
REMARK                         _______ _______ _______ _____ _____    ______ ____
ROOT
ATOM      1  C   UNL     1       4.243   5.781  17.290  0.00  0.00    +0.000 A 
ATOM      2  C   UNL     1       4.008   4.607  17.895  0.00  0.00    +0.000 A 
ATOM      3  N   UNL     1       3.119   4.370  18.939  0.00  0.00    +0.000 N 
ATOM      4  C   UNL     1       2.473   5.472  19.541  0.00  0.00    +0.000 A 
ATOM      5  C   UNL     1       1.676   5.376  20.694  0.00  0.00    +0.000 A 
ATOM      6  C   UNL     1       1.128   6.516  21.299  0.00  0.00    +0.000 A 
ATOM      7  C   UNL     1       1.328   7.774  20.725  0.00  0.00    +0.000 A 
ATOM      8  C   UNL     1       2.080   7.906  19.566  0.00  0.00    +0.000 A 
ATOM      9  C   UNL     1       2.647   6.762  18.989  0.00  0.00    +0.000 A 
ATOM     10  C   UNL     1       3.471   6.942  17.776  0.00  0.00    +0.000 A 
ATOM     11  O   UNL     1       3.508   8.030  17.207  0.00  0.00    +0.000 OA
ENDROOT
BRANCH   1  13
ATOM     12  N   UNL     1       5.350   4.698  15.431  0.00  0.00    +0.000 N 
ATOM     13  C   UNL     1       5.225   5.844  16.173  0.00  0.00    +0.000 C 
ATOM     14  O   UNL     1       5.876   6.863  15.948  0.00  0.00    +0.000 OA
ATOM     15  H   UNL     1       4.680   3.937  15.568  0.00  0.00    +0.000 HD
BRANCH  12  16
ATOM     16  C   UNL     1       6.227   4.632  14.284  0.00  0.00    +0.000 C 
BRANCH  16  17
ATOM     17  C   UNL     1       6.115   3.308  13.502  0.00  0.00    +0.000 C 
BRANCH  17  18
ATOM     18  N   UNL     1       5.889   3.439  12.044  0.00  0.00    +0.000 NA
BRANCH  18  20
ATOM     19  C   UNL     1       6.929   1.357  11.052  0.00  0.00    +0.000 C 
ATOM     20  C   UNL     1       6.999   2.867  11.266  0.00  0.00    +0.000 C 
ENDBRANCH  18  20
BRANCH  18  21
ATOM     21  C   UNL     1       4.560   2.927  11.660  0.00  0.00    +0.000 C 
ATOM     22  C   UNL     1       3.821   3.709  10.574  0.00  0.00    +0.000 C 
ENDBRANCH  18  21
ENDBRANCH  17  18
ENDBRANCH  16  17
ENDBRANCH  12  16
ENDBRANCH   1  13
BRANCH   7  23
ATOM     23  S   UNL     1       0.744   9.241  21.540  0.00  0.00    +0.000 S 
ATOM     24  O   UNL     1      -0.589   8.948  22.040  0.00  0.00    +0.000 OA
ATOM     25  O   UNL     1       1.796   9.657  22.435  0.00  0.00    +0.000 OA
BRANCH  23  26
ATOM     26  N   UNL     1       0.559  10.416  20.256  0.00  0.00    +0.000 NA
ATOM     27  C   UNL     1      -0.731  10.203  19.524  0.00  0.00    +0.000 C 
BRANCH  26  28
ATOM     28  C   UNL     1       0.669  11.855  20.781  0.00  0.00    +0.000 C 
ATOM     29  C   UNL     1       1.779  12.680  20.105  0.00  0.00    +0.000 C 
ATOM     30  C   UNL     1       1.466  13.112  18.674  0.00  0.00    +0.000 C 
ATOM     31  C   UNL     1       0.116  13.809  18.551  0.00  0.00    +0.000 C 
ATOM     32  C   UNL     1      -1.006  13.037  19.233  0.00  0.00    +0.000 C 
ATOM     33  C   UNL     1      -0.646  12.655  20.667  0.00  0.00    +0.000 C 
ENDBRANCH  26  28
ENDBRANCH  23  26
ENDBRANCH   7  23
BRANCH   3  34
ATOM     34  C   UNL     1       2.935   3.011  19.480  0.00  0.00    +0.000 C 
ATOM     35  C   UNL     1       2.271   2.091  18.467  0.00  0.00    +0.000 C 
ENDBRANCH   3  34
TORSDOF 10
ENDMDL
