MODEL 1
REMARK VINA RESULT:      -9.0      0.000      0.000
REMARK  Name = 
REMARK  4 active torsions:
REMARK  status: ('A' for Active; 'I' for Inactive)
REMARK    1  A    between atoms: C_1  and  N_2
REMARK    2  A    between atoms: C_9  and  N_10
REMARK    3  A    between atoms: N_10  and  C_11
REMARK    4  A    between atoms: C_21  and  C_22
REMARK                            x       y       z     vdW  Elec       q    Type
REMARK                         _______ _______ _______ _____ _____    ______ ____
ROOT
ATOM      1  C   UNL     1      -0.264  11.460  19.622  0.00  0.00    +0.000 C 
ATOM      2  C   UNL     1      -1.599  11.549  19.461  0.00  0.00    +0.000 C 
ATOM      3  C   UNL     1      -2.203  10.831  18.291  0.00  0.00    +0.000 C 
ATOM      4  O   UNL     1      -1.632   9.936  17.673  0.00  0.00    +0.000 OA
ATOM      5  N   UNL     1      -3.457  11.246  17.937  0.00  0.00    +0.000 N 
ATOM      6  C   UNL     1      -4.315  12.024  18.671  0.00  0.00    +0.000 C 
ATOM      7  O   UNL     1      -5.473  12.212  18.308  0.00  0.00    +0.000 OA
ATOM      8  C   UNL     1      -3.799  12.596  19.935  0.00  0.00    +0.000 A 
ATOM      9  C   UNL     1      -4.670  13.353  20.730  0.00  0.00    +0.000 A 
ATOM     10  C   UNL     1      -4.222  13.904  21.930  0.00  0.00    +0.000 A 
ATOM     11  C   UNL     1      -2.904  13.704  22.352  0.00  0.00    +0.000 A 
ATOM     12  C   UNL     1      -2.046  12.932  21.550  0.00  0.00    +0.000 A 
ATOM     13  C   UNL     1      -2.472  12.375  20.327  0.00  0.00    +0.000 A 
ATOM     14  H   UNL     1      -3.860  10.799  17.125  0.00  0.00    +0.000 HD
ENDROOT
BRANCH  11  15
ATOM     15  C   UNL     1      -2.409  14.296  23.588  0.00  0.00    +0.000 A 
ATOM     16  C   UNL     1      -3.109  14.689  24.763  0.00  0.00    +0.000 A 
ATOM     17  C   UNL     1      -2.165  15.193  25.628  0.00  0.00    +0.000 A 
ATOM     18  O   UNL     1      -0.933  15.147  25.064  0.00  0.00    +0.000 OA
ATOM     19  C   UNL     1      -1.084  14.609  23.826  0.00  0.00    +0.000 A 
ENDBRANCH  11  15
BRANCH   1  20
ATOM     20  N   UNL     1       0.654  10.785  18.857  0.00  0.00    +0.000 N 
ATOM     21  H   UNL     1       0.955  11.264  18.001  0.00  0.00    +0.000 HD
BRANCH  20  30
ATOM     22  C   UNL     1       3.993   1.723  19.079  0.00  0.00    +0.000 C 
ATOM     23  N   UNL     1       3.939   3.054  19.682  0.00  0.00    +0.000 NA
ATOM     24  C   UNL     1       2.548   3.383  20.098  0.00  0.00    +0.000 C 
ATOM     25  C   UNL     1       2.386   4.839  20.622  0.00  0.00    +0.000 C 
ATOM     26  N   UNL     1       2.882   5.735  19.576  0.00  0.00    +0.000 N 
ATOM     27  C   UNL     1       2.364   7.005  19.451  0.00  0.00    +0.000 A 
ATOM     28  C   UNL     1       2.402   7.618  18.198  0.00  0.00    +0.000 A 
ATOM     29  C   UNL     1       1.801   8.858  17.999  0.00  0.00    +0.000 A 
ATOM     30  C   UNL     1       1.172   9.502  19.057  0.00  0.00    +0.000 A 
ATOM     31  C   UNL     1       1.209   8.834  20.279  0.00  0.00    +0.000 A 
ATOM     32  N   UNL     1       1.757   7.605  20.492  0.00  0.00    +0.000 NA
ATOM     33  C   UNL     1       4.293   5.510  19.250  0.00  0.00    +0.000 C 
ATOM     34  C   UNL     1       4.432   4.068  18.719  0.00  0.00    +0.000 C 
ENDBRANCH  20  30
ENDBRANCH   1  20
TORSDOF 3
ENDMDL
MODEL 2
REMARK VINA RESULT:      -9.0      4.514      5.746
REMARK  Name = 
REMARK  4 active torsions:
REMARK  status: ('A' for Active; 'I' for Inactive)
REMARK    1  A    between atoms: C_1  and  N_2
REMARK    2  A    between atoms: C_9  and  N_10
REMARK    3  A    between atoms: N_10  and  C_11
REMARK    4  A    between atoms: C_21  and  C_22
REMARK                            x       y       z     vdW  Elec       q    Type
REMARK                         _______ _______ _______ _____ _____    ______ ____
ROOT
ATOM      1  C   UNL     1       1.587  11.993  18.508  0.00  0.00    +0.000 C 
ATOM      2  C   UNL     1       1.144  13.245  18.737  0.00  0.00    +0.000 C 
ATOM      3  C   UNL     1      -0.315  13.418  19.037  0.00  0.00    +0.000 C 
ATOM      4  O   UNL     1      -1.049  12.499  19.394  0.00  0.00    +0.000 OA
ATOM      5  N   UNL     1      -0.797  14.688  18.882  0.00  0.00    +0.000 N 
ATOM      6  C   UNL     1      -0.070  15.844  18.756  0.00  0.00    +0.000 C 
ATOM      7  O   UNL     1      -0.616  16.944  18.766  0.00  0.00    +0.000 OA
ATOM      8  C   UNL     1       1.400  15.713  18.646  0.00  0.00    +0.000 A 
ATOM      9  C   UNL     1       2.171  16.880  18.567  0.00  0.00    +0.000 A 
ATOM     10  C   UNL     1       3.559  16.797  18.467  0.00  0.00    +0.000 A 
ATOM     11  C   UNL     1       4.194  15.551  18.448  0.00  0.00    +0.000 A 
ATOM     12  C   UNL     1       3.409  14.390  18.539  0.00  0.00    +0.000 A 
ATOM     13  C   UNL     1       2.003  14.447  18.629  0.00  0.00    +0.000 A 
ATOM     14  H   UNL     1      -1.786  14.810  19.042  0.00  0.00    +0.000 HD
ENDROOT
BRANCH  11  15
ATOM     15  C   UNL     1       5.642  15.444  18.313  0.00  0.00    +0.000 A 
ATOM     16  C   UNL     1       6.437  14.419  17.731  0.00  0.00    +0.000 A 
ATOM     17  C   UNL     1       7.746  14.815  17.871  0.00  0.00    +0.000 A 
ATOM     18  O   UNL     1       7.815  16.009  18.509  0.00  0.00    +0.000 OA
ATOM     19  C   UNL     1       6.539  16.386  18.782  0.00  0.00    +0.000 A 
ENDBRANCH  11  15
BRANCH   1  20
ATOM     20  N   UNL     1       0.884  10.815  18.514  0.00  0.00    +0.000 N 
ATOM     21  H   UNL     1      -0.124  10.900  18.346  0.00  0.00    +0.000 HD
BRANCH  20  30
ATOM     22  C   UNL     1       3.973   1.694  19.272  0.00  0.00    +0.000 C 
ATOM     23  N   UNL     1       3.906   3.045  19.827  0.00  0.00    +0.000 NA
ATOM     24  C   UNL     1       2.497   3.418  20.126  0.00  0.00    +0.000 C 
ATOM     25  C   UNL     1       2.332   4.894  20.591  0.00  0.00    +0.000 C 
ATOM     26  N   UNL     1       2.927   5.743  19.558  0.00  0.00    +0.000 N 
ATOM     27  C   UNL     1       2.451   7.020  19.355  0.00  0.00    +0.000 A 
ATOM     28  C   UNL     1       2.598   7.590  18.090  0.00  0.00    +0.000 A 
ATOM     29  C   UNL     1       2.044   8.836  17.806  0.00  0.00    +0.000 A 
ATOM     30  C   UNL     1       1.354   9.528  18.794  0.00  0.00    +0.000 A 
ATOM     31  C   UNL     1       1.282   8.900  20.036  0.00  0.00    +0.000 A 
ATOM     32  N   UNL     1       1.783   7.667  20.328  0.00  0.00    +0.000 NA
ATOM     33  C   UNL     1       4.352   5.477  19.347  0.00  0.00    +0.000 C 
ATOM     34  C   UNL     1       4.496   4.015  18.873  0.00  0.00    +0.000 C 
ENDBRANCH  20  30
ENDBRANCH   1  20
TORSDOF 3
ENDMDL
MODEL 3
REMARK VINA RESULT:      -8.8      1.743      3.948
REMARK  Name = 
REMARK  4 active torsions:
REMARK  status: ('A' for Active; 'I' for Inactive)
REMARK    1  A    between atoms: C_1  and  N_2
REMARK    2  A    between atoms: C_9  and  N_10
REMARK    3  A    between atoms: N_10  and  C_11
REMARK    4  A    between atoms: C_21  and  C_22
REMARK                            x       y       z     vdW  Elec       q    Type
REMARK                         _______ _______ _______ _____ _____    ______ ____
ROOT
ATOM      1  C   UNL     1      -0.273  11.217  18.957  0.00  0.00    +0.000 C 
ATOM      2  C   UNL     1      -0.387  12.197  19.875  0.00  0.00    +0.000 C 
ATOM      3  C   UNL     1       0.879  12.742  20.465  0.00  0.00    +0.000 C 
ATOM      4  O   UNL     1       1.987  12.590  19.956  0.00  0.00    +0.000 OA
ATOM      5  N   UNL     1       0.727  13.432  21.636  0.00  0.00    +0.000 N 
ATOM      6  C   UNL     1      -0.440  13.908  22.177  0.00  0.00    +0.000 C 
ATOM      7  O   UNL     1      -0.433  14.638  23.164  0.00  0.00    +0.000 OA
ATOM      8  C   UNL     1      -1.702  13.537  21.499  0.00  0.00    +0.000 A 
ATOM      9  C   UNL     1      -2.906  14.051  22.000  0.00  0.00    +0.000 A 
ATOM     10  C   UNL     1      -4.115  13.727  21.387  0.00  0.00    +0.000 A 
ATOM     11  C   UNL     1      -4.139  12.891  20.266  0.00  0.00    +0.000 A 
ATOM     12  C   UNL     1      -2.923  12.393  19.768  0.00  0.00    +0.000 A 
ATOM     13  C   UNL     1      -1.688  12.696  20.378  0.00  0.00    +0.000 A 
ATOM     14  H   UNL     1       1.576  13.770  22.065  0.00  0.00    +0.000 HD
ENDROOT
BRANCH  11  15
ATOM     15  C   UNL     1      -5.395  12.518  19.629  0.00  0.00    +0.000 A 
ATOM     16  C   UNL     1      -5.760  12.504  18.255  0.00  0.00    +0.000 A 
ATOM     17  C   UNL     1      -7.064  12.070  18.202  0.00  0.00    +0.000 A 
ATOM     18  O   UNL     1      -7.533  11.825  19.451  0.00  0.00    +0.000 OA
ATOM     19  C   UNL     1      -6.522  12.102  20.314  0.00  0.00    +0.000 A 
ENDBRANCH  11  15
BRANCH   1  20
ATOM     20  N   UNL     1       0.864  10.629  18.460  0.00  0.00    +0.000 N 
ATOM     21  H   UNL     1       1.368  11.171  17.751  0.00  0.00    +0.000 HD
BRANCH  20  30
ATOM     22  C   UNL     1       4.239   1.613  19.244  0.00  0.00    +0.000 C 
ATOM     23  N   UNL     1       4.137   2.964  19.790  0.00  0.00    +0.000 NA
ATOM     24  C   UNL     1       2.721   3.297  20.102  0.00  0.00    +0.000 C 
ATOM     25  C   UNL     1       2.516   4.770  20.559  0.00  0.00    +0.000 C 
ATOM     26  N   UNL     1       3.073   5.630  19.514  0.00  0.00    +0.000 N 
ATOM     27  C   UNL     1       2.556   6.890  19.308  0.00  0.00    +0.000 A 
ATOM     28  C   UNL     1       2.671   7.455  18.037  0.00  0.00    +0.000 A 
ATOM     29  C   UNL     1       2.076   8.681  17.752  0.00  0.00    +0.000 A 
ATOM     30  C   UNL     1       1.376   9.359  18.742  0.00  0.00    +0.000 A 
ATOM     31  C   UNL     1       1.337   8.738  19.989  0.00  0.00    +0.000 A 
ATOM     32  N   UNL     1       1.879   7.523  20.284  0.00  0.00    +0.000 NA
ATOM     33  C   UNL     1       4.503   5.406  19.288  0.00  0.00    +0.000 C 
ATOM     34  C   UNL     1       4.686   3.946  18.823  0.00  0.00    +0.000 C 
ENDBRANCH  20  30
ENDBRANCH   1  20
TORSDOF 3
ENDMDL
MODEL 4
REMARK VINA RESULT:      -8.6      2.200      3.538
REMARK  Name = 
REMARK  4 active torsions:
REMARK  status: ('A' for Active; 'I' for Inactive)
REMARK    1  A    between atoms: C_1  and  N_2
REMARK    2  A    between atoms: C_9  and  N_10
REMARK    3  A    between atoms: N_10  and  C_11
REMARK    4  A    between atoms: C_21  and  C_22
REMARK                            x       y       z     vdW  Elec       q    Type
REMARK                         _______ _______ _______ _____ _____    ______ ____
ROOT
ATOM      1  C   UNL     1      -0.072  11.542  20.137  0.00  0.00    +0.000 C 
ATOM      2  C   UNL     1       0.262  12.723  20.696  0.00  0.00    +0.000 C 
ATOM      3  C   UNL     1       1.563  13.341  20.280  0.00  0.00    +0.000 C 
ATOM      4  O   UNL     1       2.174  13.020  19.264  0.00  0.00    +0.000 OA
ATOM      5  N   UNL     1       2.046  14.304  21.122  0.00  0.00    +0.000 N 
ATOM      6  C   UNL     1       1.369  14.950  22.125  0.00  0.00    +0.000 C 
ATOM      7  O   UNL     1       1.868  15.900  22.721  0.00  0.00    +0.000 OA
ATOM      8  C   UNL     1       0.001  14.478  22.432  0.00  0.00    +0.000 A 
ATOM      9  C   UNL     1      -0.733  15.152  23.417  0.00  0.00    +0.000 A 
ATOM     10  C   UNL     1      -2.027  14.740  23.732  0.00  0.00    +0.000 A 
ATOM     11  C   UNL     1      -2.606  13.655  23.065  0.00  0.00    +0.000 A 
ATOM     12  C   UNL     1      -1.863  12.997  22.071  0.00  0.00    +0.000 A 
ATOM     13  C   UNL     1      -0.548  13.387  21.744  0.00  0.00    +0.000 A 
ATOM     14  H   UNL     1       2.942  14.701  20.875  0.00  0.00    +0.000 HD
ENDROOT
BRANCH  11  15
ATOM     15  C   UNL     1      -3.947  13.191  23.401  0.00  0.00    +0.000 A 
ATOM     16  C   UNL     1      -5.185  13.402  22.734  0.00  0.00    +0.000 A 
ATOM     17  C   UNL     1      -6.142  12.745  23.473  0.00  0.00    +0.000 A 
ATOM     18  O   UNL     1      -5.580  12.153  24.556  0.00  0.00    +0.000 OA
ATOM     19  C   UNL     1      -4.251  12.429  24.514  0.00  0.00    +0.000 A 
ENDBRANCH  11  15
BRANCH   1  20
ATOM     20  N   UNL     1       0.619  10.801  19.211  0.00  0.00    +0.000 N 
ATOM     21  H   UNL     1       0.730  11.237  18.290  0.00  0.00    +0.000 HD
BRANCH  20  30
ATOM     22  C   UNL     1       3.861   1.706  18.942  0.00  0.00    +0.000 C 
ATOM     23  N   UNL     1       3.817   3.001  19.618  0.00  0.00    +0.000 NA
ATOM     24  C   UNL     1       2.427   3.322  20.044  0.00  0.00    +0.000 C 
ATOM     25  C   UNL     1       2.277   4.747  20.648  0.00  0.00    +0.000 C 
ATOM     26  N   UNL     1       2.789   5.695  19.658  0.00  0.00    +0.000 N 
ATOM     27  C   UNL     1       2.285   6.976  19.602  0.00  0.00    +0.000 A 
ATOM     28  C   UNL     1       2.338   7.658  18.385  0.00  0.00    +0.000 A 
ATOM     29  C   UNL     1       1.750   8.913  18.252  0.00  0.00    +0.000 A 
ATOM     30  C   UNL     1       1.122   9.504  19.342  0.00  0.00    +0.000 A 
ATOM     31  C   UNL     1       1.143   8.767  20.525  0.00  0.00    +0.000 A 
ATOM     32  N   UNL     1       1.678   7.523  20.671  0.00  0.00    +0.000 NA
ATOM     33  C   UNL     1       4.199   5.474  19.327  0.00  0.00    +0.000 C 
ATOM     34  C   UNL     1       4.327   4.062  18.717  0.00  0.00    +0.000 C 
ENDBRANCH  20  30
ENDBRANCH   1  20
TORSDOF 3
ENDMDL
MODEL 5
REMARK VINA RESULT:      -8.6      1.974      3.810
REMARK  Name = 
REMARK  4 active torsions:
REMARK  status: ('A' for Active; 'I' for Inactive)
REMARK    1  A    between atoms: C_1  and  N_2
REMARK    2  A    between atoms: C_9  and  N_10
REMARK    3  A    between atoms: N_10  and  C_11
REMARK    4  A    between atoms: C_21  and  C_22
REMARK                            x       y       z     vdW  Elec       q    Type
REMARK                         _______ _______ _______ _____ _____    ______ ____
ROOT
ATOM      1  C   UNL     1      -0.348  11.379  18.970  0.00  0.00    +0.000 C 
ATOM      2  C   UNL     1      -0.530  12.610  19.486  0.00  0.00    +0.000 C 
ATOM      3  C   UNL     1       0.673  13.496  19.604  0.00  0.00    +0.000 C 
ATOM      4  O   UNL     1       1.721  13.306  18.990  0.00  0.00    +0.000 OA
ATOM      5  N   UNL     1       0.539  14.552  20.462  0.00  0.00    +0.000 N 
ATOM      6  C   UNL     1      -0.622  15.044  21.001  0.00  0.00    +0.000 C 
ATOM      7  O   UNL     1      -0.632  16.088  21.647  0.00  0.00    +0.000 OA
ATOM      8  C   UNL     1      -1.865  14.285  20.741  0.00  0.00    +0.000 A 
ATOM      9  C   UNL     1      -3.074  14.792  21.237  0.00  0.00    +0.000 A 
ATOM     10  C   UNL     1      -4.267  14.107  21.009  0.00  0.00    +0.000 A 
ATOM     11  C   UNL     1      -4.270  12.914  20.281  0.00  0.00    +0.000 A 
ATOM     12  C   UNL     1      -3.052  12.424  19.779  0.00  0.00    +0.000 A 
ATOM     13  C   UNL     1      -1.831  13.091  20.007  0.00  0.00    +0.000 A 
ATOM     14  H   UNL     1       1.356  15.134  20.582  0.00  0.00    +0.000 HD
ENDROOT
BRANCH  11  15
ATOM     15  C   UNL     1      -5.503  12.169  20.057  0.00  0.00    +0.000 A 
ATOM     16  C   UNL     1      -6.635  11.993  20.899  0.00  0.00    +0.000 A 
ATOM     17  C   UNL     1      -7.517  11.199  20.204  0.00  0.00    +0.000 A 
ATOM     18  O   UNL     1      -7.003  10.864  18.995  0.00  0.00    +0.000 OA
ATOM     19  C   UNL     1      -5.780  11.448  18.910  0.00  0.00    +0.000 A 
ENDBRANCH  11  15
BRANCH   1  20
ATOM     20  N   UNL     1       0.810  10.797  18.515  0.00  0.00    +0.000 N 
ATOM     21  H   UNL     1       1.352  11.355  17.847  0.00  0.00    +0.000 HD
BRANCH  20  30
ATOM     22  C   UNL     1       4.007   1.712  19.256  0.00  0.00    +0.000 C 
ATOM     23  N   UNL     1       3.951   3.069  19.797  0.00  0.00    +0.000 NA
ATOM     24  C   UNL     1       2.551   3.434  20.147  0.00  0.00    +0.000 C 
ATOM     25  C   UNL     1       2.392   4.914  20.601  0.00  0.00    +0.000 C 
ATOM     26  N   UNL     1       2.938   5.756  19.536  0.00  0.00    +0.000 N 
ATOM     27  C   UNL     1       2.443   7.026  19.337  0.00  0.00    +0.000 A 
ATOM     28  C   UNL     1       2.534   7.582  18.060  0.00  0.00    +0.000 A 
ATOM     29  C   UNL     1       1.958   8.820  17.785  0.00  0.00    +0.000 A 
ATOM     30  C   UNL     1       1.302   9.518  18.791  0.00  0.00    +0.000 A 
ATOM     31  C   UNL     1       1.285   8.904  20.042  0.00  0.00    +0.000 A 
ATOM     32  N   UNL     1       1.808   7.679  20.328  0.00  0.00    +0.000 NA
ATOM     33  C   UNL     1       4.355   5.499  19.271  0.00  0.00    +0.000 C 
ATOM     34  C   UNL     1       4.493   4.033  18.809  0.00  0.00    +0.000 C 
ENDBRANCH  20  30
ENDBRANCH   1  20
TORSDOF 3
ENDMDL
MODEL 6
REMARK VINA RESULT:      -8.5      2.043      4.270
REMARK  Name = 
REMARK  4 active torsions:
REMARK  status: ('A' for Active; 'I' for Inactive)
REMARK    1  A    between atoms: C_1  and  N_2
REMARK    2  A    between atoms: C_9  and  N_10
REMARK    3  A    between atoms: N_10  and  C_11
REMARK    4  A    between atoms: C_21  and  C_22
REMARK                            x       y       z     vdW  Elec       q    Type
REMARK                         _______ _______ _______ _____ _____    ______ ____
ROOT
ATOM      1  C   UNL     1      -1.062  11.867  19.696  0.00  0.00    +0.000 C 
ATOM      2  C   UNL     1      -1.709  12.200  20.831  0.00  0.00    +0.000 C 
ATOM      3  C   UNL     1      -0.924  12.171  22.108  0.00  0.00    +0.000 C 
ATOM      4  O   UNL     1       0.304  12.176  22.152  0.00  0.00    +0.000 OA
ATOM      5  N   UNL     1      -1.672  12.130  23.252  0.00  0.00    +0.000 N 
ATOM      6  C   UNL     1      -3.014  12.385  23.378  0.00  0.00    +0.000 C 
ATOM      7  O   UNL     1      -3.547  12.457  24.482  0.00  0.00    +0.000 OA
ATOM      8  C   UNL     1      -3.783  12.605  22.133  0.00  0.00    +0.000 A 
ATOM      9  C   UNL     1      -5.145  12.918  22.235  0.00  0.00    +0.000 A 
ATOM     10  C   UNL     1      -5.902  13.136  21.085  0.00  0.00    +0.000 A 
ATOM     11  C   UNL     1      -5.309  13.051  19.821  0.00  0.00    +0.000 A 
ATOM     12  C   UNL     1      -3.940  12.749  19.735  0.00  0.00    +0.000 A 
ATOM     13  C   UNL     1      -3.156  12.511  20.882  0.00  0.00    +0.000 A 
ATOM     14  H   UNL     1      -1.156  12.070  24.118  0.00  0.00    +0.000 HD
ENDROOT
BRANCH  11  15
ATOM     15  C   UNL     1      -6.090  13.247  18.606  0.00  0.00    +0.000 A 
ATOM     16  C   UNL     1      -6.787  14.395  18.138  0.00  0.00    +0.000 A 
ATOM     17  C   UNL     1      -7.358  14.041  16.938  0.00  0.00    +0.000 A 
ATOM     18  O   UNL     1      -7.071  12.750  16.639  0.00  0.00    +0.000 OA
ATOM     19  C   UNL     1      -6.308  12.269  17.654  0.00  0.00    +0.000 A 
ENDBRANCH  11  15
BRANCH   1  20
ATOM     20  N   UNL     1       0.250  11.500  19.528  0.00  0.00    +0.000 N 
ATOM     21  H   UNL     1       0.914  12.273  19.409  0.00  0.00    +0.000 HD
BRANCH  20  30
ATOM     22  C   UNL     1       3.478   2.583  17.692  0.00  0.00    +0.000 C 
ATOM     23  N   UNL     1       3.547   3.799  18.501  0.00  0.00    +0.000 NA
ATOM     24  C   UNL     1       2.257   4.031  19.205  0.00  0.00    +0.000 C 
ATOM     25  C   UNL     1       2.207   5.382  19.977  0.00  0.00    +0.000 C 
ATOM     26  N   UNL     1       2.517   6.442  19.017  0.00  0.00    +0.000 N 
ATOM     27  C   UNL     1       1.999   7.706  19.193  0.00  0.00    +0.000 A 
ATOM     28  C   UNL     1       1.818   8.512  18.068  0.00  0.00    +0.000 A 
ATOM     29  C   UNL     1       1.204   9.757  18.181  0.00  0.00    +0.000 A 
ATOM     30  C   UNL     1       0.782  10.212  19.424  0.00  0.00    +0.000 A 
ATOM     31  C   UNL     1       1.030   9.357  20.496  0.00  0.00    +0.000 A 
ATOM     32  N   UNL     1       1.595   8.121  20.408  0.00  0.00    +0.000 NA
ATOM     33  C   UNL     1       3.844   6.299  18.413  0.00  0.00    +0.000 C 
ATOM     34  C   UNL     1       3.871   4.963  17.640  0.00  0.00    +0.000 C 
ENDBRANCH  20  30
ENDBRANCH   1  20
TORSDOF 3
ENDMDL
MODEL 7
REMARK VINA RESULT:      -8.5      3.402     10.901
REMARK  Name = 
REMARK  4 active torsions:
REMARK  status: ('A' for Active; 'I' for Inactive)
REMARK    1  A    between atoms: C_1  and  N_2
REMARK    2  A    between atoms: C_9  and  N_10
REMARK    3  A    between atoms: N_10  and  C_11
REMARK    4  A    between atoms: C_21  and  C_22
REMARK                            x       y       z     vdW  Elec       q    Type
REMARK                         _______ _______ _______ _____ _____    ______ ____
ROOT
ATOM      1  C   UNL     1       2.955   6.629  19.623  0.00  0.00    +0.000 C 
ATOM      2  C   UNL     1       2.558   5.359  19.413  0.00  0.00    +0.000 C 
ATOM      3  C   UNL     1       1.430   4.839  20.252  0.00  0.00    +0.000 C 
ATOM      4  O   UNL     1       0.655   5.562  20.873  0.00  0.00    +0.000 OA
ATOM      5  N   UNL     1       1.313   3.477  20.293  0.00  0.00    +0.000 N 
ATOM      6  C   UNL     1       1.913   2.564  19.464  0.00  0.00    +0.000 C 
ATOM      7  O   UNL     1       1.619   1.373  19.508  0.00  0.00    +0.000 OA
ATOM      8  C   UNL     1       2.901   3.080  18.490  0.00  0.00    +0.000 A 
ATOM      9  C   UNL     1       3.493   2.177  17.596  0.00  0.00    +0.000 A 
ATOM     10  C   UNL     1       4.425   2.625  16.662  0.00  0.00    +0.000 A 
ATOM     11  C   UNL     1       4.775   3.978  16.604  0.00  0.00    +0.000 A 
ATOM     12  C   UNL     1       4.165   4.873  17.498  0.00  0.00    +0.000 A 
ATOM     13  C   UNL     1       3.229   4.442  18.460  0.00  0.00    +0.000 A 
ATOM     14  H   UNL     1       0.582   3.112  20.886  0.00  0.00    +0.000 HD
ENDROOT
BRANCH  11  15
ATOM     15  C   UNL     1       5.769   4.460  15.653  0.00  0.00    +0.000 A 
ATOM     16  C   UNL     1       5.946   4.156  14.276  0.00  0.00    +0.000 A 
ATOM     17  C   UNL     1       7.035   4.883  13.853  0.00  0.00    +0.000 A 
ATOM     18  O   UNL     1       7.548   5.607  14.878  0.00  0.00    +0.000 OA
ATOM     19  C   UNL     1       6.783   5.345  15.969  0.00  0.00    +0.000 A 
ENDBRANCH  11  15
BRANCH   1  20
ATOM     20  N   UNL     1       2.461   7.550  20.514  0.00  0.00    +0.000 N 
ATOM     21  H   UNL     1       2.873   7.522  21.452  0.00  0.00    +0.000 HD
BRANCH  20  30
ATOM     22  C   UNL     1      -5.301  13.282  20.069  0.00  0.00    +0.000 C 
ATOM     23  N   UNL     1      -3.884  13.066  19.779  0.00  0.00    +0.000 NA
ATOM     24  C   UNL     1      -3.711  11.915  18.852  0.00  0.00    +0.000 C 
ATOM     25  C   UNL     1      -2.222  11.537  18.606  0.00  0.00    +0.000 C 
ATOM     26  N   UNL     1      -1.613  11.295  19.914  0.00  0.00    +0.000 N 
ATOM     27  C   UNL     1      -0.563  10.412  20.036  0.00  0.00    +0.000 A 
ATOM     28  C   UNL     1      -0.368   9.775  21.262  0.00  0.00    +0.000 A 
ATOM     29  C   UNL     1       0.615   8.800  21.405  0.00  0.00    +0.000 A 
ATOM     30  C   UNL     1       1.423   8.467  20.324  0.00  0.00    +0.000 A 
ATOM     31  C   UNL     1       1.180   9.173  19.147  0.00  0.00    +0.000 A 
ATOM     32  N   UNL     1       0.202  10.104  18.972  0.00  0.00    +0.000 NA
ATOM     33  C   UNL     1      -1.658  12.466  20.794  0.00  0.00    +0.000 C 
ATOM     34  C   UNL     1      -3.141  12.818  21.038  0.00  0.00    +0.000 C 
ENDBRANCH  20  30
ENDBRANCH   1  20
TORSDOF 3
ENDMDL
MODEL 8
REMARK VINA RESULT:      -8.5      2.243      3.557
REMARK  Name = 
REMARK  4 active torsions:
REMARK  status: ('A' for Active; 'I' for Inactive)
REMARK    1  A    between atoms: C_1  and  N_2
REMARK    2  A    between atoms: C_9  and  N_10
REMARK    3  A    between atoms: N_10  and  C_11
REMARK    4  A    between atoms: C_21  and  C_22
REMARK                            x       y       z     vdW  Elec       q    Type
REMARK                         _______ _______ _______ _____ _____    ______ ____
ROOT
ATOM      1  C   UNL     1       0.177  11.434  18.781  0.00  0.00    +0.000 C 
ATOM      2  C   UNL     1       0.212  12.744  19.095  0.00  0.00    +0.000 C 
ATOM      3  C   UNL     1       1.458  13.503  18.752  0.00  0.00    +0.000 C 
ATOM      4  O   UNL     1       2.296  13.107  17.945  0.00  0.00    +0.000 OA
ATOM      5  N   UNL     1       1.618  14.691  19.411  0.00  0.00    +0.000 N 
ATOM      6  C   UNL     1       0.670  15.383  20.121  0.00  0.00    +0.000 C 
ATOM      7  O   UNL     1       0.894  16.511  20.550  0.00  0.00    +0.000 OA
ATOM      8  C   UNL     1      -0.643  14.730  20.315  0.00  0.00    +0.000 A 
ATOM      9  C   UNL     1      -1.647  15.435  20.992  0.00  0.00    +0.000 A 
ATOM     10  C   UNL     1      -2.899  14.854  21.191  0.00  0.00    +0.000 A 
ATOM     11  C   UNL     1      -3.166  13.567  20.713  0.00  0.00    +0.000 A 
ATOM     12  C   UNL     1      -2.154  12.877  20.025  0.00  0.00    +0.000 A 
ATOM     13  C   UNL     1      -0.876  13.438  19.823  0.00  0.00    +0.000 A 
ATOM     14  H   UNL     1       2.473  15.193  19.220  0.00  0.00    +0.000 HD
ENDROOT
BRANCH  11  15
ATOM     15  C   UNL     1      -4.459  12.933  20.937  0.00  0.00    +0.000 A 
ATOM     16  C   UNL     1      -5.381  12.374  20.009  0.00  0.00    +0.000 A 
ATOM     17  C   UNL     1      -6.443  11.908  20.748  0.00  0.00    +0.000 A 
ATOM     18  O   UNL     1      -6.245  12.150  22.068  0.00  0.00    +0.000 OA
ATOM     19  C   UNL     1      -5.045  12.776  22.179  0.00  0.00    +0.000 A 
ENDBRANCH  11  15
BRANCH   1  20
ATOM     20  N   UNL     1       1.137  10.667  18.169  0.00  0.00    +0.000 N 
ATOM     21  H   UNL     1       1.538  11.062  17.312  0.00  0.00    +0.000 HD
BRANCH  20  30
ATOM     22  C   UNL     1       4.150   1.581  19.458  0.00  0.00    +0.000 C 
ATOM     23  N   UNL     1       4.040   2.948  19.963  0.00  0.00    +0.000 NA
ATOM     24  C   UNL     1       2.611   3.328  20.136  0.00  0.00    +0.000 C 
ATOM     25  C   UNL     1       2.411   4.817  20.540  0.00  0.00    +0.000 C 
ATOM     26  N   UNL     1       3.087   5.635  19.532  0.00  0.00    +0.000 N 
ATOM     27  C   UNL     1       2.630   6.904  19.251  0.00  0.00    +0.000 A 
ATOM     28  C   UNL     1       2.878   7.434  17.984  0.00  0.00    +0.000 A 
ATOM     29  C   UNL     1       2.349   8.669  17.619  0.00  0.00    +0.000 A 
ATOM     30  C   UNL     1       1.583   9.391  18.525  0.00  0.00    +0.000 A 
ATOM     31  C   UNL     1       1.411   8.802  19.777  0.00  0.00    +0.000 A 
ATOM     32  N   UNL     1       1.886   7.580  20.147  0.00  0.00    +0.000 NA
ATOM     33  C   UNL     1       4.524   5.365  19.443  0.00  0.00    +0.000 C 
ATOM     34  C   UNL     1       4.704   3.889  19.029  0.00  0.00    +0.000 C 
ENDBRANCH  20  30
ENDBRANCH   1  20
TORSDOF 3
ENDMDL
MODEL 9
REMARK VINA RESULT:      -8.5      3.535      4.763
REMARK  Name = 
REMARK  4 active torsions:
REMARK  status: ('A' for Active; 'I' for Inactive)
REMARK    1  A    between atoms: C_1  and  N_2
REMARK    2  A    between atoms: C_9  and  N_10
REMARK    3  A    between atoms: N_10  and  C_11
REMARK    4  A    between atoms: C_21  and  C_22
REMARK                            x       y       z     vdW  Elec       q    Type
REMARK                         _______ _______ _______ _____ _____    ______ ____
ROOT
ATOM      1  C   UNL     1       0.570  10.927  20.222  0.00  0.00    +0.000 C 
ATOM      2  C   UNL     1       0.156  11.757  21.200  0.00  0.00    +0.000 C 
ATOM      3  C   UNL     1      -0.496  11.140  22.400  0.00  0.00    +0.000 C 
ATOM      4  O   UNL     1      -0.396   9.951  22.693  0.00  0.00    +0.000 OA
ATOM      5  N   UNL     1      -1.235  11.997  23.168  0.00  0.00    +0.000 N 
ATOM      6  C   UNL     1      -1.225  13.368  23.130  0.00  0.00    +0.000 C 
ATOM      7  O   UNL     1      -1.827  14.033  23.968  0.00  0.00    +0.000 OA
ATOM      8  C   UNL     1      -0.430  14.011  22.059  0.00  0.00    +0.000 A 
ATOM      9  C   UNL     1      -0.361  15.410  22.027  0.00  0.00    +0.000 A 
ATOM     10  C   UNL     1       0.381  16.052  21.036  0.00  0.00    +0.000 A 
ATOM     11  C   UNL     1       1.066  15.308  20.071  0.00  0.00    +0.000 A 
ATOM     12  C   UNL     1       0.997  13.905  20.124  0.00  0.00    +0.000 A 
ATOM     13  C   UNL     1       0.244  13.233  21.108  0.00  0.00    +0.000 A 
ATOM     14  H   UNL     1      -1.713  11.587  23.958  0.00  0.00    +0.000 HD
ENDROOT
BRANCH  11  15
ATOM     15  C   UNL     1       1.823  15.961  19.011  0.00  0.00    +0.000 A 
ATOM     16  C   UNL     1       2.887  15.470  18.205  0.00  0.00    +0.000 A 
ATOM     17  C   UNL     1       3.241  16.497  17.361  0.00  0.00    +0.000 A 
ATOM     18  O   UNL     1       2.476  17.591  17.597  0.00  0.00    +0.000 OA
ATOM     19  C   UNL     1       1.621  17.266  18.601  0.00  0.00    +0.000 A 
ENDBRANCH  11  15
BRANCH   1  20
ATOM     20  N   UNL     1       0.488   9.558  20.161  0.00  0.00    +0.000 N 
ATOM     21  H   UNL     1      -0.280   9.137  20.693  0.00  0.00    +0.000 HD
BRANCH  20  30
ATOM     22  C   UNL     1       6.023   3.774  14.755  0.00  0.00    +0.000 C 
ATOM     23  N   UNL     1       5.785   4.447  16.031  0.00  0.00    +0.000 NA
ATOM     24  C   UNL     1       4.521   3.962  16.650  0.00  0.00    +0.000 C 
ATOM     25  C   UNL     1       4.129   4.732  17.944  0.00  0.00    +0.000 C 
ATOM     26  N   UNL     1       4.073   6.154  17.603  0.00  0.00    +0.000 N 
ATOM     27  C   UNL     1       3.226   6.996  18.289  0.00  0.00    +0.000 A 
ATOM     28  C   UNL     1       2.763   8.143  17.643  0.00  0.00    +0.000 A 
ATOM     29  C   UNL     1       1.826   8.971  18.256  0.00  0.00    +0.000 A 
ATOM     30  C   UNL     1       1.359   8.666  19.529  0.00  0.00    +0.000 A 
ATOM     31  C   UNL     1       1.897   7.520  20.112  0.00  0.00    +0.000 A 
ATOM     32  N   UNL     1       2.785   6.675  19.520  0.00  0.00    +0.000 NA
ATOM     33  C   UNL     1       5.351   6.679  17.116  0.00  0.00    +0.000 C 
ATOM     34  C   UNL     1       5.717   5.914  15.826  0.00  0.00    +0.000 C 
ENDBRANCH  20  30
ENDBRANCH   1  20
TORSDOF 3
ENDMDL
