MODEL 1
REMARK VINA RESULT:      -6.4      0.000      0.000
REMARK  Name = 
REMARK  0 active torsions:
REMARK  status: ('A' for Active; 'I' for Inactive)
REMARK                            x       y       z     vdW  Elec       q    Type
REMARK                         _______ _______ _______ _____ _____    ______ ____
ROOT
ATOM      1  O   UNL     1       8.431   4.093  17.738  0.00  0.00    +0.000 OA
ATOM      2  C   UNL     1       7.366   4.691  17.797  0.00  0.00    +0.000 A 
ATOM      3  C   UNL     1       7.247   6.083  17.288  0.00  0.00    +0.000 A 
ATOM      4  C   UNL     1       6.080   6.741  17.307  0.00  0.00    +0.000 A 
ATOM      5  C   UNL     1       4.876   6.077  17.807  0.00  0.00    +0.000 A 
ATOM      6  C   UNL     1       3.620   6.691  17.752  0.00  0.00    +0.000 A 
ATOM      7  C   UNL     1       2.482   6.005  18.189  0.00  0.00    +0.000 A 
ATOM      8  C   UNL     1       2.599   4.719  18.721  0.00  0.00    +0.000 A 
ATOM      9  C   UNL     1       3.852   4.120  18.798  0.00  0.00    +0.000 A 
ATOM     10  F   UNL     1       3.958   2.886  19.312  0.00  0.00    +0.000 F 
ATOM     11  C   UNL     1       4.984   4.779  18.325  0.00  0.00    +0.000 A 
ATOM     12  N   UNL     1       6.232   4.136  18.324  0.00  0.00    +0.000 N 
ATOM     13  H   UNL     1       6.302   3.188  18.671  0.00  0.00    +0.000 HD
ENDROOT
TORSDOF 0
ENDMDL
MODEL 2
REMARK VINA RESULT:      -6.4      1.315      1.793
REMARK  Name = 
REMARK  0 active torsions:
REMARK  status: ('A' for Active; 'I' for Inactive)
REMARK                            x       y       z     vdW  Elec       q    Type
REMARK                         _______ _______ _______ _____ _____    ______ ____
ROOT
ATOM      1  O   UNL     1       7.592   4.517  18.244  0.00  0.00    +0.000 OA
ATOM      2  C   UNL     1       6.372   4.600  18.226  0.00  0.00    +0.000 A 
ATOM      3  C   UNL     1       5.703   5.888  17.902  0.00  0.00    +0.000 A 
ATOM      4  C   UNL     1       4.368   5.990  17.838  0.00  0.00    +0.000 A 
ATOM      5  C   UNL     1       3.534   4.808  18.059  0.00  0.00    +0.000 A 
ATOM      6  C   UNL     1       2.145   4.849  17.904  0.00  0.00    +0.000 A 
ATOM      7  C   UNL     1       1.384   3.687  18.069  0.00  0.00    +0.000 A 
ATOM      8  C   UNL     1       2.004   2.489  18.430  0.00  0.00    +0.000 A 
ATOM      9  C   UNL     1       3.383   2.455  18.608  0.00  0.00    +0.000 A 
ATOM     10  F   UNL     1       3.972   1.302  18.957  0.00  0.00    +0.000 F 
ATOM     11  C   UNL     1       4.152   3.598  18.403  0.00  0.00    +0.000 A 
ATOM     12  N   UNL     1       5.552   3.539  18.498  0.00  0.00    +0.000 N 
ATOM     13  H   UNL     1       5.998   2.657  18.718  0.00  0.00    +0.000 HD
ENDROOT
TORSDOF 0
ENDMDL
MODEL 3
REMARK VINA RESULT:      -6.3      1.395      1.553
REMARK  Name = 
REMARK  0 active torsions:
REMARK  status: ('A' for Active; 'I' for Inactive)
REMARK                            x       y       z     vdW  Elec       q    Type
REMARK                         _______ _______ _______ _____ _____    ______ ____
ROOT
ATOM      1  O   UNL     1       7.750   4.411  16.357  0.00  0.00    +0.000 OA
ATOM      2  C   UNL     1       6.618   4.655  16.749  0.00  0.00    +0.000 A 
ATOM      3  C   UNL     1       6.158   6.059  16.918  0.00  0.00    +0.000 A 
ATOM      4  C   UNL     1       4.909   6.347  17.308  0.00  0.00    +0.000 A 
ATOM      5  C   UNL     1       3.951   5.267  17.545  0.00  0.00    +0.000 A 
ATOM      6  C   UNL     1       2.612   5.527  17.856  0.00  0.00    +0.000 A 
ATOM      7  C   UNL     1       1.711   4.469  18.022  0.00  0.00    +0.000 A 
ATOM      8  C   UNL     1       2.153   3.149  17.919  0.00  0.00    +0.000 A 
ATOM      9  C   UNL     1       3.490   2.892  17.636  0.00  0.00    +0.000 A 
ATOM     10  F   UNL     1       3.909   1.621  17.542  0.00  0.00    +0.000 F 
ATOM     11  C   UNL     1       4.384   3.939  17.426  0.00  0.00    +0.000 A 
ATOM     12  N   UNL     1       5.712   3.676  17.054  0.00  0.00    +0.000 N 
ATOM     13  H   UNL     1       6.014   2.717  16.939  0.00  0.00    +0.000 HD
ENDROOT
TORSDOF 0
ENDMDL
MODEL 4
REMARK VINA RESULT:      -6.2      2.913      3.583
REMARK  Name = 
REMARK  0 active torsions:
REMARK  status: ('A' for Active; 'I' for Inactive)
REMARK                            x       y       z     vdW  Elec       q    Type
REMARK                         _______ _______ _______ _____ _____    ______ ____
ROOT
ATOM      1  O   UNL     1       7.970   5.453  13.581  0.00  0.00    +0.000 OA
ATOM      2  C   UNL     1       7.245   5.201  14.533  0.00  0.00    +0.000 A 
ATOM      3  C   UNL     1       6.048   4.335  14.368  0.00  0.00    +0.000 A 
ATOM      4  C   UNL     1       5.264   4.014  15.406  0.00  0.00    +0.000 A 
ATOM      5  C   UNL     1       5.598   4.492  16.748  0.00  0.00    +0.000 A 
ATOM      6  C   UNL     1       4.864   4.100  17.873  0.00  0.00    +0.000 A 
ATOM      7  C   UNL     1       5.245   4.533  19.147  0.00  0.00    +0.000 A 
ATOM      8  C   UNL     1       6.336   5.392  19.299  0.00  0.00    +0.000 A 
ATOM      9  C   UNL     1       7.049   5.802  18.177  0.00  0.00    +0.000 A 
ATOM     10  F   UNL     1       8.093   6.629  18.329  0.00  0.00    +0.000 F 
ATOM     11  C   UNL     1       6.702   5.341  16.909  0.00  0.00    +0.000 A 
ATOM     12  N   UNL     1       7.478   5.686  15.791  0.00  0.00    +0.000 N 
ATOM     13  H   UNL     1       8.292   6.274  15.915  0.00  0.00    +0.000 HD
ENDROOT
TORSDOF 0
ENDMDL
MODEL 5
REMARK VINA RESULT:      -6.2      1.774      2.645
REMARK  Name = 
REMARK  0 active torsions:
REMARK  status: ('A' for Active; 'I' for Inactive)
REMARK                            x       y       z     vdW  Elec       q    Type
REMARK                         _______ _______ _______ _____ _____    ______ ____
ROOT
ATOM      1  O   UNL     1       7.050   4.431  18.353  0.00  0.00    +0.000 OA
ATOM      2  C   UNL     1       5.874   4.377  18.685  0.00  0.00    +0.000 A 
ATOM      3  C   UNL     1       5.156   5.597  19.141  0.00  0.00    +0.000 A 
ATOM      4  C   UNL     1       3.857   5.566  19.470  0.00  0.00    +0.000 A 
ATOM      5  C   UNL     1       3.104   4.317  19.351  0.00  0.00    +0.000 A 
ATOM      6  C   UNL     1       1.726   4.264  19.589  0.00  0.00    +0.000 A 
ATOM      7  C   UNL     1       1.028   3.064  19.413  0.00  0.00    +0.000 A 
ATOM      8  C   UNL     1       1.711   1.904  19.039  0.00  0.00    +0.000 A 
ATOM      9  C   UNL     1       3.085   1.953  18.829  0.00  0.00    +0.000 A 
ATOM     10  F   UNL     1       3.734   0.835  18.473  0.00  0.00    +0.000 F 
ATOM     11  C   UNL     1       3.780   3.153  18.960  0.00  0.00    +0.000 A 
ATOM     12  N   UNL     1       5.150   3.216  18.661  0.00  0.00    +0.000 N 
ATOM     13  H   UNL     1       5.629   2.381  18.349  0.00  0.00    +0.000 HD
ENDROOT
TORSDOF 0
ENDMDL
MODEL 6
REMARK VINA RESULT:      -6.1      2.375      3.710
REMARK  Name = 
REMARK  0 active torsions:
REMARK  status: ('A' for Active; 'I' for Inactive)
REMARK                            x       y       z     vdW  Elec       q    Type
REMARK                         _______ _______ _______ _____ _____    ______ ____
ROOT
ATOM      1  O   UNL     1       4.242   2.503  19.786  0.00  0.00    +0.000 OA
ATOM      2  C   UNL     1       4.634   3.441  19.108  0.00  0.00    +0.000 A 
ATOM      3  C   UNL     1       3.799   3.982  18.003  0.00  0.00    +0.000 A 
ATOM      4  C   UNL     1       4.193   5.035  17.274  0.00  0.00    +0.000 A 
ATOM      5  C   UNL     1       5.459   5.702  17.581  0.00  0.00    +0.000 A 
ATOM      6  C   UNL     1       5.860   6.863  16.912  0.00  0.00    +0.000 A 
ATOM      7  C   UNL     1       7.050   7.506  17.269  0.00  0.00    +0.000 A 
ATOM      8  C   UNL     1       7.864   6.968  18.268  0.00  0.00    +0.000 A 
ATOM      9  C   UNL     1       7.476   5.800  18.915  0.00  0.00    +0.000 A 
ATOM     10  F   UNL     1       8.264   5.287  19.872  0.00  0.00    +0.000 F 
ATOM     11  C   UNL     1       6.272   5.178  18.595  0.00  0.00    +0.000 A 
ATOM     12  N   UNL     1       5.843   4.049  19.311  0.00  0.00    +0.000 N 
ATOM     13  H   UNL     1       6.418   3.691  20.063  0.00  0.00    +0.000 HD
ENDROOT
TORSDOF 0
ENDMDL
MODEL 7
REMARK VINA RESULT:      -6.0      2.008      3.053
REMARK  Name = 
REMARK  0 active torsions:
REMARK  status: ('A' for Active; 'I' for Inactive)
REMARK                            x       y       z     vdW  Elec       q    Type
REMARK                         _______ _______ _______ _____ _____    ______ ____
ROOT
ATOM      1  O   UNL     1       5.932   4.155  16.910  0.00  0.00    +0.000 OA
ATOM      2  C   UNL     1       4.950   4.224  17.635  0.00  0.00    +0.000 A 
ATOM      3  C   UNL     1       3.826   5.141  17.307  0.00  0.00    +0.000 A 
ATOM      4  C   UNL     1       2.724   5.202  18.067  0.00  0.00    +0.000 A 
ATOM      5  C   UNL     1       2.593   4.329  19.234  0.00  0.00    +0.000 A 
ATOM      6  C   UNL     1       1.420   4.290  19.995  0.00  0.00    +0.000 A 
ATOM      7  C   UNL     1       1.309   3.403  21.072  0.00  0.00    +0.000 A 
ATOM      8  C   UNL     1       2.385   2.582  21.416  0.00  0.00    +0.000 A 
ATOM      9  C   UNL     1       3.560   2.640  20.674  0.00  0.00    +0.000 A 
ATOM     10  F   UNL     1       4.590   1.851  21.012  0.00  0.00    +0.000 F 
ATOM     11  C   UNL     1       3.662   3.489  19.575  0.00  0.00    +0.000 A 
ATOM     12  N   UNL     1       4.817   3.480  18.776  0.00  0.00    +0.000 N 
ATOM     13  H   UNL     1       5.575   2.851  19.007  0.00  0.00    +0.000 HD
ENDROOT
TORSDOF 0
ENDMDL
MODEL 8
REMARK VINA RESULT:      -6.0      2.156      3.612
REMARK  Name = 
REMARK  0 active torsions:
REMARK  status: ('A' for Active; 'I' for Inactive)
REMARK                            x       y       z     vdW  Elec       q    Type
REMARK                         _______ _______ _______ _____ _____    ______ ____
ROOT
ATOM      1  O   UNL     1       4.407   2.099  20.313  0.00  0.00    +0.000 OA
ATOM      2  C   UNL     1       4.501   3.090  19.602  0.00  0.00    +0.000 A 
ATOM      3  C   UNL     1       3.308   3.924  19.298  0.00  0.00    +0.000 A 
ATOM      4  C   UNL     1       3.398   5.035  18.554  0.00  0.00    +0.000 A 
ATOM      5  C   UNL     1       4.700   5.470  18.047  0.00  0.00    +0.000 A 
ATOM      6  C   UNL     1       4.853   6.674  17.352  0.00  0.00    +0.000 A 
ATOM      7  C   UNL     1       6.122   7.086  16.929  0.00  0.00    +0.000 A 
ATOM      8  C   UNL     1       7.235   6.277  17.164  0.00  0.00    +0.000 A 
ATOM      9  C   UNL     1       7.077   5.067  17.833  0.00  0.00    +0.000 A 
ATOM     10  F   UNL     1       8.150   4.293  18.052  0.00  0.00    +0.000 F 
ATOM     11  C   UNL     1       5.825   4.671  18.294  0.00  0.00    +0.000 A 
ATOM     12  N   UNL     1       5.684   3.493  19.045  0.00  0.00    +0.000 N 
ATOM     13  H   UNL     1       6.503   2.934  19.248  0.00  0.00    +0.000 HD
ENDROOT
TORSDOF 0
ENDMDL
MODEL 9
REMARK VINA RESULT:      -6.0      2.244      3.069
REMARK  Name = 
REMARK  0 active torsions:
REMARK  status: ('A' for Active; 'I' for Inactive)
REMARK                            x       y       z     vdW  Elec       q    Type
REMARK                         _______ _______ _______ _____ _____    ______ ____
ROOT
ATOM      1  O   UNL     1       6.396   5.634  19.059  0.00  0.00    +0.000 OA
ATOM      2  C   UNL     1       5.365   5.028  18.806  0.00  0.00    +0.000 A 
ATOM      3  C   UNL     1       5.191   4.334  17.503  0.00  0.00    +0.000 A 
ATOM      4  C   UNL     1       4.085   3.632  17.222  0.00  0.00    +0.000 A 
ATOM      5  C   UNL     1       3.027   3.506  18.224  0.00  0.00    +0.000 A 
ATOM      6  C   UNL     1       1.902   2.701  18.010  0.00  0.00    +0.000 A 
ATOM      7  C   UNL     1       0.936   2.561  19.013  0.00  0.00    +0.000 A 
ATOM      8  C   UNL     1       1.069   3.256  20.216  0.00  0.00    +0.000 A 
ATOM      9  C   UNL     1       2.175   4.076  20.418  0.00  0.00    +0.000 A 
ATOM     10  F   UNL     1       2.295   4.743  21.575  0.00  0.00    +0.000 F 
ATOM     11  C   UNL     1       3.162   4.187  19.442  0.00  0.00    +0.000 A 
ATOM     12  N   UNL     1       4.318   4.945  19.685  0.00  0.00    +0.000 N 
ATOM     13  H   UNL     1       4.428   5.412  20.576  0.00  0.00    +0.000 HD
ENDROOT
TORSDOF 0
ENDMDL
