MODEL 1
REMARK VINA RESULT:      -7.4      0.000      0.000
REMARK  Name = 
REMARK  9 active torsions:
REMARK  status: ('A' for Active; 'I' for Inactive)
REMARK    1  A    between atoms: C_1  and  C_2
REMARK    2  A    between atoms: N_3  and  C_4
REMARK    3  A    between atoms: C_4  and  C_5
REMARK    4  A    between atoms: C_5  and  C_7
REMARK    5  A    between atoms: C_10  and  N_11
REMARK    6  A    between atoms: N_18  and  C_19
REMARK    7  A    between atoms: C_19  and  C_20
REMARK    8  A    between atoms: C_20  and  C_21
REMARK    9  A    between atoms: C_20  and  C_22
REMARK                            x       y       z     vdW  Elec       q    Type
REMARK                         _______ _______ _______ _____ _____    ______ ____
ROOT
ATOM      1  C   UNL     1       0.717   9.522  17.744  0.00  0.00    +0.000 C 
ATOM      2  C   UNL     1      -0.093  10.226  18.790  0.00  0.00    +0.000 A 
ATOM      3  N   UNL     1       0.159  10.256  20.118  0.00  0.00    +0.000 N 
ATOM      4  C   UNL     1      -0.786  11.058  20.768  0.00  0.00    +0.000 A 
ATOM      5  C   UNL     1      -1.597  11.587  19.799  0.00  0.00    +0.000 A 
ATOM      6  N   UNL     1      -1.197  10.990  18.585  0.00  0.00    +0.000 N 
ATOM      7  C   UNL     1      -2.617  12.567  20.069  0.00  0.00    +0.000 C 
ATOM      8  O   UNL     1      -3.405  13.070  19.273  0.00  0.00    +0.000 OA
ATOM      9  C   UNL     1      -2.646  13.034  21.493  0.00  0.00    +0.000 A 
ATOM     10  C   UNL     1      -3.508  14.079  21.855  0.00  0.00    +0.000 A 
ATOM     11  C   UNL     1      -3.522  14.562  23.168  0.00  0.00    +0.000 A 
ATOM     12  C   UNL     1      -2.672  14.019  24.127  0.00  0.00    +0.000 A 
ATOM     13  C   UNL     1      -1.820  12.972  23.784  0.00  0.00    +0.000 A 
ATOM     14  C   UNL     1      -1.813  12.468  22.474  0.00  0.00    +0.000 A 
ATOM     15  C   UNL     1      -0.901  11.335  22.167  0.00  0.00    +0.000 C 
ATOM     16  O   UNL     1      -0.333  10.765  23.095  0.00  0.00    +0.000 OA
ENDROOT
BRANCH   3  17
ATOM     17  C   UNL     1       1.269   9.520  20.795  0.00  0.00    +0.000 C 
BRANCH  17  18
ATOM     18  C   UNL     1       0.908   8.064  21.045  0.00  0.00    +0.000 C 
ATOM     19  O   UNL     1      -0.089   7.741  21.690  0.00  0.00    +0.000 OA
BRANCH  18  20
ATOM     20  C   UNL     1       1.786   6.999  20.481  0.00  0.00    +0.000 A 
ATOM     21  C   UNL     1       1.638   5.699  20.984  0.00  0.00    +0.000 A 
ATOM     22  C   UNL     1       2.404   4.646  20.475  0.00  0.00    +0.000 A 
ATOM     23  C   UNL     1       3.319   4.893  19.446  0.00  0.00    +0.000 A 
ATOM     24  C   UNL     1       3.475   6.190  18.933  0.00  0.00    +0.000 A 
ATOM     25  C   UNL     1       2.711   7.245  19.454  0.00  0.00    +0.000 A 
BRANCH  23  26
ATOM     26  N   UNL     1       4.106   3.785  18.888  0.00  0.00    +0.000 N 
ATOM     27  O   UNL     1       3.555   3.051  18.057  0.00  0.00    +0.000 OA
ATOM     28  O   UNL     1       5.274   3.658  19.281  0.00  0.00    +0.000 OA
ENDBRANCH  23  26
ENDBRANCH  18  20
ENDBRANCH  17  18
ENDBRANCH   3  17
BRANCH   6  29
ATOM     29  C   UNL     1      -1.857  11.213  17.263  0.00  0.00    +0.000 C 
BRANCH  29  30
ATOM     30  C   UNL     1      -2.617   9.992  16.716  0.00  0.00    +0.000 C 
ATOM     31  C   UNL     1      -3.817   9.607  17.579  0.00  0.00    +0.000 C 
ATOM     32  C   UNL     1      -3.086  10.248  15.279  0.00  0.00    +0.000 C 
ENDBRANCH  29  30
ENDBRANCH   6  29
TORSDOF 6
ENDMDL
MODEL 2
REMARK VINA RESULT:      -7.4      0.136      1.025
REMARK  Name = 
REMARK  9 active torsions:
REMARK  status: ('A' for Active; 'I' for Inactive)
REMARK    1  A    between atoms: C_1  and  C_2
REMARK    2  A    between atoms: N_3  and  C_4
REMARK    3  A    between atoms: C_4  and  C_5
REMARK    4  A    between atoms: C_5  and  C_7
REMARK    5  A    between atoms: C_10  and  N_11
REMARK    6  A    between atoms: N_18  and  C_19
REMARK    7  A    between atoms: C_19  and  C_20
REMARK    8  A    between atoms: C_20  and  C_21
REMARK    9  A    between atoms: C_20  and  C_22
REMARK                            x       y       z     vdW  Elec       q    Type
REMARK                         _______ _______ _______ _____ _____    ______ ____
ROOT
ATOM      1  C   UNL     1       0.800   9.434  17.752  0.00  0.00    +0.000 C 
ATOM      2  C   UNL     1      -0.008  10.163  18.783  0.00  0.00    +0.000 A 
ATOM      3  N   UNL     1       0.232  10.202  20.113  0.00  0.00    +0.000 N 
ATOM      4  C   UNL     1      -0.703  11.027  20.746  0.00  0.00    +0.000 A 
ATOM      5  C   UNL     1      -1.495  11.562  19.764  0.00  0.00    +0.000 A 
ATOM      6  N   UNL     1      -1.095  10.945  18.560  0.00  0.00    +0.000 N 
ATOM      7  C   UNL     1      -2.500  12.563  20.014  0.00  0.00    +0.000 C 
ATOM      8  O   UNL     1      -3.271  13.072  19.205  0.00  0.00    +0.000 OA
ATOM      9  C   UNL     1      -2.533  13.045  21.434  0.00  0.00    +0.000 A 
ATOM     10  C   UNL     1      -3.379  14.110  21.776  0.00  0.00    +0.000 A 
ATOM     11  C   UNL     1      -3.397  14.606  23.084  0.00  0.00    +0.000 A 
ATOM     12  C   UNL     1      -2.565  14.057  24.056  0.00  0.00    +0.000 A 
ATOM     13  C   UNL     1      -1.730  12.991  23.733  0.00  0.00    +0.000 A 
ATOM     14  C   UNL     1      -1.720  12.473  22.428  0.00  0.00    +0.000 A 
ATOM     15  C   UNL     1      -0.826  11.321  22.141  0.00  0.00    +0.000 C 
ATOM     16  O   UNL     1      -0.278  10.749  23.080  0.00  0.00    +0.000 OA
ENDROOT
BRANCH   3  17
ATOM     17  C   UNL     1       1.322   9.452  20.808  0.00  0.00    +0.000 C 
BRANCH  17  18
ATOM     18  C   UNL     1       0.920   8.014  21.097  0.00  0.00    +0.000 C 
ATOM     19  O   UNL     1      -0.057   7.738  21.792  0.00  0.00    +0.000 OA
BRANCH  18  20
ATOM     20  C   UNL     1       1.732   6.910  20.510  0.00  0.00    +0.000 A 
ATOM     21  C   UNL     1       2.610   7.233  19.466  0.00  0.00    +0.000 A 
ATOM     22  C   UNL     1       3.426   6.252  18.893  0.00  0.00    +0.000 A 
ATOM     23  C   UNL     1       3.373   4.940  19.377  0.00  0.00    +0.000 A 
ATOM     24  C   UNL     1       2.498   4.606  20.422  0.00  0.00    +0.000 A 
ATOM     25  C   UNL     1       1.674   5.591  20.986  0.00  0.00    +0.000 A 
BRANCH  23  26
ATOM     26  N   UNL     1       4.249   3.913  18.797  0.00  0.00    +0.000 N 
ATOM     27  O   UNL     1       5.355   3.738  19.326  0.00  0.00    +0.000 OA
ATOM     28  O   UNL     1       3.823   3.284  17.820  0.00  0.00    +0.000 OA
ENDBRANCH  23  26
ENDBRANCH  18  20
ENDBRANCH  17  18
ENDBRANCH   3  17
BRANCH   6  29
ATOM     29  C   UNL     1      -1.738  11.167  17.229  0.00  0.00    +0.000 C 
BRANCH  29  30
ATOM     30  C   UNL     1      -2.534   9.962  16.698  0.00  0.00    +0.000 C 
ATOM     31  C   UNL     1      -3.710   9.586  17.597  0.00  0.00    +0.000 C 
ATOM     32  C   UNL     1      -3.047  10.239  15.279  0.00  0.00    +0.000 C 
ENDBRANCH  29  30
ENDBRANCH   6  29
TORSDOF 6
ENDMDL
MODEL 3
REMARK VINA RESULT:      -7.1      2.229      3.332
REMARK  Name = 
REMARK  9 active torsions:
REMARK  status: ('A' for Active; 'I' for Inactive)
REMARK    1  A    between atoms: C_1  and  C_2
REMARK    2  A    between atoms: N_3  and  C_4
REMARK    3  A    between atoms: C_4  and  C_5
REMARK    4  A    between atoms: C_5  and  C_7
REMARK    5  A    between atoms: C_10  and  N_11
REMARK    6  A    between atoms: N_18  and  C_19
REMARK    7  A    between atoms: C_19  and  C_20
REMARK    8  A    between atoms: C_20  and  C_21
REMARK    9  A    between atoms: C_20  and  C_22
REMARK                            x       y       z     vdW  Elec       q    Type
REMARK                         _______ _______ _______ _____ _____    ______ ____
ROOT
ATOM      1  C   UNL     1      -2.646  11.440  18.282  0.00  0.00    +0.000 C 
ATOM      2  C   UNL     1      -2.746  12.113  19.617  0.00  0.00    +0.000 A 
ATOM      3  N   UNL     1      -1.740  12.298  20.502  0.00  0.00    +0.000 N 
ATOM      4  C   UNL     1      -2.202  13.013  21.612  0.00  0.00    +0.000 A 
ATOM      5  C   UNL     1      -3.512  13.332  21.366  0.00  0.00    +0.000 A 
ATOM      6  N   UNL     1      -3.850  12.691  20.156  0.00  0.00    +0.000 N 
ATOM      7  C   UNL     1      -4.297  14.178  22.229  0.00  0.00    +0.000 C 
ATOM      8  O   UNL     1      -5.477  14.490  22.103  0.00  0.00    +0.000 OA
ATOM      9  C   UNL     1      -3.521  14.762  23.371  0.00  0.00    +0.000 A 
ATOM     10  C   UNL     1      -4.138  15.703  24.208  0.00  0.00    +0.000 A 
ATOM     11  C   UNL     1      -3.422  16.295  25.254  0.00  0.00    +0.000 A 
ATOM     12  C   UNL     1      -2.086  15.967  25.468  0.00  0.00    +0.000 A 
ATOM     13  C   UNL     1      -1.465  15.025  24.652  0.00  0.00    +0.000 A 
ATOM     14  C   UNL     1      -2.181  14.411  23.612  0.00  0.00    +0.000 A 
ATOM     15  C   UNL     1      -1.477  13.396  22.785  0.00  0.00    +0.000 C 
ATOM     16  O   UNL     1      -0.374  12.998  23.148  0.00  0.00    +0.000 OA
ENDROOT
BRANCH   3  17
ATOM     17  C   UNL     1      -0.345  11.791  20.330  0.00  0.00    +0.000 C 
BRANCH  17  18
ATOM     18  C   UNL     1      -0.185  10.384  20.885  0.00  0.00    +0.000 C 
ATOM     19  O   UNL     1      -0.750  10.022  21.916  0.00  0.00    +0.000 OA
BRANCH  18  20
ATOM     20  C   UNL     1       0.674   9.414  20.147  0.00  0.00    +0.000 A 
ATOM     21  C   UNL     1       0.955   9.688  18.800  0.00  0.00    +0.000 A 
ATOM     22  C   UNL     1       1.783   8.839  18.059  0.00  0.00    +0.000 A 
ATOM     23  C   UNL     1       2.344   7.714  18.672  0.00  0.00    +0.000 A 
ATOM     24  C   UNL     1       2.071   7.431  20.020  0.00  0.00    +0.000 A 
ATOM     25  C   UNL     1       1.231   8.280  20.756  0.00  0.00    +0.000 A 
BRANCH  23  26
ATOM     26  N   UNL     1       3.237   6.834  17.905  0.00  0.00    +0.000 N 
ATOM     27  O   UNL     1       3.088   5.612  18.036  0.00  0.00    +0.000 OA
ATOM     28  O   UNL     1       4.079   7.371  17.174  0.00  0.00    +0.000 OA
ENDBRANCH  23  26
ENDBRANCH  18  20
ENDBRANCH  17  18
ENDBRANCH   3  17
BRANCH   6  29
ATOM     29  C   UNL     1      -5.209  12.698  19.534  0.00  0.00    +0.000 C 
BRANCH  29  30
ATOM     30  C   UNL     1      -6.024  11.415  19.770  0.00  0.00    +0.000 C 
ATOM     31  C   UNL     1      -7.148  11.606  20.787  0.00  0.00    +0.000 C 
ATOM     32  C   UNL     1      -6.614  10.900  18.452  0.00  0.00    +0.000 C 
ENDBRANCH  29  30
ENDBRANCH   6  29
TORSDOF 6
ENDMDL
MODEL 4
REMARK VINA RESULT:      -6.9      1.417      4.515
REMARK  Name = 
REMARK  9 active torsions:
REMARK  status: ('A' for Active; 'I' for Inactive)
REMARK    1  A    between atoms: C_1  and  C_2
REMARK    2  A    between atoms: N_3  and  C_4
REMARK    3  A    between atoms: C_4  and  C_5
REMARK    4  A    between atoms: C_5  and  C_7
REMARK    5  A    between atoms: C_10  and  N_11
REMARK    6  A    between atoms: N_18  and  C_19
REMARK    7  A    between atoms: C_19  and  C_20
REMARK    8  A    between atoms: C_20  and  C_21
REMARK    9  A    between atoms: C_20  and  C_22
REMARK                            x       y       z     vdW  Elec       q    Type
REMARK                         _______ _______ _______ _____ _____    ______ ____
ROOT
ATOM      1  C   UNL     1      -0.461  11.541  22.930  0.00  0.00    +0.000 C 
ATOM      2  C   UNL     1      -0.950  11.472  21.514  0.00  0.00    +0.000 A 
ATOM      3  N   UNL     1      -0.413  10.740  20.513  0.00  0.00    +0.000 N 
ATOM      4  C   UNL     1      -1.173  10.888  19.348  0.00  0.00    +0.000 A 
ATOM      5  C   UNL     1      -2.244  11.682  19.667  0.00  0.00    +0.000 A 
ATOM      6  N   UNL     1      -2.038  12.099  20.999  0.00  0.00    +0.000 N 
ATOM      7  C   UNL     1      -3.323  11.960  18.755  0.00  0.00    +0.000 C 
ATOM      8  O   UNL     1      -4.300  12.679  18.944  0.00  0.00    +0.000 OA
ATOM      9  C   UNL     1      -3.221  11.220  17.455  0.00  0.00    +0.000 A 
ATOM     10  C   UNL     1      -4.276  11.305  16.533  0.00  0.00    +0.000 A 
ATOM     11  C   UNL     1      -4.224  10.590  15.332  0.00  0.00    +0.000 A 
ATOM     12  C   UNL     1      -3.133   9.776  15.044  0.00  0.00    +0.000 A 
ATOM     13  C   UNL     1      -2.074   9.692  15.944  0.00  0.00    +0.000 A 
ATOM     14  C   UNL     1      -2.107  10.421  17.143  0.00  0.00    +0.000 A 
ATOM     15  C   UNL     1      -0.942  10.313  18.059  0.00  0.00    +0.000 C 
ATOM     16  O   UNL     1       0.074   9.750  17.659  0.00  0.00    +0.000 OA
ENDROOT
BRANCH   3  17
ATOM     17  C   UNL     1       0.826   9.912  20.627  0.00  0.00    +0.000 C 
BRANCH  17  18
ATOM     18  C   UNL     1       0.503   8.450  20.895  0.00  0.00    +0.000 C 
ATOM     19  O   UNL     1      -0.488   8.109  21.540  0.00  0.00    +0.000 OA
BRANCH  18  20
ATOM     20  C   UNL     1       1.411   7.402  20.348  0.00  0.00    +0.000 A 
ATOM     21  C   UNL     1       2.194   7.737  19.234  0.00  0.00    +0.000 A 
ATOM     22  C   UNL     1       3.093   6.813  18.692  0.00  0.00    +0.000 A 
ATOM     23  C   UNL     1       3.219   5.548  19.275  0.00  0.00    +0.000 A 
ATOM     24  C   UNL     1       2.440   5.201  20.390  0.00  0.00    +0.000 A 
ATOM     25  C   UNL     1       1.533   6.128  20.924  0.00  0.00    +0.000 A 
BRANCH  23  26
ATOM     26  N   UNL     1       4.182   4.583  18.726  0.00  0.00    +0.000 N 
ATOM     27  O   UNL     1       4.027   4.224  17.551  0.00  0.00    +0.000 OA
ATOM     28  O   UNL     1       5.090   4.194  19.473  0.00  0.00    +0.000 OA
ENDBRANCH  23  26
ENDBRANCH  18  20
ENDBRANCH  17  18
ENDBRANCH   3  17
BRANCH   6  29
ATOM     29  C   UNL     1      -2.922  13.044  21.746  0.00  0.00    +0.000 C 
BRANCH  29  30
ATOM     30  C   UNL     1      -4.032  12.364  22.568  0.00  0.00    +0.000 C 
ATOM     31  C   UNL     1      -3.820  12.499  24.074  0.00  0.00    +0.000 C 
ATOM     32  C   UNL     1      -5.405  12.935  22.195  0.00  0.00    +0.000 C 
ENDBRANCH  29  30
ENDBRANCH   6  29
TORSDOF 6
ENDMDL
MODEL 5
REMARK VINA RESULT:      -6.9      1.662      2.095
REMARK  Name = 
REMARK  9 active torsions:
REMARK  status: ('A' for Active; 'I' for Inactive)
REMARK    1  A    between atoms: C_1  and  C_2
REMARK    2  A    between atoms: N_3  and  C_4
REMARK    3  A    between atoms: C_4  and  C_5
REMARK    4  A    between atoms: C_5  and  C_7
REMARK    5  A    between atoms: C_10  and  N_11
REMARK    6  A    between atoms: N_18  and  C_19
REMARK    7  A    between atoms: C_19  and  C_20
REMARK    8  A    between atoms: C_20  and  C_21
REMARK    9  A    between atoms: C_20  and  C_22
REMARK                            x       y       z     vdW  Elec       q    Type
REMARK                         _______ _______ _______ _____ _____    ______ ____
ROOT
ATOM      1  C   UNL     1      -1.270   9.645  17.365  0.00  0.00    +0.000 C 
ATOM      2  C   UNL     1      -1.518  10.592  18.500  0.00  0.00    +0.000 A 
ATOM      3  N   UNL     1      -0.594  11.076  19.360  0.00  0.00    +0.000 N 
ATOM      4  C   UNL     1      -1.191  11.975  20.251  0.00  0.00    +0.000 A 
ATOM      5  C   UNL     1      -2.505  12.093  19.881  0.00  0.00    +0.000 A 
ATOM      6  N   UNL     1      -2.703  11.160  18.840  0.00  0.00    +0.000 N 
ATOM      7  C   UNL     1      -3.418  13.027  20.486  0.00  0.00    +0.000 C 
ATOM      8  O   UNL     1      -4.611  13.179  20.240  0.00  0.00    +0.000 OA
ATOM      9  C   UNL     1      -2.775  13.934  21.493  0.00  0.00    +0.000 A 
ATOM     10  C   UNL     1      -3.528  14.973  22.059  0.00  0.00    +0.000 A 
ATOM     11  C   UNL     1      -2.940  15.859  22.968  0.00  0.00    +0.000 A 
ATOM     12  C   UNL     1      -1.597  15.727  23.310  0.00  0.00    +0.000 A 
ATOM     13  C   UNL     1      -0.841  14.693  22.765  0.00  0.00    +0.000 A 
ATOM     14  C   UNL     1      -1.428  13.787  21.868  0.00  0.00    +0.000 A 
ATOM     15  C   UNL     1      -0.583  12.688  21.332  0.00  0.00    +0.000 C 
ATOM     16  O   UNL     1       0.526  12.500  21.826  0.00  0.00    +0.000 OA
ENDROOT
BRANCH   3  17
ATOM     17  C   UNL     1       0.850  10.690  19.373  0.00  0.00    +0.000 C 
BRANCH  17  18
ATOM     18  C   UNL     1       1.074   9.376  20.104  0.00  0.00    +0.000 C 
ATOM     19  O   UNL     1       0.628   9.174  21.233  0.00  0.00    +0.000 OA
BRANCH  18  20
ATOM     20  C   UNL     1       1.850   8.299  19.424  0.00  0.00    +0.000 A 
ATOM     21  C   UNL     1       2.316   8.554  18.126  0.00  0.00    +0.000 A 
ATOM     22  C   UNL     1       3.079   7.601  17.444  0.00  0.00    +0.000 A 
ATOM     23  C   UNL     1       3.390   6.389  18.069  0.00  0.00    +0.000 A 
ATOM     24  C   UNL     1       2.929   6.123  19.368  0.00  0.00    +0.000 A 
ATOM     25  C   UNL     1       2.155   7.078  20.044  0.00  0.00    +0.000 A 
BRANCH  23  26
ATOM     26  N   UNL     1       4.215   5.396  17.368  0.00  0.00    +0.000 N 
ATOM     27  O   UNL     1       3.703   4.297  17.120  0.00  0.00    +0.000 OA
ATOM     28  O   UNL     1       5.370   5.724  17.065  0.00  0.00    +0.000 OA
ENDBRANCH  23  26
ENDBRANCH  18  20
ENDBRANCH  17  18
ENDBRANCH   3  17
BRANCH   6  29
ATOM     29  C   UNL     1      -4.013  10.886  18.175  0.00  0.00    +0.000 C 
BRANCH  29  30
ATOM     30  C   UNL     1      -4.298  11.763  16.944  0.00  0.00    +0.000 C 
ATOM     31  C   UNL     1      -4.069  11.027  15.626  0.00  0.00    +0.000 C 
ATOM     32  C   UNL     1      -5.735  12.298  16.984  0.00  0.00    +0.000 C 
ENDBRANCH  29  30
ENDBRANCH   6  29
TORSDOF 6
ENDMDL
MODEL 6
REMARK VINA RESULT:      -6.9      2.632      9.500
REMARK  Name = 
REMARK  9 active torsions:
REMARK  status: ('A' for Active; 'I' for Inactive)
REMARK    1  A    between atoms: C_1  and  C_2
REMARK    2  A    between atoms: N_3  and  C_4
REMARK    3  A    between atoms: C_4  and  C_5
REMARK    4  A    between atoms: C_5  and  C_7
REMARK    5  A    between atoms: C_10  and  N_11
REMARK    6  A    between atoms: N_18  and  C_19
REMARK    7  A    between atoms: C_19  and  C_20
REMARK    8  A    between atoms: C_20  and  C_21
REMARK    9  A    between atoms: C_20  and  C_22
REMARK                            x       y       z     vdW  Elec       q    Type
REMARK                         _______ _______ _______ _____ _____    ______ ____
ROOT
ATOM      1  C   UNL     1       1.404   7.648  21.232  0.00  0.00    +0.000 C 
ATOM      2  C   UNL     1       2.166   7.025  20.102  0.00  0.00    +0.000 A 
ATOM      3  N   UNL     1       2.562   7.638  18.964  0.00  0.00    +0.000 N 
ATOM      4  C   UNL     1       3.297   6.750  18.171  0.00  0.00    +0.000 A 
ATOM      5  C   UNL     1       3.410   5.581  18.877  0.00  0.00    +0.000 A 
ATOM      6  N   UNL     1       2.628   5.750  20.040  0.00  0.00    +0.000 N 
ATOM      7  C   UNL     1       4.207   4.464  18.440  0.00  0.00    +0.000 C 
ATOM      8  O   UNL     1       4.341   3.375  18.989  0.00  0.00    +0.000 OA
ATOM      9  C   UNL     1       4.988   4.733  17.188  0.00  0.00    +0.000 A 
ATOM     10  C   UNL     1       5.901   3.772  16.730  0.00  0.00    +0.000 A 
ATOM     11  C   UNL     1       6.672   4.017  15.589  0.00  0.00    +0.000 A 
ATOM     12  C   UNL     1       6.552   5.223  14.903  0.00  0.00    +0.000 A 
ATOM     13  C   UNL     1       5.640   6.180  15.339  0.00  0.00    +0.000 A 
ATOM     14  C   UNL     1       4.848   5.935  16.472  0.00  0.00    +0.000 A 
ATOM     15  C   UNL     1       3.875   6.981  16.882  0.00  0.00    +0.000 C 
ATOM     16  O   UNL     1       3.666   7.925  16.125  0.00  0.00    +0.000 OA
ENDROOT
BRANCH   3  17
ATOM     17  C   UNL     1       2.242   9.050  18.596  0.00  0.00    +0.000 C 
BRANCH  17  18
ATOM     18  C   UNL     1       0.823   9.185  18.066  0.00  0.00    +0.000 C 
ATOM     19  O   UNL     1       0.395   8.470  17.160  0.00  0.00    +0.000 OA
BRANCH  18  20
ATOM     20  C   UNL     1      -0.076  10.208  18.672  0.00  0.00    +0.000 A 
ATOM     21  C   UNL     1      -1.326  10.414  18.070  0.00  0.00    +0.000 A 
ATOM     22  C   UNL     1      -2.233  11.333  18.607  0.00  0.00    +0.000 A 
ATOM     23  C   UNL     1      -1.892  12.044  19.763  0.00  0.00    +0.000 A 
ATOM     24  C   UNL     1      -0.644  11.846  20.374  0.00  0.00    +0.000 A 
ATOM     25  C   UNL     1       0.266  10.930  19.825  0.00  0.00    +0.000 A 
BRANCH  23  26
ATOM     26  N   UNL     1      -2.852  12.990  20.347  0.00  0.00    +0.000 N 
ATOM     27  O   UNL     1      -4.034  12.629  20.431  0.00  0.00    +0.000 OA
ATOM     28  O   UNL     1      -2.418  14.087  20.723  0.00  0.00    +0.000 OA
ENDBRANCH  23  26
ENDBRANCH  18  20
ENDBRANCH  17  18
ENDBRANCH   3  17
BRANCH   6  29
ATOM     29  C   UNL     1       2.394   4.697  21.074  0.00  0.00    +0.000 C 
BRANCH  29  30
ATOM     30  C   UNL     1       1.146   3.830  20.830  0.00  0.00    +0.000 C 
ATOM     31  C   UNL     1       0.922   3.518  19.352  0.00  0.00    +0.000 C 
ATOM     32  C   UNL     1       1.238   2.518  21.619  0.00  0.00    +0.000 C 
ENDBRANCH  29  30
ENDBRANCH   6  29
TORSDOF 6
ENDMDL
MODEL 7
REMARK VINA RESULT:      -6.8      1.822      2.656
REMARK  Name = 
REMARK  9 active torsions:
REMARK  status: ('A' for Active; 'I' for Inactive)
REMARK    1  A    between atoms: C_1  and  C_2
REMARK    2  A    between atoms: N_3  and  C_4
REMARK    3  A    between atoms: C_4  and  C_5
REMARK    4  A    between atoms: C_5  and  C_7
REMARK    5  A    between atoms: C_10  and  N_11
REMARK    6  A    between atoms: N_18  and  C_19
REMARK    7  A    between atoms: C_19  and  C_20
REMARK    8  A    between atoms: C_20  and  C_21
REMARK    9  A    between atoms: C_20  and  C_22
REMARK                            x       y       z     vdW  Elec       q    Type
REMARK                         _______ _______ _______ _____ _____    ______ ____
ROOT
ATOM      1  C   UNL     1      -1.639  11.011  17.799  0.00  0.00    +0.000 C 
ATOM      2  C   UNL     1      -2.052  11.656  19.088  0.00  0.00    +0.000 A 
ATOM      3  N   UNL     1      -1.276  11.844  20.178  0.00  0.00    +0.000 N 
ATOM      4  C   UNL     1      -1.993  12.527  21.167  0.00  0.00    +0.000 A 
ATOM      5  C   UNL     1      -3.221  12.825  20.637  0.00  0.00    +0.000 A 
ATOM      6  N   UNL     1      -3.263  12.200  19.373  0.00  0.00    +0.000 N 
ATOM      7  C   UNL     1      -4.200  13.637  21.313  0.00  0.00    +0.000 C 
ATOM      8  O   UNL     1      -5.330  13.927  20.930  0.00  0.00    +0.000 OA
ATOM      9  C   UNL     1      -3.715  14.214  22.609  0.00  0.00    +0.000 A 
ATOM     10  C   UNL     1      -4.527  15.126  23.299  0.00  0.00    +0.000 A 
ATOM     11  C   UNL     1      -4.080  15.712  24.488  0.00  0.00    +0.000 A 
ATOM     12  C   UNL     1      -2.818  15.407  24.992  0.00  0.00    +0.000 A 
ATOM     13  C   UNL     1      -2.007  14.494  24.323  0.00  0.00    +0.000 A 
ATOM     14  C   UNL     1      -2.455  13.886  23.140  0.00  0.00    +0.000 A 
ATOM     15  C   UNL     1      -1.559  12.903  22.478  0.00  0.00    +0.000 C 
ATOM     16  O   UNL     1      -0.556  12.520  23.075  0.00  0.00    +0.000 OA
ENDROOT
BRANCH   3  17
ATOM     17  C   UNL     1       0.134  11.370  20.318  0.00  0.00    +0.000 C 
BRANCH  17  18
ATOM     18  C   UNL     1       0.198   9.915  20.758  0.00  0.00    +0.000 C 
ATOM     19  O   UNL     1      -0.434   9.500  21.729  0.00  0.00    +0.000 OA
BRANCH  18  20
ATOM     20  C   UNL     1       1.043   8.965  19.980  0.00  0.00    +0.000 A 
ATOM     21  C   UNL     1       1.377   9.319  18.664  0.00  0.00    +0.000 A 
ATOM     22  C   UNL     1       2.196   8.492  17.890  0.00  0.00    +0.000 A 
ATOM     23  C   UNL     1       2.695   7.306  18.440  0.00  0.00    +0.000 A 
ATOM     24  C   UNL     1       2.368   6.942  19.755  0.00  0.00    +0.000 A 
ATOM     25  C   UNL     1       1.538   7.770  20.524  0.00  0.00    +0.000 A 
BRANCH  23  26
ATOM     26  N   UNL     1       3.579   6.446  17.640  0.00  0.00    +0.000 N 
ATOM     27  O   UNL     1       4.468   6.997  16.977  0.00  0.00    +0.000 OA
ATOM     28  O   UNL     1       3.380   5.225  17.682  0.00  0.00    +0.000 OA
ENDBRANCH  23  26
ENDBRANCH  18  20
ENDBRANCH  17  18
ENDBRANCH   3  17
BRANCH   6  29
ATOM     29  C   UNL     1      -4.447  12.192  18.461  0.00  0.00    +0.000 C 
BRANCH  29  30
ATOM     30  C   UNL     1      -5.507  11.131  18.804  0.00  0.00    +0.000 C 
ATOM     31  C   UNL     1      -6.907  11.516  18.329  0.00  0.00    +0.000 C 
ATOM     32  C   UNL     1      -5.124   9.772  18.205  0.00  0.00    +0.000 C 
ENDBRANCH  29  30
ENDBRANCH   6  29
TORSDOF 6
ENDMDL
MODEL 8
REMARK VINA RESULT:      -6.8      2.828      9.680
REMARK  Name = 
REMARK  9 active torsions:
REMARK  status: ('A' for Active; 'I' for Inactive)
REMARK    1  A    between atoms: C_1  and  C_2
REMARK    2  A    between atoms: N_3  and  C_4
REMARK    3  A    between atoms: C_4  and  C_5
REMARK    4  A    between atoms: C_5  and  C_7
REMARK    5  A    between atoms: C_10  and  N_11
REMARK    6  A    between atoms: N_18  and  C_19
REMARK    7  A    between atoms: C_19  and  C_20
REMARK    8  A    between atoms: C_20  and  C_21
REMARK    9  A    between atoms: C_20  and  C_22
REMARK                            x       y       z     vdW  Elec       q    Type
REMARK                         _______ _______ _______ _____ _____    ______ ____
ROOT
ATOM      1  C   UNL     1       1.092   5.793  20.950  0.00  0.00    +0.000 C 
ATOM      2  C   UNL     1       1.924   5.567  19.724  0.00  0.00    +0.000 A 
ATOM      3  N   UNL     1       2.688   6.484  19.090  0.00  0.00    +0.000 N 
ATOM      4  C   UNL     1       3.361   5.891  18.016  0.00  0.00    +0.000 A 
ATOM      5  C   UNL     1       3.049   4.556  18.037  0.00  0.00    +0.000 A 
ATOM      6  N   UNL     1       2.090   4.395  19.059  0.00  0.00    +0.000 N 
ATOM      7  C   UNL     1       3.652   3.588  17.157  0.00  0.00    +0.000 C 
ATOM      8  O   UNL     1       3.412   2.386  17.086  0.00  0.00    +0.000 OA
ATOM      9  C   UNL     1       4.728   4.155  16.281  0.00  0.00    +0.000 A 
ATOM     10  C   UNL     1       5.480   3.290  15.472  0.00  0.00    +0.000 A 
ATOM     11  C   UNL     1       6.518   3.789  14.678  0.00  0.00    +0.000 A 
ATOM     12  C   UNL     1       6.825   5.146  14.692  0.00  0.00    +0.000 A 
ATOM     13  C   UNL     1       6.079   6.018  15.481  0.00  0.00    +0.000 A 
ATOM     14  C   UNL     1       5.023   5.530  16.266  0.00  0.00    +0.000 A 
ATOM     15  C   UNL     1       4.244   6.505  17.073  0.00  0.00    +0.000 C 
ATOM     16  O   UNL     1       4.424   7.706  16.886  0.00  0.00    +0.000 OA
ENDROOT
BRANCH   3  17
ATOM     17  C   UNL     1       2.783   7.928  19.466  0.00  0.00    +0.000 C 
BRANCH  17  18
ATOM     18  C   UNL     1       1.617   8.731  18.910  0.00  0.00    +0.000 C 
ATOM     19  O   UNL     1       1.305   8.688  17.720  0.00  0.00    +0.000 OA
BRANCH  18  20
ATOM     20  C   UNL     1       0.826   9.587  19.840  0.00  0.00    +0.000 A 
ATOM     21  C   UNL     1       0.152  10.689  19.294  0.00  0.00    +0.000 A 
ATOM     22  C   UNL     1      -0.636  11.513  20.103  0.00  0.00    +0.000 A 
ATOM     23  C   UNL     1      -0.762  11.226  21.467  0.00  0.00    +0.000 A 
ATOM     24  C   UNL     1      -0.093  10.124  22.023  0.00  0.00    +0.000 A 
ATOM     25  C   UNL     1       0.705   9.307  21.209  0.00  0.00    +0.000 A 
BRANCH  23  26
ATOM     26  N   UNL     1      -1.612  12.072  22.316  0.00  0.00    +0.000 N 
ATOM     27  O   UNL     1      -1.103  12.554  23.336  0.00  0.00    +0.000 OA
ATOM     28  O   UNL     1      -2.783  12.252  21.954  0.00  0.00    +0.000 OA
ENDBRANCH  23  26
ENDBRANCH  18  20
ENDBRANCH  17  18
ENDBRANCH   3  17
BRANCH   6  29
ATOM     29  C   UNL     1       1.404   3.110  19.394  0.00  0.00    +0.000 C 
BRANCH  29  30
ATOM     30  C   UNL     1       2.097   2.286  20.492  0.00  0.00    +0.000 C 
ATOM     31  C   UNL     1       3.592   2.582  20.601  0.00  0.00    +0.000 C 
ATOM     32  C   UNL     1       1.431   2.529  21.852  0.00  0.00    +0.000 C 
ENDBRANCH  29  30
ENDBRANCH   6  29
TORSDOF 6
ENDMDL
MODEL 9
REMARK VINA RESULT:      -6.7      3.175      4.429
REMARK  Name = 
REMARK  9 active torsions:
REMARK  status: ('A' for Active; 'I' for Inactive)
REMARK    1  A    between atoms: C_1  and  C_2
REMARK    2  A    between atoms: N_3  and  C_4
REMARK    3  A    between atoms: C_4  and  C_5
REMARK    4  A    between atoms: C_5  and  C_7
REMARK    5  A    between atoms: C_10  and  N_11
REMARK    6  A    between atoms: N_18  and  C_19
REMARK    7  A    between atoms: C_19  and  C_20
REMARK    8  A    between atoms: C_20  and  C_21
REMARK    9  A    between atoms: C_20  and  C_22
REMARK                            x       y       z     vdW  Elec       q    Type
REMARK                         _______ _______ _______ _____ _____    ______ ____
ROOT
ATOM      1  C   UNL     1      -2.123   9.924  18.946  0.00  0.00    +0.000 C 
ATOM      2  C   UNL     1      -1.180  11.088  18.973  0.00  0.00    +0.000 A 
ATOM      3  N   UNL     1       0.112  11.087  18.574  0.00  0.00    +0.000 N 
ATOM      4  C   UNL     1       0.654  12.371  18.697  0.00  0.00    +0.000 A 
ATOM      5  C   UNL     1      -0.357  13.194  19.120  0.00  0.00    +0.000 A 
ATOM      6  N   UNL     1      -1.466  12.357  19.363  0.00  0.00    +0.000 N 
ATOM      7  C   UNL     1      -0.217  14.622  19.243  0.00  0.00    +0.000 C 
ATOM      8  O   UNL     1      -1.054  15.428  19.640  0.00  0.00    +0.000 OA
ATOM      9  C   UNL     1       1.107  15.143  18.769  0.00  0.00    +0.000 A 
ATOM     10  C   UNL     1       1.319  16.528  18.717  0.00  0.00    +0.000 A 
ATOM     11  C   UNL     1       2.530  17.040  18.238  0.00  0.00    +0.000 A 
ATOM     12  C   UNL     1       3.531  16.181  17.795  0.00  0.00    +0.000 A 
ATOM     13  C   UNL     1       3.338  14.803  17.854  0.00  0.00    +0.000 A 
ATOM     14  C   UNL     1       2.135  14.280  18.351  0.00  0.00    +0.000 A 
ATOM     15  C   UNL     1       1.988  12.802  18.412  0.00  0.00    +0.000 C 
ATOM     16  O   UNL     1       2.975  12.101  18.207  0.00  0.00    +0.000 OA
ENDROOT
BRANCH   3  17
ATOM     17  C   UNL     1       0.859   9.885  18.095  0.00  0.00    +0.000 C 
BRANCH  17  18
ATOM     18  C   UNL     1       1.398   9.059  19.252  0.00  0.00    +0.000 C 
ATOM     19  O   UNL     1       1.144   9.336  20.424  0.00  0.00    +0.000 OA
BRANCH  18  20
ATOM     20  C   UNL     1       2.251   7.873  18.953  0.00  0.00    +0.000 A 
ATOM     21  C   UNL     1       3.040   7.916  17.794  0.00  0.00    +0.000 A 
ATOM     22  C   UNL     1       3.890   6.853  17.472  0.00  0.00    +0.000 A 
ATOM     23  C   UNL     1       3.959   5.743  18.321  0.00  0.00    +0.000 A 
ATOM     24  C   UNL     1       3.174   5.690  19.483  0.00  0.00    +0.000 A 
ATOM     25  C   UNL     1       2.316   6.754  19.797  0.00  0.00    +0.000 A 
BRANCH  23  26
ATOM     26  N   UNL     1       4.871   4.636  18.002  0.00  0.00    +0.000 N 
ATOM     27  O   UNL     1       5.771   4.382  18.813  0.00  0.00    +0.000 OA
ATOM     28  O   UNL     1       4.679   4.025  16.942  0.00  0.00    +0.000 OA
ENDBRANCH  23  26
ENDBRANCH  18  20
ENDBRANCH  17  18
ENDBRANCH   3  17
BRANCH   6  29
ATOM     29  C   UNL     1      -2.779  12.813  19.913  0.00  0.00    +0.000 C 
BRANCH  29  30
ATOM     30  C   UNL     1      -2.785  13.049  21.434  0.00  0.00    +0.000 C 
ATOM     31  C   UNL     1      -4.185  12.975  22.040  0.00  0.00    +0.000 C 
ATOM     32  C   UNL     1      -1.871  12.039  22.140  0.00  0.00    +0.000 C 
ENDBRANCH  29  30
ENDBRANCH   6  29
TORSDOF 6
ENDMDL
