MODEL 1
REMARK VINA RESULT:      -8.4      0.000      0.000
REMARK  Name = 
REMARK  9 active torsions:
REMARK  status: ('A' for Active; 'I' for Inactive)
REMARK    1  A    between atoms: C_1  and  O_2
REMARK    2  A    between atoms: O_2  and  C_3
REMARK    3  A    between atoms: C_6  and  N_7
REMARK    4  A    between atoms: C_9  and  N_10
REMARK    5  A    between atoms: C_11  and  C_13
REMARK    6  A    between atoms: C_16  and  S_17
REMARK    7  A    between atoms: S_17  and  N_20
REMARK    8  A    between atoms: C_32  and  O_33
REMARK    9  A    between atoms: O_33  and  C_34
REMARK                            x       y       z     vdW  Elec       q    Type
REMARK                         _______ _______ _______ _____ _____    ______ ____
ROOT
ATOM      1  N   UNL     1       0.935   8.315  20.708  0.00  0.00    +0.000 N 
ATOM      2  C   UNL     1       0.955   9.241  21.735  0.00  0.00    +0.000 C 
ATOM      3  O   UNL     1       1.869   9.313  22.550  0.00  0.00    +0.000 OA
ATOM      4  H   UNL     1       0.243   8.392  19.974  0.00  0.00    +0.000 HD
ENDROOT
BRANCH   1   7
ATOM      5  N   UNL     1       3.231   6.010  19.081  0.00  0.00    +0.000 N 
ATOM      6  C   UNL     1       2.733   7.354  19.261  0.00  0.00    +0.000 C 
ATOM      7  C   UNL     1       1.993   7.319  20.592  0.00  0.00    +0.000 C 
ATOM      8  C   UNL     1       1.496   5.885  20.672  0.00  0.00    +0.000 C 
ATOM      9  C   UNL     1       2.536   5.106  19.902  0.00  0.00    +0.000 C 
ATOM     10  O   UNL     1       2.630   3.892  19.960  0.00  0.00    +0.000 OA
BRANCH   5  14
ATOM     11  C   UNL     1       5.763   5.291  15.753  0.00  0.00    +0.000 A 
ATOM     12  C   UNL     1       4.725   4.402  16.061  0.00  0.00    +0.000 A 
ATOM     13  C   UNL     1       3.907   4.606  17.175  0.00  0.00    +0.000 A 
ATOM     14  C   UNL     1       4.127   5.684  18.029  0.00  0.00    +0.000 A 
ATOM     15  C   UNL     1       5.259   6.478  17.789  0.00  0.00    +0.000 A 
ATOM     16  C   UNL     1       6.083   6.297  16.667  0.00  0.00    +0.000 A 
BRANCH  11  18
ATOM     17  C   UNL     1       6.197   3.975  13.850  0.00  0.00    +0.000 C 
ATOM     18  O   UNL     1       6.455   5.179  14.578  0.00  0.00    +0.000 OA
ENDBRANCH  11  18
BRANCH  16  19
ATOM     19  O   UNL     1       7.092   7.221  16.624  0.00  0.00    +0.000 OA
ATOM     20  C   UNL     1       7.749   7.580  17.827  0.00  0.00    +0.000 C 
ENDBRANCH  16  19
ENDBRANCH   5  14
ENDBRANCH   1   7
BRANCH   2  21
ATOM     21  C   UNL     1      -0.190  10.187  21.828  0.00  0.00    +0.000 A 
ATOM     22  C   UNL     1      -0.822  10.441  23.048  0.00  0.00    +0.000 A 
ATOM     23  C   UNL     1      -1.821  11.416  23.123  0.00  0.00    +0.000 A 
ATOM     24  C   UNL     1      -2.186  12.139  21.979  0.00  0.00    +0.000 A 
ATOM     25  C   UNL     1      -1.588  11.865  20.748  0.00  0.00    +0.000 A 
ATOM     26  C   UNL     1      -0.579  10.893  20.678  0.00  0.00    +0.000 A 
BRANCH  24  27
ATOM     27  S   UNL     1      -3.448  13.384  22.116  0.00  0.00    +0.000 S 
ATOM     28  O   UNL     1      -3.314  13.984  23.428  0.00  0.00    +0.000 OA
ATOM     29  O   UNL     1      -3.388  14.191  20.913  0.00  0.00    +0.000 OA
BRANCH  27  30
ATOM     30  N   UNL     1      -4.936  12.533  22.088  0.00  0.00    +0.000 NA
ATOM     31  C   UNL     1      -5.611  12.307  20.770  0.00  0.00    +0.000 C 
ATOM     32  C   UNL     1      -6.336  13.560  20.265  0.00  0.00    +0.000 C 
ATOM     33  O   UNL     1      -7.271  14.061  21.230  0.00  0.00    +0.000 OA
ATOM     34  C   UNL     1      -6.639  14.336  22.489  0.00  0.00    +0.000 C 
ATOM     35  C   UNL     1      -5.956  13.082  23.053  0.00  0.00    +0.000 C 
ENDBRANCH  27  30
ENDBRANCH  24  27
ENDBRANCH   2  21
TORSDOF 7
ENDMDL
MODEL 2
REMARK VINA RESULT:      -8.3      1.777      2.302
REMARK  Name = 
REMARK  9 active torsions:
REMARK  status: ('A' for Active; 'I' for Inactive)
REMARK    1  A    between atoms: C_1  and  O_2
REMARK    2  A    between atoms: O_2  and  C_3
REMARK    3  A    between atoms: C_6  and  N_7
REMARK    4  A    between atoms: C_9  and  N_10
REMARK    5  A    between atoms: C_11  and  C_13
REMARK    6  A    between atoms: C_16  and  S_17
REMARK    7  A    between atoms: S_17  and  N_20
REMARK    8  A    between atoms: C_32  and  O_33
REMARK    9  A    between atoms: O_33  and  C_34
REMARK                            x       y       z     vdW  Elec       q    Type
REMARK                         _______ _______ _______ _____ _____    ______ ____
ROOT
ATOM      1  N   UNL     1       1.197   6.616  21.262  0.00  0.00    +0.000 N 
ATOM      2  C   UNL     1       1.352   7.832  20.621  0.00  0.00    +0.000 C 
ATOM      3  O   UNL     1       2.047   7.973  19.620  0.00  0.00    +0.000 OA
ATOM      4  H   UNL     1       0.497   6.515  21.986  0.00  0.00    +0.000 HD
ENDROOT
BRANCH   1   7
ATOM      5  N   UNL     1       3.198   4.545  19.040  0.00  0.00    +0.000 N 
ATOM      6  C   UNL     1       3.047   5.751  19.820  0.00  0.00    +0.000 C 
ATOM      7  C   UNL     1       1.926   5.441  20.803  0.00  0.00    +0.000 C 
ATOM      8  C   UNL     1       1.067   4.444  20.042  0.00  0.00    +0.000 C 
ATOM      9  C   UNL     1       2.056   3.735  19.147  0.00  0.00    +0.000 C 
ATOM     10  O   UNL     1       1.796   2.690  18.574  0.00  0.00    +0.000 OA
BRANCH   5  14
ATOM     11  C   UNL     1       6.437   4.400  16.304  0.00  0.00    +0.000 A 
ATOM     12  C   UNL     1       5.130   4.140  15.871  0.00  0.00    +0.000 A 
ATOM     13  C   UNL     1       4.059   4.148  16.768  0.00  0.00    +0.000 A 
ATOM     14  C   UNL     1       4.271   4.381  18.125  0.00  0.00    +0.000 A 
ATOM     15  C   UNL     1       5.600   4.493  18.562  0.00  0.00    +0.000 A 
ATOM     16  C   UNL     1       6.687   4.503  17.674  0.00  0.00    +0.000 A 
BRANCH  11  18
ATOM     17  C   UNL     1       7.027   4.783  14.057  0.00  0.00    +0.000 C 
ATOM     18  O   UNL     1       7.455   4.552  15.402  0.00  0.00    +0.000 OA
ENDBRANCH  11  18
BRANCH  16  19
ATOM     19  O   UNL     1       7.876   4.672  18.329  0.00  0.00    +0.000 OA
ATOM     20  C   UNL     1       8.037   5.789  19.187  0.00  0.00    +0.000 C 
ENDBRANCH  16  19
ENDBRANCH   5  14
ENDBRANCH   1   7
BRANCH   2  21
ATOM     21  C   UNL     1       0.624   9.002  21.182  0.00  0.00    +0.000 A 
ATOM     22  C   UNL     1       0.303  10.105  20.387  0.00  0.00    +0.000 A 
ATOM     23  C   UNL     1      -0.476  11.139  20.914  0.00  0.00    +0.000 A 
ATOM     24  C   UNL     1      -0.936  11.069  22.236  0.00  0.00    +0.000 A 
ATOM     25  C   UNL     1      -0.587   9.990  23.050  0.00  0.00    +0.000 A 
ATOM     26  C   UNL     1       0.185   8.950  22.515  0.00  0.00    +0.000 A 
BRANCH  24  27
ATOM     27  S   UNL     1      -1.940  12.394  22.867  0.00  0.00    +0.000 S 
ATOM     28  O   UNL     1      -3.073  11.787  23.537  0.00  0.00    +0.000 OA
ATOM     29  O   UNL     1      -1.057  13.307  23.567  0.00  0.00    +0.000 OA
BRANCH  27  30
ATOM     30  N   UNL     1      -2.536  13.215  21.486  0.00  0.00    +0.000 NA
ATOM     31  C   UNL     1      -2.669  14.705  21.536  0.00  0.00    +0.000 C 
ATOM     32  C   UNL     1      -3.909  15.153  22.319  0.00  0.00    +0.000 C 
ATOM     33  O   UNL     1      -5.108  14.558  21.804  0.00  0.00    +0.000 OA
ATOM     34  C   UNL     1      -5.028  13.125  21.793  0.00  0.00    +0.000 C 
ATOM     35  C   UNL     1      -3.829  12.643  20.964  0.00  0.00    +0.000 C 
ENDBRANCH  27  30
ENDBRANCH  24  27
ENDBRANCH   2  21
TORSDOF 7
ENDMDL
MODEL 3
REMARK VINA RESULT:      -8.3      1.067      1.355
REMARK  Name = 
REMARK  9 active torsions:
REMARK  status: ('A' for Active; 'I' for Inactive)
REMARK    1  A    between atoms: C_1  and  O_2
REMARK    2  A    between atoms: O_2  and  C_3
REMARK    3  A    between atoms: C_6  and  N_7
REMARK    4  A    between atoms: C_9  and  N_10
REMARK    5  A    between atoms: C_11  and  C_13
REMARK    6  A    between atoms: C_16  and  S_17
REMARK    7  A    between atoms: S_17  and  N_20
REMARK    8  A    between atoms: C_32  and  O_33
REMARK    9  A    between atoms: O_33  and  C_34
REMARK                            x       y       z     vdW  Elec       q    Type
REMARK                         _______ _______ _______ _____ _____    ______ ____
ROOT
ATOM      1  N   UNL     1       0.900   8.364  20.854  0.00  0.00    +0.000 N 
ATOM      2  C   UNL     1       0.945   9.309  21.864  0.00  0.00    +0.000 C 
ATOM      3  O   UNL     1       1.797   9.302  22.745  0.00  0.00    +0.000 OA
ATOM      4  H   UNL     1       0.277   8.497  20.067  0.00  0.00    +0.000 HD
ENDROOT
BRANCH   1   7
ATOM      5  N   UNL     1       3.145   5.870  19.451  0.00  0.00    +0.000 N 
ATOM      6  C   UNL     1       2.777   7.255  19.631  0.00  0.00    +0.000 C 
ATOM      7  C   UNL     1       1.847   7.256  20.837  0.00  0.00    +0.000 C 
ATOM      8  C   UNL     1       1.188   5.888  20.766  0.00  0.00    +0.000 C 
ATOM      9  C   UNL     1       2.239   5.023  20.112  0.00  0.00    +0.000 C 
ATOM     10  O   UNL     1       2.188   3.804  20.116  0.00  0.00    +0.000 OA
BRANCH   5  14
ATOM     11  C   UNL     1       6.265   5.031  16.701  0.00  0.00    +0.000 A 
ATOM     12  C   UNL     1       4.944   5.167  16.256  0.00  0.00    +0.000 A 
ATOM     13  C   UNL     1       3.901   5.407  17.154  0.00  0.00    +0.000 A 
ATOM     14  C   UNL     1       4.147   5.481  18.523  0.00  0.00    +0.000 A 
ATOM     15  C   UNL     1       5.449   5.196  18.963  0.00  0.00    +0.000 A 
ATOM     16  C   UNL     1       6.512   4.969  18.074  0.00  0.00    +0.000 A 
BRANCH  11  18
ATOM     17  C   UNL     1       6.905   4.686  14.462  0.00  0.00    +0.000 C 
ATOM     18  O   UNL     1       7.300   4.960  15.809  0.00  0.00    +0.000 OA
ENDBRANCH  11  18
BRANCH  16  19
ATOM     19  O   UNL     1       7.691   4.762  18.736  0.00  0.00    +0.000 OA
ATOM     20  C   UNL     1       8.128   5.724  19.681  0.00  0.00    +0.000 C 
ENDBRANCH  16  19
ENDBRANCH   5  14
ENDBRANCH   1   7
BRANCH   2  21
ATOM     21  C   UNL     1      -0.092  10.376  21.852  0.00  0.00    +0.000 A 
ATOM     22  C   UNL     1      -0.446  11.028  20.668  0.00  0.00    +0.000 A 
ATOM     23  C   UNL     1      -1.499  11.948  20.670  0.00  0.00    +0.000 A 
ATOM     24  C   UNL     1      -2.199  12.213  21.855  0.00  0.00    +0.000 A 
ATOM     25  C   UNL     1      -1.827  11.596  23.050  0.00  0.00    +0.000 A 
ATOM     26  C   UNL     1      -0.778  10.667  23.043  0.00  0.00    +0.000 A 
BRANCH  24  27
ATOM     27  S   UNL     1      -3.544  13.375  21.815  0.00  0.00    +0.000 S 
ATOM     28  O   UNL     1      -3.273  14.376  22.828  0.00  0.00    +0.000 OA
ATOM     29  O   UNL     1      -3.750  13.748  20.429  0.00  0.00    +0.000 OA
BRANCH  27  30
ATOM     30  N   UNL     1      -4.926  12.494  22.319  0.00  0.00    +0.000 NA
ATOM     31  C   UNL     1      -6.059  12.321  21.356  0.00  0.00    +0.000 C 
ATOM     32  C   UNL     1      -6.925  13.581  21.242  0.00  0.00    +0.000 C 
ATOM     33  O   UNL     1      -7.411  14.011  22.521  0.00  0.00    +0.000 OA
ATOM     34  C   UNL     1      -6.340  14.235  23.450  0.00  0.00    +0.000 C 
ATOM     35  C   UNL     1      -5.491  12.970  23.633  0.00  0.00    +0.000 C 
ENDBRANCH  27  30
ENDBRANCH  24  27
ENDBRANCH   2  21
TORSDOF 7
ENDMDL
MODEL 4
REMARK VINA RESULT:      -8.3      1.711      2.054
REMARK  Name = 
REMARK  9 active torsions:
REMARK  status: ('A' for Active; 'I' for Inactive)
REMARK    1  A    between atoms: C_1  and  O_2
REMARK    2  A    between atoms: O_2  and  C_3
REMARK    3  A    between atoms: C_6  and  N_7
REMARK    4  A    between atoms: C_9  and  N_10
REMARK    5  A    between atoms: C_11  and  C_13
REMARK    6  A    between atoms: C_16  and  S_17
REMARK    7  A    between atoms: S_17  and  N_20
REMARK    8  A    between atoms: C_32  and  O_33
REMARK    9  A    between atoms: O_33  and  C_34
REMARK                            x       y       z     vdW  Elec       q    Type
REMARK                         _______ _______ _______ _____ _____    ______ ____
ROOT
ATOM      1  N   UNL     1       1.352   6.931  21.248  0.00  0.00    +0.000 N 
ATOM      2  C   UNL     1       1.378   8.067  20.460  0.00  0.00    +0.000 C 
ATOM      3  O   UNL     1       1.923   8.104  19.362  0.00  0.00    +0.000 OA
ATOM      4  H   UNL     1       0.762   6.902  22.070  0.00  0.00    +0.000 HD
ENDROOT
BRANCH   1   7
ATOM      5  N   UNL     1       3.276   4.732  19.081  0.00  0.00    +0.000 N 
ATOM      6  C   UNL     1       3.162   5.970  19.816  0.00  0.00    +0.000 C 
ATOM      7  C   UNL     1       2.049   5.723  20.825  0.00  0.00    +0.000 C 
ATOM      8  C   UNL     1       1.157   4.718  20.115  0.00  0.00    +0.000 C 
ATOM      9  C   UNL     1       2.117   3.953  19.235  0.00  0.00    +0.000 C 
ATOM     10  O   UNL     1       1.827   2.893  18.705  0.00  0.00    +0.000 OA
BRANCH   5  14
ATOM     11  C   UNL     1       6.475   4.410  16.313  0.00  0.00    +0.000 A 
ATOM     12  C   UNL     1       5.156   4.177  15.904  0.00  0.00    +0.000 A 
ATOM     13  C   UNL     1       4.096   4.244  16.812  0.00  0.00    +0.000 A 
ATOM     14  C   UNL     1       4.332   4.509  18.159  0.00  0.00    +0.000 A 
ATOM     15  C   UNL     1       5.669   4.592  18.578  0.00  0.00    +0.000 A 
ATOM     16  C   UNL     1       6.745   4.543  17.677  0.00  0.00    +0.000 A 
BRANCH  11  18
ATOM     17  C   UNL     1       7.050   4.737  14.054  0.00  0.00    +0.000 C 
ATOM     18  O   UNL     1       7.486   4.504  15.396  0.00  0.00    +0.000 OA
ENDBRANCH  11  18
BRANCH  16  19
ATOM     19  O   UNL     1       7.947   4.694  18.314  0.00  0.00    +0.000 OA
ATOM     20  C   UNL     1       8.071   5.679  19.326  0.00  0.00    +0.000 C 
ENDBRANCH  16  19
ENDBRANCH   5  14
ENDBRANCH   1   7
BRANCH   2  21
ATOM     21  C   UNL     1       0.697   9.282  20.984  0.00  0.00    +0.000 A 
ATOM     22  C   UNL     1       0.647  10.462  20.239  0.00  0.00    +0.000 A 
ATOM     23  C   UNL     1      -0.092  11.551  20.710  0.00  0.00    +0.000 A 
ATOM     24  C   UNL     1      -0.785  11.458  21.925  0.00  0.00    +0.000 A 
ATOM     25  C   UNL     1      -0.710  10.296  22.695  0.00  0.00    +0.000 A 
ATOM     26  C   UNL     1       0.025   9.203  22.215  0.00  0.00    +0.000 A 
BRANCH  24  27
ATOM     27  S   UNL     1      -1.731  12.856  22.483  0.00  0.00    +0.000 S 
ATOM     28  O   UNL     1      -1.199  13.242  23.775  0.00  0.00    +0.000 OA
ATOM     29  O   UNL     1      -1.792  13.801  21.385  0.00  0.00    +0.000 OA
BRANCH  27  30
ATOM     30  N   UNL     1      -3.319  12.262  22.737  0.00  0.00    +0.000 NA
ATOM     31  C   UNL     1      -4.387  12.620  21.750  0.00  0.00    +0.000 C 
ATOM     32  C   UNL     1      -4.907  14.049  21.947  0.00  0.00    +0.000 C 
ATOM     33  O   UNL     1      -5.366  14.270  23.287  0.00  0.00    +0.000 OA
ATOM     34  C   UNL     1      -4.343  13.984  24.253  0.00  0.00    +0.000 C 
ATOM     35  C   UNL     1      -3.845  12.538  24.123  0.00  0.00    +0.000 C 
ENDBRANCH  27  30
ENDBRANCH  24  27
ENDBRANCH   2  21
TORSDOF 7
ENDMDL
MODEL 5
REMARK VINA RESULT:      -8.2      1.400      1.576
REMARK  Name = 
REMARK  9 active torsions:
REMARK  status: ('A' for Active; 'I' for Inactive)
REMARK    1  A    between atoms: C_1  and  O_2
REMARK    2  A    between atoms: O_2  and  C_3
REMARK    3  A    between atoms: C_6  and  N_7
REMARK    4  A    between atoms: C_9  and  N_10
REMARK    5  A    between atoms: C_11  and  C_13
REMARK    6  A    between atoms: C_16  and  S_17
REMARK    7  A    between atoms: S_17  and  N_20
REMARK    8  A    between atoms: C_32  and  O_33
REMARK    9  A    between atoms: O_33  and  C_34
REMARK                            x       y       z     vdW  Elec       q    Type
REMARK                         _______ _______ _______ _____ _____    ______ ____
ROOT
ATOM      1  N   UNL     1       0.948   8.022  20.817  0.00  0.00    +0.000 N 
ATOM      2  C   UNL     1       1.006   9.029  21.763  0.00  0.00    +0.000 C 
ATOM      3  O   UNL     1       1.904   9.111  22.594  0.00  0.00    +0.000 OA
ATOM      4  H   UNL     1       0.279   8.081  20.059  0.00  0.00    +0.000 HD
ENDROOT
BRANCH   1   7
ATOM      5  N   UNL     1       3.245   5.559  19.444  0.00  0.00    +0.000 N 
ATOM      6  C   UNL     1       2.828   6.934  19.578  0.00  0.00    +0.000 C 
ATOM      7  C   UNL     1       1.938   6.953  20.814  0.00  0.00    +0.000 C 
ATOM      8  C   UNL     1       1.334   5.558  20.824  0.00  0.00    +0.000 C 
ATOM      9  C   UNL     1       2.398   4.707  20.172  0.00  0.00    +0.000 C 
ATOM     10  O   UNL     1       2.397   3.488  20.231  0.00  0.00    +0.000 OA
BRANCH   5  14
ATOM     11  C   UNL     1       6.297   4.726  16.616  0.00  0.00    +0.000 A 
ATOM     12  C   UNL     1       4.952   4.746  16.225  0.00  0.00    +0.000 A 
ATOM     13  C   UNL     1       3.933   4.982  17.152  0.00  0.00    +0.000 A 
ATOM     14  C   UNL     1       4.231   5.169  18.500  0.00  0.00    +0.000 A 
ATOM     15  C   UNL     1       5.567   5.000  18.897  0.00  0.00    +0.000 A 
ATOM     16  C   UNL     1       6.604   4.777  17.978  0.00  0.00    +0.000 A 
BRANCH  11  18
ATOM     17  C   UNL     1       6.864   4.856  14.335  0.00  0.00    +0.000 C 
ATOM     18  O   UNL     1       7.296   4.657  15.684  0.00  0.00    +0.000 OA
ENDBRANCH  11  18
BRANCH  16  19
ATOM     19  O   UNL     1       7.822   4.694  18.597  0.00  0.00    +0.000 OA
ATOM     20  C   UNL     1       8.194   5.700  19.523  0.00  0.00    +0.000 C 
ENDBRANCH  16  19
ENDBRANCH   5  14
ENDBRANCH   1   7
BRANCH   2  21
ATOM     21  C   UNL     1      -0.073  10.052  21.744  0.00  0.00    +0.000 A 
ATOM     22  C   UNL     1      -0.730  10.434  22.916  0.00  0.00    +0.000 A 
ATOM     23  C   UNL     1      -1.663  11.475  22.883  0.00  0.00    +0.000 A 
ATOM     24  C   UNL     1      -1.936  12.137  21.678  0.00  0.00    +0.000 A 
ATOM     25  C   UNL     1      -1.313  11.738  20.495  0.00  0.00    +0.000 A 
ATOM     26  C   UNL     1      -0.371  10.700  20.533  0.00  0.00    +0.000 A 
BRANCH  24  27
ATOM     27  S   UNL     1      -3.113  13.469  21.678  0.00  0.00    +0.000 S 
ATOM     28  O   UNL     1      -2.359  14.704  21.591  0.00  0.00    +0.000 OA
ATOM     29  O   UNL     1      -4.132  13.142  20.699  0.00  0.00    +0.000 OA
BRANCH  27  30
ATOM     30  N   UNL     1      -3.855  13.426  23.223  0.00  0.00    +0.000 NA
ATOM     31  C   UNL     1      -5.306  13.068  23.315  0.00  0.00    +0.000 C 
ATOM     32  C   UNL     1      -6.219  14.237  22.927  0.00  0.00    +0.000 C 
ATOM     33  O   UNL     1      -5.940  15.412  23.701  0.00  0.00    +0.000 OA
ATOM     34  C   UNL     1      -4.565  15.807  23.589  0.00  0.00    +0.000 C 
ATOM     35  C   UNL     1      -3.624  14.677  24.030  0.00  0.00    +0.000 C 
ENDBRANCH  27  30
ENDBRANCH  24  27
ENDBRANCH   2  21
TORSDOF 7
ENDMDL
MODEL 6
REMARK VINA RESULT:      -8.2      1.839      2.374
REMARK  Name = 
REMARK  9 active torsions:
REMARK  status: ('A' for Active; 'I' for Inactive)
REMARK    1  A    between atoms: C_1  and  O_2
REMARK    2  A    between atoms: O_2  and  C_3
REMARK    3  A    between atoms: C_6  and  N_7
REMARK    4  A    between atoms: C_9  and  N_10
REMARK    5  A    between atoms: C_11  and  C_13
REMARK    6  A    between atoms: C_16  and  S_17
REMARK    7  A    between atoms: S_17  and  N_20
REMARK    8  A    between atoms: C_32  and  O_33
REMARK    9  A    between atoms: O_33  and  C_34
REMARK                            x       y       z     vdW  Elec       q    Type
REMARK                         _______ _______ _______ _____ _____    ______ ____
ROOT
ATOM      1  N   UNL     1       1.807   6.547  20.786  0.00  0.00    +0.000 N 
ATOM      2  C   UNL     1       1.662   7.736  20.093  0.00  0.00    +0.000 C 
ATOM      3  O   UNL     1       2.183   7.938  19.001  0.00  0.00    +0.000 OA
ATOM      4  H   UNL     1       1.238   6.369  21.604  0.00  0.00    +0.000 HD
ENDROOT
BRANCH   1   7
ATOM      5  N   UNL     1       3.939   4.794  18.417  0.00  0.00    +0.000 N 
ATOM      6  C   UNL     1       3.670   5.960  19.226  0.00  0.00    +0.000 C 
ATOM      7  C   UNL     1       2.662   5.488  20.265  0.00  0.00    +0.000 C 
ATOM      8  C   UNL     1       1.904   4.391  19.537  0.00  0.00    +0.000 C 
ATOM      9  C   UNL     1       2.926   3.834  18.574  0.00  0.00    +0.000 C 
ATOM     10  O   UNL     1       2.779   2.769  17.997  0.00  0.00    +0.000 OA
BRANCH   5  14
ATOM     11  C   UNL     1       6.846   5.035  15.336  0.00  0.00    +0.000 A 
ATOM     12  C   UNL     1       5.952   3.957  15.386  0.00  0.00    +0.000 A 
ATOM     13  C   UNL     1       5.013   3.846  16.415  0.00  0.00    +0.000 A 
ATOM     14  C   UNL     1       4.969   4.789  17.440  0.00  0.00    +0.000 A 
ATOM     15  C   UNL     1       5.966   5.776  17.454  0.00  0.00    +0.000 A 
ATOM     16  C   UNL     1       6.906   5.913  16.420  0.00  0.00    +0.000 A 
BRANCH  11  18
ATOM     17  C   UNL     1       7.192   4.588  13.051  0.00  0.00    +0.000 C 
ATOM     18  O   UNL     1       7.650   5.226  14.246  0.00  0.00    +0.000 OA
ENDBRANCH  11  18
BRANCH  16  19
ATOM     19  O   UNL     1       7.743   6.975  16.632  0.00  0.00    +0.000 OA
ATOM     20  C   UNL     1       7.733   7.618  17.895  0.00  0.00    +0.000 C 
ENDBRANCH  16  19
ENDBRANCH   5  14
ENDBRANCH   1   7
BRANCH   2  21
ATOM     21  C   UNL     1       0.823   8.795  20.715  0.00  0.00    +0.000 A 
ATOM     22  C   UNL     1       0.318   8.652  22.010  0.00  0.00    +0.000 A 
ATOM     23  C   UNL     1      -0.374   9.710  22.606  0.00  0.00    +0.000 A 
ATOM     24  C   UNL     1      -0.558  10.912  21.910  0.00  0.00    +0.000 A 
ATOM     25  C   UNL     1      -0.090  11.051  20.602  0.00  0.00    +0.000 A 
ATOM     26  C   UNL     1       0.612   9.992  20.010  0.00  0.00    +0.000 A 
BRANCH  24  27
ATOM     27  S   UNL     1      -1.426  12.243  22.708  0.00  0.00    +0.000 S 
ATOM     28  O   UNL     1      -2.445  11.644  23.547  0.00  0.00    +0.000 OA
ATOM     29  O   UNL     1      -0.428  13.137  23.263  0.00  0.00    +0.000 OA
BRANCH  27  30
ATOM     30  N   UNL     1      -2.227  13.087  21.449  0.00  0.00    +0.000 NA
ATOM     31  C   UNL     1      -1.774  14.474  21.111  0.00  0.00    +0.000 C 
ATOM     32  C   UNL     1      -2.285  15.515  22.113  0.00  0.00    +0.000 C 
ATOM     33  O   UNL     1      -3.713  15.470  22.246  0.00  0.00    +0.000 OA
ATOM     34  C   UNL     1      -4.171  14.163  22.622  0.00  0.00    +0.000 C 
ATOM     35  C   UNL     1      -3.726  13.105  21.602  0.00  0.00    +0.000 C 
ENDBRANCH  27  30
ENDBRANCH  24  27
ENDBRANCH   2  21
TORSDOF 7
ENDMDL
MODEL 7
REMARK VINA RESULT:      -8.1      1.301      1.680
REMARK  Name = 
REMARK  9 active torsions:
REMARK  status: ('A' for Active; 'I' for Inactive)
REMARK    1  A    between atoms: C_1  and  O_2
REMARK    2  A    between atoms: O_2  and  C_3
REMARK    3  A    between atoms: C_6  and  N_7
REMARK    4  A    between atoms: C_9  and  N_10
REMARK    5  A    between atoms: C_11  and  C_13
REMARK    6  A    between atoms: C_16  and  S_17
REMARK    7  A    between atoms: S_17  and  N_20
REMARK    8  A    between atoms: C_32  and  O_33
REMARK    9  A    between atoms: O_33  and  C_34
REMARK                            x       y       z     vdW  Elec       q    Type
REMARK                         _______ _______ _______ _____ _____    ______ ____
ROOT
ATOM      1  N   UNL     1       1.070   8.520  20.564  0.00  0.00    +0.000 N 
ATOM      2  C   UNL     1       0.907   9.400  21.618  0.00  0.00    +0.000 C 
ATOM      3  O   UNL     1       1.568   9.333  22.649  0.00  0.00    +0.000 OA
ATOM      4  H   UNL     1       0.615   8.706  19.678  0.00  0.00    +0.000 HD
ENDROOT
BRANCH   1   7
ATOM      5  N   UNL     1       3.159   5.758  19.451  0.00  0.00    +0.000 N 
ATOM      6  C   UNL     1       2.813   7.159  19.397  0.00  0.00    +0.000 C 
ATOM      7  C   UNL     1       2.009   7.410  20.666  0.00  0.00    +0.000 C 
ATOM      8  C   UNL     1       1.344   6.068  20.924  0.00  0.00    +0.000 C 
ATOM      9  C   UNL     1       2.323   5.072  20.348  0.00  0.00    +0.000 C 
ATOM     10  O   UNL     1       2.271   3.878  20.592  0.00  0.00    +0.000 OA
BRANCH   5  14
ATOM     11  C   UNL     1       5.950   4.349  16.583  0.00  0.00    +0.000 A 
ATOM     12  C   UNL     1       4.574   4.269  16.334  0.00  0.00    +0.000 A 
ATOM     13  C   UNL     1       3.642   4.695  17.284  0.00  0.00    +0.000 A 
ATOM     14  C   UNL     1       4.061   5.178  18.521  0.00  0.00    +0.000 A 
ATOM     15  C   UNL     1       5.433   5.113  18.810  0.00  0.00    +0.000 A 
ATOM     16  C   UNL     1       6.384   4.703  17.863  0.00  0.00    +0.000 A 
BRANCH  11  18
ATOM     17  C   UNL     1       6.283   3.897  14.297  0.00  0.00    +0.000 C 
ATOM     18  O   UNL     1       6.857   4.084  15.594  0.00  0.00    +0.000 OA
ENDBRANCH  11  18
BRANCH  16  19
ATOM     19  O   UNL     1       7.658   4.770  18.360  0.00  0.00    +0.000 OA
ATOM     20  C   UNL     1       7.952   5.714  19.375  0.00  0.00    +0.000 C 
ENDBRANCH  16  19
ENDBRANCH   5  14
ENDBRANCH   1   7
BRANCH   2  21
ATOM     21  C   UNL     1      -0.113  10.472  21.467  0.00  0.00    +0.000 A 
ATOM     22  C   UNL     1      -0.511  10.920  20.205  0.00  0.00    +0.000 A 
ATOM     23  C   UNL     1      -1.549  11.850  20.093  0.00  0.00    +0.000 A 
ATOM     24  C   UNL     1      -2.191  12.329  21.242  0.00  0.00    +0.000 A 
ATOM     25  C   UNL     1      -1.775  11.917  22.509  0.00  0.00    +0.000 A 
ATOM     26  C   UNL     1      -0.740  10.977  22.618  0.00  0.00    +0.000 A 
BRANCH  24  27
ATOM     27  S   UNL     1      -3.520  13.496  21.060  0.00  0.00    +0.000 S 
ATOM     28  O   UNL     1      -2.919  14.785  20.779  0.00  0.00    +0.000 OA
ATOM     29  O   UNL     1      -4.489  12.908  20.156  0.00  0.00    +0.000 OA
BRANCH  27  30
ATOM     30  N   UNL     1      -4.256  13.597  22.605  0.00  0.00    +0.000 NA
ATOM     31  C   UNL     1      -5.699  13.218  22.741  0.00  0.00    +0.000 C 
ATOM     32  C   UNL     1      -6.640  14.319  22.238  0.00  0.00    +0.000 C 
ATOM     33  O   UNL     1      -6.386  15.574  22.884  0.00  0.00    +0.000 OA
ATOM     34  C   UNL     1      -5.021  15.987  22.725  0.00  0.00    +0.000 C 
ATOM     35  C   UNL     1      -4.053  14.930  23.277  0.00  0.00    +0.000 C 
ENDBRANCH  27  30
ENDBRANCH  24  27
ENDBRANCH   2  21
TORSDOF 7
ENDMDL
MODEL 8
REMARK VINA RESULT:      -8.0      1.406      1.958
REMARK  Name = 
REMARK  9 active torsions:
REMARK  status: ('A' for Active; 'I' for Inactive)
REMARK    1  A    between atoms: C_1  and  O_2
REMARK    2  A    between atoms: O_2  and  C_3
REMARK    3  A    between atoms: C_6  and  N_7
REMARK    4  A    between atoms: C_9  and  N_10
REMARK    5  A    between atoms: C_11  and  C_13
REMARK    6  A    between atoms: C_16  and  S_17
REMARK    7  A    between atoms: S_17  and  N_20
REMARK    8  A    between atoms: C_32  and  O_33
REMARK    9  A    between atoms: O_33  and  C_34
REMARK                            x       y       z     vdW  Elec       q    Type
REMARK                         _______ _______ _______ _____ _____    ______ ____
ROOT
ATOM      1  N   UNL     1       1.225   8.322  20.477  0.00  0.00    +0.000 N 
ATOM      2  C   UNL     1       1.158   9.192  21.550  0.00  0.00    +0.000 C 
ATOM      3  O   UNL     1       1.960   9.169  22.477  0.00  0.00    +0.000 OA
ATOM      4  H   UNL     1       0.639   8.476  19.666  0.00  0.00    +0.000 HD
ENDROOT
BRANCH   1   7
ATOM      5  N   UNL     1       3.433   5.819  19.031  0.00  0.00    +0.000 N 
ATOM      6  C   UNL     1       2.997   7.192  19.121  0.00  0.00    +0.000 C 
ATOM      7  C   UNL     1       2.236   7.273  20.439  0.00  0.00    +0.000 C 
ATOM      8  C   UNL     1       1.671   5.871  20.596  0.00  0.00    +0.000 C 
ATOM      9  C   UNL     1       2.684   5.000  19.892  0.00  0.00    +0.000 C 
ATOM     10  O   UNL     1       2.719   3.788  20.026  0.00  0.00    +0.000 OA
BRANCH   5  14
ATOM     11  C   UNL     1       5.997   4.799  15.808  0.00  0.00    +0.000 A 
ATOM     12  C   UNL     1       4.860   4.027  16.083  0.00  0.00    +0.000 A 
ATOM     13  C   UNL     1       4.027   4.329  17.163  0.00  0.00    +0.000 A 
ATOM     14  C   UNL     1       4.328   5.388  18.016  0.00  0.00    +0.000 A 
ATOM     15  C   UNL     1       5.545   6.057  17.814  0.00  0.00    +0.000 A 
ATOM     16  C   UNL     1       6.386   5.777  16.725  0.00  0.00    +0.000 A 
BRANCH  11  18
ATOM     17  C   UNL     1       6.020   3.878  13.641  0.00  0.00    +0.000 C 
ATOM     18  O   UNL     1       6.715   4.601  14.661  0.00  0.00    +0.000 OA
ENDBRANCH  11  18
BRANCH  16  19
ATOM     19  O   UNL     1       7.487   6.590  16.712  0.00  0.00    +0.000 OA
ATOM     20  C   UNL     1       7.526   7.711  17.580  0.00  0.00    +0.000 C 
ENDBRANCH  16  19
ENDBRANCH   5  14
ENDBRANCH   1   7
BRANCH   2  21
ATOM     21  C   UNL     1       0.061  10.197  21.551  0.00  0.00    +0.000 A 
ATOM     22  C   UNL     1      -0.424  10.740  20.359  0.00  0.00    +0.000 A 
ATOM     23  C   UNL     1      -1.527  11.599  20.385  0.00  0.00    +0.000 A 
ATOM     24  C   UNL     1      -2.146  11.913  21.602  0.00  0.00    +0.000 A 
ATOM     25  C   UNL     1      -1.644  11.406  22.802  0.00  0.00    +0.000 A 
ATOM     26  C   UNL     1      -0.544  10.537  22.772  0.00  0.00    +0.000 A 
BRANCH  24  27
ATOM     27  S   UNL     1      -3.558  12.994  21.595  0.00  0.00    +0.000 S 
ATOM     28  O   UNL     1      -3.930  13.198  20.209  0.00  0.00    +0.000 OA
ATOM     29  O   UNL     1      -4.507  12.468  22.556  0.00  0.00    +0.000 OA
BRANCH  27  30
ATOM     30  N   UNL     1      -2.990  14.493  22.202  0.00  0.00    +0.000 NA
ATOM     31  C   UNL     1      -3.121  14.771  23.668  0.00  0.00    +0.000 C 
ATOM     32  C   UNL     1      -4.549  15.171  24.059  0.00  0.00    +0.000 C 
ATOM     33  O   UNL     1      -5.019  16.287  23.290  0.00  0.00    +0.000 OA
ATOM     34  C   UNL     1      -4.954  16.027  21.881  0.00  0.00    +0.000 C 
ATOM     35  C   UNL     1      -3.522  15.683  21.446  0.00  0.00    +0.000 C 
ENDBRANCH  27  30
ENDBRANCH  24  27
ENDBRANCH   2  21
TORSDOF 7
ENDMDL
MODEL 9
REMARK VINA RESULT:      -8.0      1.533      1.781
REMARK  Name = 
REMARK  9 active torsions:
REMARK  status: ('A' for Active; 'I' for Inactive)
REMARK    1  A    between atoms: C_1  and  O_2
REMARK    2  A    between atoms: O_2  and  C_3
REMARK    3  A    between atoms: C_6  and  N_7
REMARK    4  A    between atoms: C_9  and  N_10
REMARK    5  A    between atoms: C_11  and  C_13
REMARK    6  A    between atoms: C_16  and  S_17
REMARK    7  A    between atoms: S_17  and  N_20
REMARK    8  A    between atoms: C_32  and  O_33
REMARK    9  A    between atoms: O_33  and  C_34
REMARK                            x       y       z     vdW  Elec       q    Type
REMARK                         _______ _______ _______ _____ _____    ______ ____
ROOT
ATOM      1  N   UNL     1       1.667   6.976  20.878  0.00  0.00    +0.000 N 
ATOM      2  C   UNL     1       1.490   8.099  20.091  0.00  0.00    +0.000 C 
ATOM      3  O   UNL     1       1.991   8.218  18.978  0.00  0.00    +0.000 OA
ATOM      4  H   UNL     1       1.113   6.858  21.718  0.00  0.00    +0.000 HD
ENDROOT
BRANCH   1   7
ATOM      5  N   UNL     1       3.715   5.015  18.601  0.00  0.00    +0.000 N 
ATOM      6  C   UNL     1       3.448   6.263  19.276  0.00  0.00    +0.000 C 
ATOM      7  C   UNL     1       2.532   5.891  20.434  0.00  0.00    +0.000 C 
ATOM      8  C   UNL     1       1.777   4.684  19.902  0.00  0.00    +0.000 C 
ATOM      9  C   UNL     1       2.759   4.046  18.947  0.00  0.00    +0.000 C 
ATOM     10  O   UNL     1       2.621   2.912  18.518  0.00  0.00    +0.000 OA
BRANCH   5  14
ATOM     11  C   UNL     1       6.454   5.027  15.360  0.00  0.00    +0.000 A 
ATOM     12  C   UNL     1       5.414   4.088  15.408  0.00  0.00    +0.000 A 
ATOM     13  C   UNL     1       4.527   4.049  16.487  0.00  0.00    +0.000 A 
ATOM     14  C   UNL     1       4.678   4.923  17.561  0.00  0.00    +0.000 A 
ATOM     15  C   UNL     1       5.808   5.754  17.566  0.00  0.00    +0.000 A 
ATOM     16  C   UNL     1       6.701   5.818  16.484  0.00  0.00    +0.000 A 
BRANCH  11  18
ATOM     17  C   UNL     1       6.864   4.287  13.163  0.00  0.00    +0.000 C 
ATOM     18  O   UNL     1       7.216   5.169  14.233  0.00  0.00    +0.000 OA
ENDBRANCH  11  18
BRANCH  16  19
ATOM     19  O   UNL     1       7.695   6.733  16.699  0.00  0.00    +0.000 OA
ATOM     20  C   UNL     1       7.466   7.798  17.607  0.00  0.00    +0.000 C 
ENDBRANCH  16  19
ENDBRANCH   5  14
ENDBRANCH   1   7
BRANCH   2  21
ATOM     21  C   UNL     1       0.643   9.194  20.636  0.00  0.00    +0.000 A 
ATOM     22  C   UNL     1       0.341   9.266  21.998  0.00  0.00    +0.000 A 
ATOM     23  C   UNL     1      -0.366  10.365  22.495  0.00  0.00    +0.000 A 
ATOM     24  C   UNL     1      -0.768  11.393  21.632  0.00  0.00    +0.000 A 
ATOM     25  C   UNL     1      -0.505  11.311  20.264  0.00  0.00    +0.000 A 
ATOM     26  C   UNL     1       0.213  10.212  19.769  0.00  0.00    +0.000 A 
BRANCH  24  27
ATOM     27  S   UNL     1      -1.648  12.784  22.303  0.00  0.00    +0.000 S 
ATOM     28  O   UNL     1      -1.039  13.096  23.582  0.00  0.00    +0.000 OA
ATOM     29  O   UNL     1      -1.742  13.781  21.255  0.00  0.00    +0.000 OA
BRANCH  27  30
ATOM     30  N   UNL     1      -3.235  12.216  22.613  0.00  0.00    +0.000 NA
ATOM     31  C   UNL     1      -4.346  12.657  21.712  0.00  0.00    +0.000 C 
ATOM     32  C   UNL     1      -4.814  14.085  22.020  0.00  0.00    +0.000 C 
ATOM     33  O   UNL     1      -5.191  14.236  23.396  0.00  0.00    +0.000 OA
ATOM     34  C   UNL     1      -4.125  13.869  24.283  0.00  0.00    +0.000 C 
ATOM     35  C   UNL     1      -3.675  12.421  24.040  0.00  0.00    +0.000 C 
ENDBRANCH  27  30
ENDBRANCH  24  27
ENDBRANCH   2  21
TORSDOF 7
ENDMDL
