MODEL 1
REMARK VINA RESULT:      -6.6      0.000      0.000
REMARK  Name = 
REMARK  9 active torsions:
REMARK  status: ('A' for Active; 'I' for Inactive)
REMARK    1  A    between atoms: C_1  and  N_2
REMARK    2  A    between atoms: N_2  and  C_3
REMARK    3  A    between atoms: N_2  and  C_9
REMARK    4  A    between atoms: C_3  and  C_4
REMARK    5  A    between atoms: C_9  and  C_10
REMARK    6  A    between atoms: C_10  and  C_11
REMARK    7  A    between atoms: C_10  and  C_12
REMARK    8  A    between atoms: C_10  and  C_13
REMARK    9  A    between atoms: C_13  and  N_14
REMARK                            x       y       z     vdW  Elec       q    Type
REMARK                         _______ _______ _______ _____ _____    ______ ____
ROOT
ATOM      1  C   UNL     1       5.394   5.440  18.741  0.00  0.00    +0.000 C 
ENDROOT
BRANCH   1   2
ATOM      2  C   UNL     1       3.851   5.538  18.321  0.00  0.00    +0.000 C 
ATOM      3  C   UNL     1       3.570   6.978  17.877  0.00  0.00    +0.000 C 
ATOM      4  C   UNL     1       3.613   4.509  17.196  0.00  0.00    +0.000 C 
BRANCH   2   5
ATOM      5  C   UNL     1       2.907   5.173  19.553  0.00  0.00    +0.000 C 
BRANCH   5   6
ATOM      6  N   UNL     1       3.229   3.986  20.405  0.00  0.00    +0.000 NA
ATOM      7  C   UNL     1       3.129   2.640  19.823  0.00  0.00    +0.000 C 
ATOM      8  C   UNL     1       1.639   2.341  19.804  0.00  0.00    +0.000 C 
ATOM      9  C   UNL     1       1.240   2.817  21.191  0.00  0.00    +0.000 C 
ATOM     10  C   UNL     1       2.286   3.881  21.550  0.00  0.00    +0.000 C 
ENDBRANCH   5   6
ENDBRANCH   2   5
ENDBRANCH   1   2
BRANCH   1  12
ATOM     11  C   UNL     1       7.474   6.707  18.288  0.00  0.00    +0.000 C 
ATOM     12  N   UNL     1       6.439   5.823  17.730  0.00  0.00    +0.000 NA
BRANCH  12  13
ATOM     13  C   UNL     1       7.105   4.601  17.184  0.00  0.00    +0.000 C 
BRANCH  13  14
ATOM     14  C   UNL     1       7.000   4.532  15.670  0.00  0.00    +0.000 A 
ATOM     15  C   UNL     1       6.145   3.712  14.892  0.00  0.00    +0.000 A 
ATOM     16  C   UNL     1       6.318   4.134  13.597  0.00  0.00    +0.000 A 
ATOM     17  N   UNL     1       7.238   5.138  13.650  0.00  0.00    +0.000 N 
ATOM     18  N   UNL     1       7.703   5.372  14.890  0.00  0.00    +0.000 NA
ATOM     19  H   UNL     1       7.580   5.716  12.888  0.00  0.00    +0.000 HD
ENDBRANCH  13  14
ENDBRANCH  12  13
ENDBRANCH   1  12
TORSDOF 6
ENDMDL
MODEL 2
REMARK VINA RESULT:      -6.5      1.105      1.288
REMARK  Name = 
REMARK  9 active torsions:
REMARK  status: ('A' for Active; 'I' for Inactive)
REMARK    1  A    between atoms: C_1  and  N_2
REMARK    2  A    between atoms: N_2  and  C_3
REMARK    3  A    between atoms: N_2  and  C_9
REMARK    4  A    between atoms: C_3  and  C_4
REMARK    5  A    between atoms: C_9  and  C_10
REMARK    6  A    between atoms: C_10  and  C_11
REMARK    7  A    between atoms: C_10  and  C_12
REMARK    8  A    between atoms: C_10  and  C_13
REMARK    9  A    between atoms: C_13  and  N_14
REMARK                            x       y       z     vdW  Elec       q    Type
REMARK                         _______ _______ _______ _____ _____    ______ ____
ROOT
ATOM      1  C   UNL     1       5.561   5.647  18.722  0.00  0.00    +0.000 C 
ENDROOT
BRANCH   1   2
ATOM      2  C   UNL     1       4.123   6.008  18.115  0.00  0.00    +0.000 C 
ATOM      3  C   UNL     1       3.412   6.940  19.101  0.00  0.00    +0.000 C 
ATOM      4  C   UNL     1       4.356   6.663  16.736  0.00  0.00    +0.000 C 
BRANCH   2   5
ATOM      5  C   UNL     1       3.250   4.690  17.911  0.00  0.00    +0.000 C 
BRANCH   5   6
ATOM      6  N   UNL     1       2.822   3.894  19.104  0.00  0.00    +0.000 NA
ATOM      7  C   UNL     1       3.199   2.476  19.189  0.00  0.00    +0.000 C 
ATOM      8  C   UNL     1       2.236   1.767  18.253  0.00  0.00    +0.000 C 
ATOM      9  C   UNL     1       0.927   2.434  18.638  0.00  0.00    +0.000 C 
ATOM     10  C   UNL     1       1.339   3.809  19.184  0.00  0.00    +0.000 C 
ENDBRANCH   5   6
ENDBRANCH   2   5
ENDBRANCH   1   2
BRANCH   1  12
ATOM     11  C   UNL     1       7.848   6.597  18.652  0.00  0.00    +0.000 C 
ATOM     12  N   UNL     1       6.783   5.927  17.890  0.00  0.00    +0.000 NA
BRANCH  12  13
ATOM     13  C   UNL     1       7.331   4.656  17.328  0.00  0.00    +0.000 C 
BRANCH  13  14
ATOM     14  C   UNL     1       7.051   4.531  15.841  0.00  0.00    +0.000 A 
ATOM     15  C   UNL     1       6.094   3.704  15.200  0.00  0.00    +0.000 A 
ATOM     16  C   UNL     1       6.126   4.071  13.877  0.00  0.00    +0.000 A 
ATOM     17  N   UNL     1       7.067   5.052  13.783  0.00  0.00    +0.000 N 
ATOM     18  N   UNL     1       7.677   5.321  14.951  0.00  0.00    +0.000 NA
ATOM     19  H   UNL     1       7.330   5.591  12.964  0.00  0.00    +0.000 HD
ENDBRANCH  13  14
ENDBRANCH  12  13
ENDBRANCH   1  12
TORSDOF 6
ENDMDL
MODEL 3
REMARK VINA RESULT:      -6.1      1.630      2.884
REMARK  Name = 
REMARK  9 active torsions:
REMARK  status: ('A' for Active; 'I' for Inactive)
REMARK    1  A    between atoms: C_1  and  N_2
REMARK    2  A    between atoms: N_2  and  C_3
REMARK    3  A    between atoms: N_2  and  C_9
REMARK    4  A    between atoms: C_3  and  C_4
REMARK    5  A    between atoms: C_9  and  C_10
REMARK    6  A    between atoms: C_10  and  C_11
REMARK    7  A    between atoms: C_10  and  C_12
REMARK    8  A    between atoms: C_10  and  C_13
REMARK    9  A    between atoms: C_13  and  N_14
REMARK                            x       y       z     vdW  Elec       q    Type
REMARK                         _______ _______ _______ _____ _____    ______ ____
ROOT
ATOM      1  C   UNL     1       4.695   5.319  17.384  0.00  0.00    +0.000 C 
ENDROOT
BRANCH   1   2
ATOM      2  C   UNL     1       3.369   4.609  17.936  0.00  0.00    +0.000 C 
ATOM      3  C   UNL     1       2.259   5.663  18.003  0.00  0.00    +0.000 C 
ATOM      4  C   UNL     1       3.033   3.449  16.975  0.00  0.00    +0.000 C 
BRANCH   2   5
ATOM      5  C   UNL     1       3.615   4.010  19.392  0.00  0.00    +0.000 C 
BRANCH   5   6
ATOM      6  N   UNL     1       3.017   2.688  19.759  0.00  0.00    +0.000 NA
ATOM      7  C   UNL     1       1.595   2.445  19.480  0.00  0.00    +0.000 C 
ATOM      8  C   UNL     1       0.856   3.190  20.578  0.00  0.00    +0.000 C 
ATOM      9  C   UNL     1       1.676   2.787  21.792  0.00  0.00    +0.000 C 
ATOM     10  C   UNL     1       3.069   2.470  21.230  0.00  0.00    +0.000 C 
ENDBRANCH   5   6
ENDBRANCH   2   5
ENDBRANCH   1   2
BRANCH   1  12
ATOM     11  C   UNL     1       5.369   5.677  15.027  0.00  0.00    +0.000 C 
ATOM     12  N   UNL     1       5.362   4.744  16.165  0.00  0.00    +0.000 NA
BRANCH  12  13
ATOM     13  C   UNL     1       6.774   4.367  16.476  0.00  0.00    +0.000 C 
BRANCH  13  14
ATOM     14  C   UNL     1       7.394   5.299  17.502  0.00  0.00    +0.000 A 
ATOM     15  C   UNL     1       7.589   6.700  17.403  0.00  0.00    +0.000 A 
ATOM     16  C   UNL     1       8.034   7.092  18.641  0.00  0.00    +0.000 A 
ATOM     17  N   UNL     1       8.095   5.958  19.394  0.00  0.00    +0.000 N 
ATOM     18  N   UNL     1       7.755   4.847  18.716  0.00  0.00    +0.000 NA
ATOM     19  H   UNL     1       8.340   5.869  20.376  0.00  0.00    +0.000 HD
ENDBRANCH  13  14
ENDBRANCH  12  13
ENDBRANCH   1  12
TORSDOF 6
ENDMDL
MODEL 4
REMARK VINA RESULT:      -6.1      1.873      6.138
REMARK  Name = 
REMARK  9 active torsions:
REMARK  status: ('A' for Active; 'I' for Inactive)
REMARK    1  A    between atoms: C_1  and  N_2
REMARK    2  A    between atoms: N_2  and  C_3
REMARK    3  A    between atoms: N_2  and  C_9
REMARK    4  A    between atoms: C_3  and  C_4
REMARK    5  A    between atoms: C_9  and  C_10
REMARK    6  A    between atoms: C_10  and  C_11
REMARK    7  A    between atoms: C_10  and  C_12
REMARK    8  A    between atoms: C_10  and  C_13
REMARK    9  A    between atoms: C_13  and  N_14
REMARK                            x       y       z     vdW  Elec       q    Type
REMARK                         _______ _______ _______ _____ _____    ______ ____
ROOT
ATOM      1  C   UNL     1       2.912   4.943  17.796  0.00  0.00    +0.000 C 
ENDROOT
BRANCH   1   2
ATOM      2  C   UNL     1       4.118   3.898  17.658  0.00  0.00    +0.000 C 
ATOM      3  C   UNL     1       3.677   2.576  18.295  0.00  0.00    +0.000 C 
ATOM      4  C   UNL     1       4.436   3.758  16.153  0.00  0.00    +0.000 C 
BRANCH   2   5
ATOM      5  C   UNL     1       5.419   4.436  18.405  0.00  0.00    +0.000 C 
BRANCH   5   6
ATOM      6  N   UNL     1       6.639   4.784  17.610  0.00  0.00    +0.000 NA
ATOM      7  C   UNL     1       7.963   4.619  18.226  0.00  0.00    +0.000 C 
ATOM      8  C   UNL     1       8.108   5.817  19.149  0.00  0.00    +0.000 C 
ATOM      9  C   UNL     1       7.603   6.930  18.247  0.00  0.00    +0.000 C 
ATOM     10  C   UNL     1       6.653   6.230  17.264  0.00  0.00    +0.000 C 
ENDBRANCH   5   6
ENDBRANCH   2   5
ENDBRANCH   1   2
BRANCH   1  12
ATOM     11  C   UNL     1       3.159   7.391  18.080  0.00  0.00    +0.000 C 
ATOM     12  N   UNL     1       3.062   6.089  18.758  0.00  0.00    +0.000 NA
BRANCH  12  13
ATOM     13  C   UNL     1       1.902   6.132  19.700  0.00  0.00    +0.000 C 
BRANCH  13  14
ATOM     14  C   UNL     1       1.787   4.852  20.509  0.00  0.00    +0.000 A 
ATOM     15  C   UNL     1       0.865   3.789  20.335  0.00  0.00    +0.000 A 
ATOM     16  C   UNL     1       1.272   2.809  21.206  0.00  0.00    +0.000 A 
ATOM     17  N   UNL     1       2.366   3.308  21.846  0.00  0.00    +0.000 N 
ATOM     18  N   UNL     1       2.676   4.564  21.476  0.00  0.00    +0.000 NA
ATOM     19  H   UNL     1       2.959   2.845  22.528  0.00  0.00    +0.000 HD
ENDBRANCH  13  14
ENDBRANCH  12  13
ENDBRANCH   1  12
TORSDOF 6
ENDMDL
MODEL 5
REMARK VINA RESULT:      -5.9      1.749      6.387
REMARK  Name = 
REMARK  9 active torsions:
REMARK  status: ('A' for Active; 'I' for Inactive)
REMARK    1  A    between atoms: C_1  and  N_2
REMARK    2  A    between atoms: N_2  and  C_3
REMARK    3  A    between atoms: N_2  and  C_9
REMARK    4  A    between atoms: C_3  and  C_4
REMARK    5  A    between atoms: C_9  and  C_10
REMARK    6  A    between atoms: C_10  and  C_11
REMARK    7  A    between atoms: C_10  and  C_12
REMARK    8  A    between atoms: C_10  and  C_13
REMARK    9  A    between atoms: C_13  and  N_14
REMARK                            x       y       z     vdW  Elec       q    Type
REMARK                         _______ _______ _______ _____ _____    ______ ____
ROOT
ATOM      1  C   UNL     1       3.091   4.597  17.799  0.00  0.00    +0.000 C 
ENDROOT
BRANCH   1   2
ATOM      2  C   UNL     1       4.199   3.445  17.912  0.00  0.00    +0.000 C 
ATOM      3  C   UNL     1       5.018   3.698  19.182  0.00  0.00    +0.000 C 
ATOM      4  C   UNL     1       3.455   2.092  17.940  0.00  0.00    +0.000 C 
BRANCH   2   5
ATOM      5  C   UNL     1       5.167   3.467  16.646  0.00  0.00    +0.000 C 
BRANCH   5   6
ATOM      6  N   UNL     1       5.162   4.652  15.732  0.00  0.00    +0.000 NA
ATOM      7  C   UNL     1       5.195   4.433  14.279  0.00  0.00    +0.000 C 
ATOM      8  C   UNL     1       6.643   4.087  13.977  0.00  0.00    +0.000 C 
ATOM      9  C   UNL     1       7.362   5.139  14.802  0.00  0.00    +0.000 C 
ATOM     10  C   UNL     1       6.380   5.483  15.931  0.00  0.00    +0.000 C 
ENDBRANCH   5   6
ENDBRANCH   2   5
ENDBRANCH   1   2
BRANCH   1  12
ATOM     11  C   UNL     1       3.386   7.051  17.967  0.00  0.00    +0.000 C 
ATOM     12  N   UNL     1       3.202   5.792  18.705  0.00  0.00    +0.000 NA
BRANCH  12  13
ATOM     13  C   UNL     1       1.978   5.916  19.554  0.00  0.00    +0.000 C 
BRANCH  13  14
ATOM     14  C   UNL     1       1.797   4.711  20.460  0.00  0.00    +0.000 A 
ATOM     15  C   UNL     1       0.952   3.589  20.262  0.00  0.00    +0.000 A 
ATOM     16  C   UNL     1       1.267   2.715  21.273  0.00  0.00    +0.000 A 
ATOM     17  N   UNL     1       2.236   3.328  22.010  0.00  0.00    +0.000 N 
ATOM     18  N   UNL     1       2.546   4.560  21.566  0.00  0.00    +0.000 NA
ATOM     19  H   UNL     1       2.741   2.961  22.811  0.00  0.00    +0.000 HD
ENDBRANCH  13  14
ENDBRANCH  12  13
ENDBRANCH   1  12
TORSDOF 6
ENDMDL
MODEL 6
REMARK VINA RESULT:      -5.9      1.577      2.783
REMARK  Name = 
REMARK  9 active torsions:
REMARK  status: ('A' for Active; 'I' for Inactive)
REMARK    1  A    between atoms: C_1  and  N_2
REMARK    2  A    between atoms: N_2  and  C_3
REMARK    3  A    between atoms: N_2  and  C_9
REMARK    4  A    between atoms: C_3  and  C_4
REMARK    5  A    between atoms: C_9  and  C_10
REMARK    6  A    between atoms: C_10  and  C_11
REMARK    7  A    between atoms: C_10  and  C_12
REMARK    8  A    between atoms: C_10  and  C_13
REMARK    9  A    between atoms: C_13  and  N_14
REMARK                            x       y       z     vdW  Elec       q    Type
REMARK                         _______ _______ _______ _____ _____    ______ ____
ROOT
ATOM      1  C   UNL     1       4.869   4.988  17.560  0.00  0.00    +0.000 C 
ENDROOT
BRANCH   1   2
ATOM      2  C   UNL     1       3.484   4.326  18.018  0.00  0.00    +0.000 C 
ATOM      3  C   UNL     1       2.394   5.399  17.937  0.00  0.00    +0.000 C 
ATOM      4  C   UNL     1       3.215   3.128  17.082  0.00  0.00    +0.000 C 
BRANCH   2   5
ATOM      5  C   UNL     1       3.585   3.788  19.516  0.00  0.00    +0.000 C 
BRANCH   5   6
ATOM      6  N   UNL     1       2.890   2.518  19.894  0.00  0.00    +0.000 NA
ATOM      7  C   UNL     1       1.474   2.346  19.540  0.00  0.00    +0.000 C 
ATOM      8  C   UNL     1       0.719   3.175  20.564  0.00  0.00    +0.000 C 
ATOM      9  C   UNL     1       1.442   2.774  21.839  0.00  0.00    +0.000 C 
ATOM     10  C   UNL     1       2.844   2.357  21.372  0.00  0.00    +0.000 C 
ENDBRANCH   5   6
ENDBRANCH   2   5
ENDBRANCH   1   2
BRANCH   1  12
ATOM     11  C   UNL     1       5.408   4.750  15.154  0.00  0.00    +0.000 C 
ATOM     12  N   UNL     1       5.693   4.282  16.519  0.00  0.00    +0.000 NA
BRANCH  12  13
ATOM     13  C   UNL     1       7.150   4.476  16.790  0.00  0.00    +0.000 C 
BRANCH  13  14
ATOM     14  C   UNL     1       7.443   5.867  17.325  0.00  0.00    +0.000 A 
ATOM     15  C   UNL     1       7.836   6.232  18.638  0.00  0.00    +0.000 A 
ATOM     16  C   UNL     1       8.128   7.572  18.569  0.00  0.00    +0.000 A 
ATOM     17  N   UNL     1       7.896   7.940  17.278  0.00  0.00    +0.000 N 
ATOM     18  N   UNL     1       7.437   6.936  16.510  0.00  0.00    +0.000 NA
ATOM     19  H   UNL     1       8.047   8.848  16.848  0.00  0.00    +0.000 HD
ENDBRANCH  13  14
ENDBRANCH  12  13
ENDBRANCH   1  12
TORSDOF 6
ENDMDL
MODEL 7
REMARK VINA RESULT:      -5.9      1.721      6.468
REMARK  Name = 
REMARK  9 active torsions:
REMARK  status: ('A' for Active; 'I' for Inactive)
REMARK    1  A    between atoms: C_1  and  N_2
REMARK    2  A    between atoms: N_2  and  C_3
REMARK    3  A    between atoms: N_2  and  C_9
REMARK    4  A    between atoms: C_3  and  C_4
REMARK    5  A    between atoms: C_9  and  C_10
REMARK    6  A    between atoms: C_10  and  C_11
REMARK    7  A    between atoms: C_10  and  C_12
REMARK    8  A    between atoms: C_10  and  C_13
REMARK    9  A    between atoms: C_13  and  N_14
REMARK                            x       y       z     vdW  Elec       q    Type
REMARK                         _______ _______ _______ _____ _____    ______ ____
ROOT
ATOM      1  C   UNL     1       2.841   5.374  18.345  0.00  0.00    +0.000 C 
ENDROOT
BRANCH   1   2
ATOM      2  C   UNL     1       4.248   4.621  18.196  0.00  0.00    +0.000 C 
ATOM      3  C   UNL     1       5.184   5.142  19.292  0.00  0.00    +0.000 C 
ATOM      4  C   UNL     1       3.974   3.106  18.315  0.00  0.00    +0.000 C 
BRANCH   2   5
ATOM      5  C   UNL     1       4.894   4.911  16.768  0.00  0.00    +0.000 C 
BRANCH   5   6
ATOM      6  N   UNL     1       6.046   4.081  16.295  0.00  0.00    +0.000 NA
ATOM      7  C   UNL     1       7.281   4.752  15.866  0.00  0.00    +0.000 C 
ATOM      8  C   UNL     1       6.969   5.280  14.476  0.00  0.00    +0.000 C 
ATOM      9  C   UNL     1       6.273   4.074  13.868  0.00  0.00    +0.000 C 
ATOM     10  C   UNL     1       5.685   3.320  15.069  0.00  0.00    +0.000 C 
ENDBRANCH   5   6
ENDBRANCH   2   5
ENDBRANCH   1   2
BRANCH   1  12
ATOM     11  C   UNL     1       2.379   7.792  18.622  0.00  0.00    +0.000 C 
ATOM     12  N   UNL     1       2.746   6.536  19.295  0.00  0.00    +0.000 NA
BRANCH  12  13
ATOM     13  C   UNL     1       1.734   6.256  20.358  0.00  0.00    +0.000 C 
BRANCH  13  14
ATOM     14  C   UNL     1       1.646   4.774  20.675  0.00  0.00    +0.000 A 
ATOM     15  C   UNL     1       2.451   4.022  21.567  0.00  0.00    +0.000 A 
ATOM     16  C   UNL     1       1.874   2.777  21.616  0.00  0.00    +0.000 A 
ATOM     17  N   UNL     1       0.801   2.829  20.778  0.00  0.00    +0.000 N 
ATOM     18  N   UNL     1       0.663   4.015  20.158  0.00  0.00    +0.000 NA
ATOM     19  H   UNL     1       0.112   2.105  20.596  0.00  0.00    +0.000 HD
ENDBRANCH  13  14
ENDBRANCH  12  13
ENDBRANCH   1  12
TORSDOF 6
ENDMDL
MODEL 8
REMARK VINA RESULT:      -5.8      1.299      1.513
REMARK  Name = 
REMARK  9 active torsions:
REMARK  status: ('A' for Active; 'I' for Inactive)
REMARK    1  A    between atoms: C_1  and  N_2
REMARK    2  A    between atoms: N_2  and  C_3
REMARK    3  A    between atoms: N_2  and  C_9
REMARK    4  A    between atoms: C_3  and  C_4
REMARK    5  A    between atoms: C_9  and  C_10
REMARK    6  A    between atoms: C_10  and  C_11
REMARK    7  A    between atoms: C_10  and  C_12
REMARK    8  A    between atoms: C_10  and  C_13
REMARK    9  A    between atoms: C_13  and  N_14
REMARK                            x       y       z     vdW  Elec       q    Type
REMARK                         _______ _______ _______ _____ _____    ______ ____
ROOT
ATOM      1  C   UNL     1       5.485   4.819  18.660  0.00  0.00    +0.000 C 
ENDROOT
BRANCH   1   2
ATOM      2  C   UNL     1       4.091   5.496  18.252  0.00  0.00    +0.000 C 
ATOM      3  C   UNL     1       3.610   6.343  19.435  0.00  0.00    +0.000 C 
ATOM      4  C   UNL     1       4.340   6.334  16.980  0.00  0.00    +0.000 C 
BRANCH   2   5
ATOM      5  C   UNL     1       2.999   4.383  17.923  0.00  0.00    +0.000 C 
BRANCH   5   6
ATOM      6  N   UNL     1       3.002   3.094  18.685  0.00  0.00    +0.000 NA
ATOM      7  C   UNL     1       2.085   2.021  18.277  0.00  0.00    +0.000 C 
ATOM      8  C   UNL     1       0.732   2.447  18.820  0.00  0.00    +0.000 C 
ATOM      9  C   UNL     1       1.118   2.896  20.218  0.00  0.00    +0.000 C 
ATOM     10  C   UNL     1       2.591   3.310  20.098  0.00  0.00    +0.000 C 
ENDBRANCH   5   6
ENDBRANCH   2   5
ENDBRANCH   1   2
BRANCH   1  12
ATOM     11  C   UNL     1       7.613   5.922  19.286  0.00  0.00    +0.000 C 
ATOM     12  N   UNL     1       6.760   5.457  18.181  0.00  0.00    +0.000 NA
BRANCH  12  13
ATOM     13  C   UNL     1       7.544   4.493  17.352  0.00  0.00    +0.000 C 
BRANCH  13  14
ATOM     14  C   UNL     1       6.988   4.381  15.943  0.00  0.00    +0.000 A 
ATOM     15  C   UNL     1       7.336   5.150  14.804  0.00  0.00    +0.000 A 
ATOM     16  C   UNL     1       6.677   4.561  13.753  0.00  0.00    +0.000 A 
ATOM     17  N   UNL     1       5.983   3.516  14.285  0.00  0.00    +0.000 N 
ATOM     18  N   UNL     1       6.117   3.409  15.619  0.00  0.00    +0.000 NA
ATOM     19  H   UNL     1       5.417   2.828  13.799  0.00  0.00    +0.000 HD
ENDBRANCH  13  14
ENDBRANCH  12  13
ENDBRANCH   1  12
TORSDOF 6
ENDMDL
MODEL 9
REMARK VINA RESULT:      -5.8      1.598      6.010
REMARK  Name = 
REMARK  9 active torsions:
REMARK  status: ('A' for Active; 'I' for Inactive)
REMARK    1  A    between atoms: C_1  and  N_2
REMARK    2  A    between atoms: N_2  and  C_3
REMARK    3  A    between atoms: N_2  and  C_9
REMARK    4  A    between atoms: C_3  and  C_4
REMARK    5  A    between atoms: C_9  and  C_10
REMARK    6  A    between atoms: C_10  and  C_11
REMARK    7  A    between atoms: C_10  and  C_12
REMARK    8  A    between atoms: C_10  and  C_13
REMARK    9  A    between atoms: C_13  and  N_14
REMARK                            x       y       z     vdW  Elec       q    Type
REMARK                         _______ _______ _______ _____ _____    ______ ____
ROOT
ATOM      1  C   UNL     1       5.750   5.909  18.916  0.00  0.00    +0.000 C 
ENDROOT
BRANCH   1   2
ATOM      2  C   UNL     1       7.186   5.947  18.207  0.00  0.00    +0.000 C 
ATOM      3  C   UNL     1       7.475   7.395  17.796  0.00  0.00    +0.000 C 
ATOM      4  C   UNL     1       8.214   5.398  19.220  0.00  0.00    +0.000 C 
BRANCH   2   5
ATOM      5  C   UNL     1       7.201   5.018  16.912  0.00  0.00    +0.000 C 
BRANCH   5   6
ATOM      6  N   UNL     1       6.845   5.600  15.580  0.00  0.00    +0.000 NA
ATOM      7  C   UNL     1       5.428   5.726  15.211  0.00  0.00    +0.000 C 
ATOM      8  C   UNL     1       5.009   4.320  14.815  0.00  0.00    +0.000 C 
ATOM      9  C   UNL     1       6.190   3.907  13.953  0.00  0.00    +0.000 C 
ATOM     10  C   UNL     1       7.362   4.750  14.474  0.00  0.00    +0.000 C 
ENDBRANCH   5   6
ENDBRANCH   2   5
ENDBRANCH   1   2
BRANCH   1  12
ATOM     11  C   UNL     1       4.863   3.638  19.352  0.00  0.00    +0.000 C 
ATOM     12  N   UNL     1       4.776   4.839  18.508  0.00  0.00    +0.000 NA
BRANCH  12  13
ATOM     13  C   UNL     1       3.376   5.360  18.569  0.00  0.00    +0.000 C 
BRANCH  13  14
ATOM     14  C   UNL     1       2.379   4.259  18.885  0.00  0.00    +0.000 A 
ATOM     15  C   UNL     1       1.626   4.078  20.073  0.00  0.00    +0.000 A 
ATOM     16  C   UNL     1       0.766   3.042  19.803  0.00  0.00    +0.000 A 
ATOM     17  N   UNL     1       1.036   2.655  18.525  0.00  0.00    +0.000 N 
ATOM     18  N   UNL     1       2.041   3.346  17.957  0.00  0.00    +0.000 NA
ATOM     19  H   UNL     1       0.565   1.945  17.972  0.00  0.00    +0.000 HD
ENDBRANCH  13  14
ENDBRANCH  12  13
ENDBRANCH   1  12
TORSDOF 6
ENDMDL
