MODEL 1
REMARK VINA RESULT:      -7.8      0.000      0.000
REMARK  Name = 
REMARK  5 active torsions:
REMARK  status: ('A' for Active; 'I' for Inactive)
REMARK    1  A    between atoms: C_1  and  C_2
REMARK    2  A    between atoms: C_2  and  C_16
REMARK    3  A    between atoms: N_3  and  N_4
REMARK    4  A    between atoms: N_4  and  C_5
REMARK    5  A    between atoms: C_7  and  C_8
REMARK                            x       y       z     vdW  Elec       q    Type
REMARK                         _______ _______ _______ _____ _____    ______ ____
ROOT
ATOM      1  N   UNL     1       2.679   7.436  18.224  0.00  0.00    +0.000 N 
ATOM      2  H   UNL     1       3.348   7.959  17.661  0.00  0.00    +0.000 HD
ENDROOT
BRANCH   1   3
ATOM      3  C   UNL     1       2.867   6.035  18.134  0.00  0.00    +0.000 A 
ATOM      4  C   UNL     1       1.981   5.151  18.769  0.00  0.00    +0.000 A 
ATOM      5  C   UNL     1       2.105   3.759  18.649  0.00  0.00    +0.000 A 
ATOM      6  C   UNL     1       3.119   3.240  17.835  0.00  0.00    +0.000 A 
ATOM      7  C   UNL     1       3.993   4.099  17.165  0.00  0.00    +0.000 A 
ATOM      8  C   UNL     1       3.867   5.482  17.312  0.00  0.00    +0.000 A 
ATOM      9 CL   UNL     1       4.976   6.502  16.460  0.00  0.00    +0.000 Cl
BRANCH   5  10
ATOM     10  C   UNL     1       1.157   2.846  19.384  0.00  0.00    +0.000 C 
ATOM     11  F   UNL     1       0.260   2.216  18.574  0.00  0.00    +0.000 F 
ATOM     12  F   UNL     1       1.805   1.857  20.061  0.00  0.00    +0.000 F 
ATOM     13  F   UNL     1       0.414   3.511  20.313  0.00  0.00    +0.000 F 
ENDBRANCH   5  10
ENDBRANCH   1   3
BRANCH   1  16
ATOM     14  C   UNL     1       1.157   9.858  18.119  0.00  0.00    +0.000 C 
ATOM     15  C   UNL     1       1.444   9.026  19.353  0.00  0.00    +0.000 C 
ATOM     16  N   UNL     1       2.153   7.935  19.367  0.00  0.00    +0.000 NA
BRANCH  15  17
ATOM     17  C   UNL     1       0.846   9.490  20.655  0.00  0.00    +0.000 A 
ATOM     18  C   UNL     1       1.131   8.852  21.862  0.00  0.00    +0.000 A 
ATOM     19  C   UNL     1       0.550   9.345  23.021  0.00  0.00    +0.000 A 
ATOM     20  N   UNL     1      -0.274  10.410  23.053  0.00  0.00    +0.000 NA
ATOM     21  C   UNL     1      -0.534  11.015  21.876  0.00  0.00    +0.000 A 
ATOM     22  C   UNL     1      -0.004  10.601  20.666  0.00  0.00    +0.000 A 
ENDBRANCH  15  17
ENDBRANCH   1  16
TORSDOF 4
ENDMDL
MODEL 2
REMARK VINA RESULT:      -7.8      0.112      1.324
REMARK  Name = 
REMARK  5 active torsions:
REMARK  status: ('A' for Active; 'I' for Inactive)
REMARK    1  A    between atoms: C_1  and  C_2
REMARK    2  A    between atoms: C_2  and  C_16
REMARK    3  A    between atoms: N_3  and  N_4
REMARK    4  A    between atoms: N_4  and  C_5
REMARK    5  A    between atoms: C_7  and  C_8
REMARK                            x       y       z     vdW  Elec       q    Type
REMARK                         _______ _______ _______ _____ _____    ______ ____
ROOT
ATOM      1  N   UNL     1       2.669   7.476  18.188  0.00  0.00    +0.000 N 
ATOM      2  H   UNL     1       3.321   7.981  17.588  0.00  0.00    +0.000 HD
ENDROOT
BRANCH   1   3
ATOM      3  C   UNL     1       2.860   6.074  18.140  0.00  0.00    +0.000 A 
ATOM      4  C   UNL     1       1.964   5.207  18.786  0.00  0.00    +0.000 A 
ATOM      5  C   UNL     1       2.091   3.812  18.707  0.00  0.00    +0.000 A 
ATOM      6  C   UNL     1       3.118   3.271  17.923  0.00  0.00    +0.000 A 
ATOM      7  C   UNL     1       4.001   4.112  17.242  0.00  0.00    +0.000 A 
ATOM      8  C   UNL     1       3.872   5.499  17.349  0.00  0.00    +0.000 A 
ATOM      9 CL   UNL     1       4.994   6.495  16.485  0.00  0.00    +0.000 Cl
BRANCH   5  10
ATOM     10  C   UNL     1       1.133   2.919  19.453  0.00  0.00    +0.000 C 
ATOM     11  F   UNL     1       1.745   1.945  20.185  0.00  0.00    +0.000 F 
ATOM     12  F   UNL     1       0.352   3.608  20.330  0.00  0.00    +0.000 F 
ATOM     13  F   UNL     1       0.275   2.269  18.618  0.00  0.00    +0.000 F 
ENDBRANCH   5  10
ENDBRANCH   1   3
BRANCH   1  16
ATOM     14  C   UNL     1       0.896   9.716  18.022  0.00  0.00    +0.000 C 
ATOM     15  C   UNL     1       1.355   9.022  19.288  0.00  0.00    +0.000 C 
ATOM     16  N   UNL     1       2.176   8.013  19.328  0.00  0.00    +0.000 NA
BRANCH  15  17
ATOM     17  C   UNL     1       0.805   9.530  20.595  0.00  0.00    +0.000 A 
ATOM     18  C   UNL     1       0.034  10.691  20.665  0.00  0.00    +0.000 A 
ATOM     19  C   UNL     1      -0.445  11.089  21.903  0.00  0.00    +0.000 A 
ATOM     20  N   UNL     1      -0.214  10.419  23.049  0.00  0.00    +0.000 NA
ATOM     21  C   UNL     1       0.531   9.297  22.959  0.00  0.00    +0.000 A 
ATOM     22  C   UNL     1       1.054   8.816  21.772  0.00  0.00    +0.000 A 
ENDBRANCH  15  17
ENDBRANCH   1  16
TORSDOF 4
ENDMDL
MODEL 3
REMARK VINA RESULT:      -7.4      0.930      1.200
REMARK  Name = 
REMARK  5 active torsions:
REMARK  status: ('A' for Active; 'I' for Inactive)
REMARK    1  A    between atoms: C_1  and  C_2
REMARK    2  A    between atoms: C_2  and  C_16
REMARK    3  A    between atoms: N_3  and  N_4
REMARK    4  A    between atoms: N_4  and  C_5
REMARK    5  A    between atoms: C_7  and  C_8
REMARK                            x       y       z     vdW  Elec       q    Type
REMARK                         _______ _______ _______ _____ _____    ______ ____
ROOT
ATOM      1  N   UNL     1       2.462   7.444  18.713  0.00  0.00    +0.000 N 
ATOM      2  H   UNL     1       2.947   7.974  17.990  0.00  0.00    +0.000 HD
ENDROOT
BRANCH   1   3
ATOM      3  C   UNL     1       2.972   6.130  18.859  0.00  0.00    +0.000 A 
ATOM      4  C   UNL     1       2.298   5.185  19.648  0.00  0.00    +0.000 A 
ATOM      5  C   UNL     1       2.744   3.859  19.764  0.00  0.00    +0.000 A 
ATOM      6  C   UNL     1       3.870   3.459  19.033  0.00  0.00    +0.000 A 
ATOM      7  C   UNL     1       4.537   4.372  18.213  0.00  0.00    +0.000 A 
ATOM      8  C   UNL     1       4.091   5.693  18.126  0.00  0.00    +0.000 A 
ATOM      9 CL   UNL     1       4.955   6.784  17.096  0.00  0.00    +0.000 Cl
BRANCH   5  10
ATOM     10  C   UNL     1       2.016   2.888  20.658  0.00  0.00    +0.000 C 
ATOM     11  F   UNL     1       0.871   3.392  21.200  0.00  0.00    +0.000 F 
ATOM     12  F   UNL     1       1.648   1.751  20.004  0.00  0.00    +0.000 F 
ATOM     13  F   UNL     1       2.778   2.484  21.712  0.00  0.00    +0.000 F 
ENDBRANCH   5  10
ENDBRANCH   1   3
BRANCH   1  16
ATOM     14  C   UNL     1       0.885   9.806  18.366  0.00  0.00    +0.000 C 
ATOM     15  C   UNL     1       1.182   9.105  19.675  0.00  0.00    +0.000 C 
ATOM     16  N   UNL     1       1.916   8.038  19.800  0.00  0.00    +0.000 NA
BRANCH  15  17
ATOM     17  C   UNL     1       0.563   9.678  20.923  0.00  0.00    +0.000 A 
ATOM     18  C   UNL     1       0.495   8.949  22.111  0.00  0.00    +0.000 A 
ATOM     19  C   UNL     1      -0.079   9.550  23.220  0.00  0.00    +0.000 A 
ATOM     20  N   UNL     1      -0.577  10.802  23.223  0.00  0.00    +0.000 NA
ATOM     21  C   UNL     1      -0.499  11.492  22.066  0.00  0.00    +0.000 A 
ATOM     22  C   UNL     1       0.056  10.982  20.905  0.00  0.00    +0.000 A 
ENDBRANCH  15  17
ENDBRANCH   1  16
TORSDOF 4
ENDMDL
MODEL 4
REMARK VINA RESULT:      -7.4      1.071      1.748
REMARK  Name = 
REMARK  5 active torsions:
REMARK  status: ('A' for Active; 'I' for Inactive)
REMARK    1  A    between atoms: C_1  and  C_2
REMARK    2  A    between atoms: C_2  and  C_16
REMARK    3  A    between atoms: N_3  and  N_4
REMARK    4  A    between atoms: N_4  and  C_5
REMARK    5  A    between atoms: C_7  and  C_8
REMARK                            x       y       z     vdW  Elec       q    Type
REMARK                         _______ _______ _______ _____ _____    ______ ____
ROOT
ATOM      1  N   UNL     1       2.489   7.423  18.660  0.00  0.00    +0.000 N 
ATOM      2  H   UNL     1       2.940   7.953  17.915  0.00  0.00    +0.000 HD
ENDROOT
BRANCH   1   3
ATOM      3  C   UNL     1       3.035   6.125  18.812  0.00  0.00    +0.000 A 
ATOM      4  C   UNL     1       2.513   5.236  19.765  0.00  0.00    +0.000 A 
ATOM      5  C   UNL     1       2.992   3.924  19.899  0.00  0.00    +0.000 A 
ATOM      6  C   UNL     1       3.991   3.478  19.026  0.00  0.00    +0.000 A 
ATOM      7  C   UNL     1       4.503   4.332  18.046  0.00  0.00    +0.000 A 
ATOM      8  C   UNL     1       4.029   5.642  17.940  0.00  0.00    +0.000 A 
ATOM      9 CL   UNL     1       4.698   6.659  16.710  0.00  0.00    +0.000 Cl
BRANCH   5  10
ATOM     10  C   UNL     1       2.433   3.017  20.965  0.00  0.00    +0.000 C 
ATOM     11  F   UNL     1       1.802   3.680  21.976  0.00  0.00    +0.000 F 
ATOM     12  F   UNL     1       1.521   2.134  20.473  0.00  0.00    +0.000 F 
ATOM     13  F   UNL     1       3.399   2.264  21.563  0.00  0.00    +0.000 F 
ENDBRANCH   5  10
ENDBRANCH   1   3
BRANCH   1  16
ATOM     14  C   UNL     1       0.897   9.778  18.323  0.00  0.00    +0.000 C 
ATOM     15  C   UNL     1       1.217   9.085  19.632  0.00  0.00    +0.000 C 
ATOM     16  N   UNL     1       1.957   8.022  19.751  0.00  0.00    +0.000 NA
BRANCH  15  17
ATOM     17  C   UNL     1       0.615   9.664  20.886  0.00  0.00    +0.000 A 
ATOM     18  C   UNL     1      -0.015  10.909  20.891  0.00  0.00    +0.000 A 
ATOM     19  C   UNL     1      -0.553  11.369  22.083  0.00  0.00    +0.000 A 
ATOM     20  N   UNL     1      -0.508  10.684  23.242  0.00  0.00    +0.000 NA
ATOM     21  C   UNL     1       0.103   9.481  23.215  0.00  0.00    +0.000 A 
ATOM     22  C   UNL     1       0.671   8.934  22.078  0.00  0.00    +0.000 A 
ENDBRANCH  15  17
ENDBRANCH   1  16
TORSDOF 4
ENDMDL
MODEL 5
REMARK VINA RESULT:      -7.2      3.831      5.013
REMARK  Name = 
REMARK  5 active torsions:
REMARK  status: ('A' for Active; 'I' for Inactive)
REMARK    1  A    between atoms: C_1  and  C_2
REMARK    2  A    between atoms: C_2  and  C_16
REMARK    3  A    between atoms: N_3  and  N_4
REMARK    4  A    between atoms: N_4  and  C_5
REMARK    5  A    between atoms: C_7  and  C_8
REMARK                            x       y       z     vdW  Elec       q    Type
REMARK                         _______ _______ _______ _____ _____    ______ ____
ROOT
ATOM      1  N   UNL     1       3.626   4.685  17.759  0.00  0.00    +0.000 N 
ATOM      2  H   UNL     1       3.049   3.850  17.665  0.00  0.00    +0.000 HD
ENDROOT
BRANCH   1   3
ATOM      3  C   UNL     1       4.858   4.576  17.069  0.00  0.00    +0.000 A 
ATOM      4  C   UNL     1       4.886   4.309  15.691  0.00  0.00    +0.000 A 
ATOM      5  C   UNL     1       6.087   4.254  14.967  0.00  0.00    +0.000 A 
ATOM      6  C   UNL     1       7.289   4.518  15.635  0.00  0.00    +0.000 A 
ATOM      7  C   UNL     1       7.285   4.820  16.999  0.00  0.00    +0.000 A 
ATOM      8  C   UNL     1       6.082   4.851  17.707  0.00  0.00    +0.000 A 
ATOM      9 CL   UNL     1       6.134   5.230  19.395  0.00  0.00    +0.000 Cl
BRANCH   5  10
ATOM     10  C   UNL     1       6.074   3.920  13.498  0.00  0.00    +0.000 C 
ATOM     11  F   UNL     1       6.409   2.627  13.224  0.00  0.00    +0.000 F 
ATOM     12  F   UNL     1       4.852   4.115  12.929  0.00  0.00    +0.000 F 
ATOM     13  F   UNL     1       6.946   4.687  12.785  0.00  0.00    +0.000 F 
ENDBRANCH   5  10
ENDBRANCH   1   3
BRANCH   1  16
ATOM     14  C   UNL     1       2.454   5.394  20.271  0.00  0.00    +0.000 C 
ATOM     15  C   UNL     1       2.563   6.278  19.046  0.00  0.00    +0.000 C 
ATOM     16  N   UNL     1       3.090   5.918  17.912  0.00  0.00    +0.000 NA
BRANCH  15  17
ATOM     17  C   UNL     1       2.036   7.685  19.158  0.00  0.00    +0.000 A 
ATOM     18  C   UNL     1       2.033   8.557  18.069  0.00  0.00    +0.000 A 
ATOM     19  C   UNL     1       1.521   9.833  18.249  0.00  0.00    +0.000 A 
ATOM     20  N   UNL     1       1.022  10.284  19.416  0.00  0.00    +0.000 NA
ATOM     21  C   UNL     1       1.030   9.424  20.456  0.00  0.00    +0.000 A 
ATOM     22  C   UNL     1       1.518   8.132  20.379  0.00  0.00    +0.000 A 
ENDBRANCH  15  17
ENDBRANCH   1  16
TORSDOF 4
ENDMDL
MODEL 6
REMARK VINA RESULT:      -7.2      3.816      4.956
REMARK  Name = 
REMARK  5 active torsions:
REMARK  status: ('A' for Active; 'I' for Inactive)
REMARK    1  A    between atoms: C_1  and  C_2
REMARK    2  A    between atoms: C_2  and  C_16
REMARK    3  A    between atoms: N_3  and  N_4
REMARK    4  A    between atoms: N_4  and  C_5
REMARK    5  A    between atoms: C_7  and  C_8
REMARK                            x       y       z     vdW  Elec       q    Type
REMARK                         _______ _______ _______ _____ _____    ______ ____
ROOT
ATOM      1  N   UNL     1       3.562   4.659  17.727  0.00  0.00    +0.000 N 
ATOM      2  H   UNL     1       2.985   3.824  17.632  0.00  0.00    +0.000 HD
ENDROOT
BRANCH   1   3
ATOM      3  C   UNL     1       4.796   4.549  17.041  0.00  0.00    +0.000 A 
ATOM      4  C   UNL     1       4.828   4.287  15.663  0.00  0.00    +0.000 A 
ATOM      5  C   UNL     1       6.032   4.233  14.943  0.00  0.00    +0.000 A 
ATOM      6  C   UNL     1       7.232   4.492  15.616  0.00  0.00    +0.000 A 
ATOM      7  C   UNL     1       7.224   4.790  16.981  0.00  0.00    +0.000 A 
ATOM      8  C   UNL     1       6.018   4.820  17.685  0.00  0.00    +0.000 A 
ATOM      9 CL   UNL     1       6.065   5.193  19.374  0.00  0.00    +0.000 Cl
BRANCH   5  10
ATOM     10  C   UNL     1       6.023   3.905  13.472  0.00  0.00    +0.000 C 
ATOM     11  F   UNL     1       4.799   4.038  12.885  0.00  0.00    +0.000 F 
ATOM     12  F   UNL     1       6.867   4.697  12.755  0.00  0.00    +0.000 F 
ATOM     13  F   UNL     1       6.413   2.622  13.226  0.00  0.00    +0.000 F 
ENDBRANCH   5  10
ENDBRANCH   1   3
BRANCH   1  16
ATOM     14  C   UNL     1       2.456   5.398  20.261  0.00  0.00    +0.000 C 
ATOM     15  C   UNL     1       2.528   6.265  19.021  0.00  0.00    +0.000 C 
ATOM     16  N   UNL     1       3.025   5.892  17.878  0.00  0.00    +0.000 NA
BRANCH  15  17
ATOM     17  C   UNL     1       1.997   7.671  19.128  0.00  0.00    +0.000 A 
ATOM     18  C   UNL     1       1.490   8.175  20.326  0.00  0.00    +0.000 A 
ATOM     19  C   UNL     1       1.030   9.482  20.349  0.00  0.00    +0.000 A 
ATOM     20  N   UNL     1       1.044  10.302  19.280  0.00  0.00    +0.000 NA
ATOM     21  C   UNL     1       1.542   9.797  18.131  0.00  0.00    +0.000 A 
ATOM     22  C   UNL     1       2.025   8.506  18.007  0.00  0.00    +0.000 A 
ENDBRANCH  15  17
ENDBRANCH   1  16
TORSDOF 4
ENDMDL
MODEL 7
REMARK VINA RESULT:      -7.2      3.156      3.715
REMARK  Name = 
REMARK  5 active torsions:
REMARK  status: ('A' for Active; 'I' for Inactive)
REMARK    1  A    between atoms: C_1  and  C_2
REMARK    2  A    between atoms: C_2  and  C_16
REMARK    3  A    between atoms: N_3  and  N_4
REMARK    4  A    between atoms: N_4  and  C_5
REMARK    5  A    between atoms: C_7  and  C_8
REMARK                            x       y       z     vdW  Elec       q    Type
REMARK                         _______ _______ _______ _____ _____    ______ ____
ROOT
ATOM      1  N   UNL     1       2.648   7.171  17.965  0.00  0.00    +0.000 N 
ATOM      2  H   UNL     1       2.776   7.725  17.119  0.00  0.00    +0.000 HD
ENDROOT
BRANCH   1   3
ATOM      3  C   UNL     1       3.558   6.089  18.051  0.00  0.00    +0.000 A 
ATOM      4  C   UNL     1       4.919   6.317  18.307  0.00  0.00    +0.000 A 
ATOM      5  C   UNL     1       5.834   5.264  18.458  0.00  0.00    +0.000 A 
ATOM      6  C   UNL     1       5.364   3.947  18.392  0.00  0.00    +0.000 A 
ATOM      7  C   UNL     1       4.008   3.693  18.172  0.00  0.00    +0.000 A 
ATOM      8  C   UNL     1       3.114   4.754  18.005  0.00  0.00    +0.000 A 
ATOM      9 CL   UNL     1       1.445   4.385  17.734  0.00  0.00    +0.000 Cl
BRANCH   5  10
ATOM     10  C   UNL     1       7.295   5.554  18.688  0.00  0.00    +0.000 C 
ATOM     11  F   UNL     1       7.723   6.714  18.112  0.00  0.00    +0.000 F 
ATOM     12  F   UNL     1       7.604   5.661  20.010  0.00  0.00    +0.000 F 
ATOM     13  F   UNL     1       8.102   4.575  18.193  0.00  0.00    +0.000 F 
ENDBRANCH   5  10
ENDBRANCH   1   3
BRANCH   1  16
ATOM     14  C   UNL     1       1.256   9.670  17.881  0.00  0.00    +0.000 C 
ATOM     15  C   UNL     1       1.544   8.840  19.115  0.00  0.00    +0.000 C 
ATOM     16  N   UNL     1       2.193   7.713  19.119  0.00  0.00    +0.000 NA
BRANCH  15  17
ATOM     17  C   UNL     1       1.021   9.352  20.431  0.00  0.00    +0.000 A 
ATOM     18  C   UNL     1       1.259   8.677  21.629  0.00  0.00    +0.000 A 
ATOM     19  C   UNL     1       0.754   9.218  22.801  0.00  0.00    +0.000 A 
ATOM     20  N   UNL     1       0.046  10.362  22.857  0.00  0.00    +0.000 NA
ATOM     21  C   UNL     1      -0.170  11.002  21.688  0.00  0.00    +0.000 A 
ATOM     22  C   UNL     1       0.291  10.545  20.466  0.00  0.00    +0.000 A 
ENDBRANCH  15  17
ENDBRANCH   1  16
TORSDOF 4
ENDMDL
MODEL 8
REMARK VINA RESULT:      -7.2      1.816      2.763
REMARK  Name = 
REMARK  5 active torsions:
REMARK  status: ('A' for Active; 'I' for Inactive)
REMARK    1  A    between atoms: C_1  and  C_2
REMARK    2  A    between atoms: C_2  and  C_16
REMARK    3  A    between atoms: N_3  and  N_4
REMARK    4  A    between atoms: N_4  and  C_5
REMARK    5  A    between atoms: C_7  and  C_8
REMARK                            x       y       z     vdW  Elec       q    Type
REMARK                         _______ _______ _______ _____ _____    ______ ____
ROOT
ATOM      1  N   UNL     1       2.034   7.742  20.762  0.00  0.00    +0.000 N 
ATOM      2  H   UNL     1       2.228   7.636  21.757  0.00  0.00    +0.000 HD
ENDROOT
BRANCH   1   3
ATOM      3  C   UNL     1       2.207   6.535  20.042  0.00  0.00    +0.000 A 
ATOM      4  C   UNL     1       1.953   5.296  20.651  0.00  0.00    +0.000 A 
ATOM      5  C   UNL     1       2.057   4.086  19.947  0.00  0.00    +0.000 A 
ATOM      6  C   UNL     1       2.380   4.123  18.586  0.00  0.00    +0.000 A 
ATOM      7  C   UNL     1       2.603   5.346  17.948  0.00  0.00    +0.000 A 
ATOM      8  C   UNL     1       2.515   6.539  18.669  0.00  0.00    +0.000 A 
ATOM      9 CL   UNL     1       2.802   8.026  17.831  0.00  0.00    +0.000 Cl
BRANCH   5  10
ATOM     10  C   UNL     1       1.819   2.775  20.652  0.00  0.00    +0.000 C 
ATOM     11  F   UNL     1       2.871   2.361  21.415  0.00  0.00    +0.000 F 
ATOM     12  F   UNL     1       0.747   2.820  21.490  0.00  0.00    +0.000 F 
ATOM     13  F   UNL     1       1.571   1.757  19.781  0.00  0.00    +0.000 F 
ENDBRANCH   5  10
ENDBRANCH   1   3
BRANCH   1  16
ATOM     14  C   UNL     1       0.551   9.331  22.624  0.00  0.00    +0.000 C 
ATOM     15  C   UNL     1       0.454   9.387  21.113  0.00  0.00    +0.000 C 
ATOM     16  N   UNL     1       1.134   8.638  20.295  0.00  0.00    +0.000 NA
BRANCH  15  17
ATOM     17  C   UNL     1      -0.489  10.400  20.517  0.00  0.00    +0.000 A 
ATOM     18  C   UNL     1      -0.988  11.467  21.264  0.00  0.00    +0.000 A 
ATOM     19  C   UNL     1      -1.843  12.364  20.642  0.00  0.00    +0.000 A 
ATOM     20  N   UNL     1      -2.222  12.269  19.352  0.00  0.00    +0.000 NA
ATOM     21  C   UNL     1      -1.726  11.231  18.646  0.00  0.00    +0.000 A 
ATOM     22  C   UNL     1      -0.866  10.284  19.175  0.00  0.00    +0.000 A 
ENDBRANCH  15  17
ENDBRANCH   1  16
TORSDOF 4
ENDMDL
MODEL 9
REMARK VINA RESULT:      -7.1      1.804      2.629
REMARK  Name = 
REMARK  5 active torsions:
REMARK  status: ('A' for Active; 'I' for Inactive)
REMARK    1  A    between atoms: C_1  and  C_2
REMARK    2  A    between atoms: C_2  and  C_16
REMARK    3  A    between atoms: N_3  and  N_4
REMARK    4  A    between atoms: N_4  and  C_5
REMARK    5  A    between atoms: C_7  and  C_8
REMARK                            x       y       z     vdW  Elec       q    Type
REMARK                         _______ _______ _______ _____ _____    ______ ____
ROOT
ATOM      1  N   UNL     1       2.058   7.754  20.731  0.00  0.00    +0.000 N 
ATOM      2  H   UNL     1       2.250   7.650  21.727  0.00  0.00    +0.000 HD
ENDROOT
BRANCH   1   3
ATOM      3  C   UNL     1       2.224   6.544  20.015  0.00  0.00    +0.000 A 
ATOM      4  C   UNL     1       1.973   5.307  20.630  0.00  0.00    +0.000 A 
ATOM      5  C   UNL     1       2.070   4.095  19.931  0.00  0.00    +0.000 A 
ATOM      6  C   UNL     1       2.385   4.126  18.567  0.00  0.00    +0.000 A 
ATOM      7  C   UNL     1       2.605   5.346  17.923  0.00  0.00    +0.000 A 
ATOM      8  C   UNL     1       2.524   6.542  18.640  0.00  0.00    +0.000 A 
ATOM      9 CL   UNL     1       2.807   8.025  17.794  0.00  0.00    +0.000 Cl
BRANCH   5  10
ATOM     10  C   UNL     1       1.835   2.787  20.642  0.00  0.00    +0.000 C 
ATOM     11  F   UNL     1       1.553   1.748  19.805  0.00  0.00    +0.000 F 
ATOM     12  F   UNL     1       2.911   2.391  21.376  0.00  0.00    +0.000 F 
ATOM     13  F   UNL     1       0.790   2.853  21.515  0.00  0.00    +0.000 F 
ENDBRANCH   5  10
ENDBRANCH   1   3
BRANCH   1  16
ATOM     14  C   UNL     1       0.528   9.304  22.588  0.00  0.00    +0.000 C 
ATOM     15  C   UNL     1       0.463   9.386  21.076  0.00  0.00    +0.000 C 
ATOM     16  N   UNL     1       1.164   8.655  20.260  0.00  0.00    +0.000 NA
BRANCH  15  17
ATOM     17  C   UNL     1      -0.471  10.405  20.478  0.00  0.00    +0.000 A 
ATOM     18  C   UNL     1      -0.867  10.341  19.141  0.00  0.00    +0.000 A 
ATOM     19  C   UNL     1      -1.738  11.310  18.666  0.00  0.00    +0.000 A 
ATOM     20  N   UNL     1      -2.231  12.312  19.420  0.00  0.00    +0.000 NA
ATOM     21  C   UNL     1      -1.838  12.354  20.710  0.00  0.00    +0.000 A 
ATOM     22  C   UNL     1      -0.973  11.435  21.279  0.00  0.00    +0.000 A 
ENDBRANCH  15  17
ENDBRANCH   1  16
TORSDOF 4
ENDMDL
