MODEL 1
REMARK VINA RESULT:      -8.2      0.000      0.000
REMARK  Name = 
REMARK  3 active torsions:
REMARK  status: ('A' for Active; 'I' for Inactive)
REMARK    1  A    between atoms: C_1  and  S_2
REMARK    2  A    between atoms: S_2  and  N_5
REMARK    3  A    between atoms: C_10  and  C_11
REMARK                            x       y       z     vdW  Elec       q    Type
REMARK                         _______ _______ _______ _____ _____    ______ ____
ROOT
ATOM      1  C   UNL     1       2.819   5.737  18.573  0.00  0.00    +0.000 A 
ATOM      2  C   UNL     1       2.345   5.384  19.838  0.00  0.00    +0.000 A 
ATOM      3  C   UNL     1       1.823   6.343  20.698  0.00  0.00    +0.000 A 
ATOM      4  C   UNL     1       1.725   7.653  20.263  0.00  0.00    +0.000 A 
ATOM      5  N   UNL     1       1.202   8.606  21.152  0.00  0.00    +0.000 N 
ATOM      6  C   UNL     1       0.694   9.847  20.754  0.00  0.00    +0.000 A 
ATOM      7  C   UNL     1      -0.145   9.976  19.644  0.00  0.00    +0.000 A 
ATOM      8  N   UNL     1      -0.687  11.153  19.239  0.00  0.00    +0.000 NA
ATOM      9  C   UNL     1      -0.338  12.213  19.992  0.00  0.00    +0.000 A 
ATOM     10  C   UNL     1       0.479  12.099  21.105  0.00  0.00    +0.000 A 
ATOM     11  N   UNL     1       0.994  10.918  21.523  0.00  0.00    +0.000 NA
ATOM     12  N   UNL     1       2.119   8.017  19.026  0.00  0.00    +0.000 NA
ATOM     13  C   UNL     1       2.681   7.077  18.229  0.00  0.00    +0.000 A 
ATOM     14  H   UNL     1       1.818   8.748  21.943  0.00  0.00    +0.000 HD
ENDROOT
BRANCH   1  20
ATOM     15  N   UNL     1       4.801   4.216  18.093  0.00  0.00    +0.000 NA
ATOM     16  C   UNL     1       4.683   3.230  19.192  0.00  0.00    +0.000 C 
ATOM     17  C   UNL     1       3.705   2.104  18.847  0.00  0.00    +0.000 C 
ATOM     18  C   UNL     1       2.405   2.532  18.169  0.00  0.00    +0.000 C 
ATOM     19  C   UNL     1       2.625   3.619  17.126  0.00  0.00    +0.000 C 
ATOM     20  C   UNL     1       3.504   4.782  17.615  0.00  0.00    +0.000 C 
BRANCH  15  22
ATOM     21  C   UNL     1       7.431   4.492  17.549  0.00  0.00    +0.000 C 
ATOM     22  S   UNL     1       6.054   5.359  18.274  0.00  0.00    +0.000 S 
ATOM     23  O   UNL     1       6.316   5.536  19.686  0.00  0.00    +0.000 OA
ATOM     24  O   UNL     1       5.772   6.486  17.402  0.00  0.00    +0.000 OA
ENDBRANCH  15  22
ENDBRANCH   1  20
TORSDOF 2
ENDMDL
MODEL 2
REMARK VINA RESULT:      -8.0      2.228      3.362
REMARK  Name = 
REMARK  3 active torsions:
REMARK  status: ('A' for Active; 'I' for Inactive)
REMARK    1  A    between atoms: C_1  and  S_2
REMARK    2  A    between atoms: S_2  and  N_5
REMARK    3  A    between atoms: C_10  and  C_11
REMARK                            x       y       z     vdW  Elec       q    Type
REMARK                         _______ _______ _______ _____ _____    ______ ____
ROOT
ATOM      1  C   UNL     1       3.046   6.660  19.057  0.00  0.00    +0.000 A 
ATOM      2  C   UNL     1       3.102   7.393  17.870  0.00  0.00    +0.000 A 
ATOM      3  C   UNL     1       2.319   8.528  17.694  0.00  0.00    +0.000 A 
ATOM      4  C   UNL     1       1.521   8.961  18.738  0.00  0.00    +0.000 A 
ATOM      5  N   UNL     1       0.733  10.106  18.536  0.00  0.00    +0.000 N 
ATOM      6  C   UNL     1       0.188  10.870  19.572  0.00  0.00    +0.000 A 
ATOM      7  C   UNL     1       0.933  11.212  20.704  0.00  0.00    +0.000 A 
ATOM      8  N   UNL     1       0.458  11.977  21.719  0.00  0.00    +0.000 NA
ATOM      9  C   UNL     1      -0.817  12.379  21.560  0.00  0.00    +0.000 A 
ATOM     10  C   UNL     1      -1.564  12.063  20.438  0.00  0.00    +0.000 A 
ATOM     11  N   UNL     1      -1.076  11.323  19.412  0.00  0.00    +0.000 NA
ATOM     12  N   UNL     1       1.489   8.310  19.919  0.00  0.00    +0.000 NA
ATOM     13  C   UNL     1       2.213   7.172  20.044  0.00  0.00    +0.000 A 
ATOM     14  H   UNL     1       0.012   9.938  17.844  0.00  0.00    +0.000 HD
ENDROOT
BRANCH   1  20
ATOM     15  N   UNL     1       3.434   4.247  18.350  0.00  0.00    +0.000 NA
ATOM     16  C   UNL     1       3.941   4.426  16.969  0.00  0.00    +0.000 C 
ATOM     17  C   UNL     1       5.446   4.700  16.945  0.00  0.00    +0.000 C 
ATOM     18  C   UNL     1       5.966   5.678  17.998  0.00  0.00    +0.000 C 
ATOM     19  C   UNL     1       5.308   5.472  19.356  0.00  0.00    +0.000 C 
ATOM     20  C   UNL     1       3.777   5.352  19.294  0.00  0.00    +0.000 C 
BRANCH  15  22
ATOM     21  C   UNL     1       2.051   1.932  18.224  0.00  0.00    +0.000 C 
ATOM     22  S   UNL     1       1.829   3.682  18.467  0.00  0.00    +0.000 S 
ATOM     23  O   UNL     1       1.073   4.207  17.351  0.00  0.00    +0.000 OA
ATOM     24  O   UNL     1       1.383   3.855  19.839  0.00  0.00    +0.000 OA
ENDBRANCH  15  22
ENDBRANCH   1  20
TORSDOF 2
ENDMDL
MODEL 3
REMARK VINA RESULT:      -7.8      2.064      3.310
REMARK  Name = 
REMARK  3 active torsions:
REMARK  status: ('A' for Active; 'I' for Inactive)
REMARK    1  A    between atoms: C_1  and  S_2
REMARK    2  A    between atoms: S_2  and  N_5
REMARK    3  A    between atoms: C_10  and  C_11
REMARK                            x       y       z     vdW  Elec       q    Type
REMARK                         _______ _______ _______ _____ _____    ______ ____
ROOT
ATOM      1  C   UNL     1       3.808   6.310  18.739  0.00  0.00    +0.000 A 
ATOM      2  C   UNL     1       3.956   7.022  17.547  0.00  0.00    +0.000 A 
ATOM      3  C   UNL     1       3.080   8.048  17.216  0.00  0.00    +0.000 A 
ATOM      4  C   UNL     1       2.087   8.399  18.112  0.00  0.00    +0.000 A 
ATOM      5  N   UNL     1       1.209   9.435  17.754  0.00  0.00    +0.000 N 
ATOM      6  C   UNL     1       0.425  10.145  18.668  0.00  0.00    +0.000 A 
ATOM      7  C   UNL     1       0.944  10.597  19.885  0.00  0.00    +0.000 A 
ATOM      8  N   UNL     1       0.232  11.317  20.789  0.00  0.00    +0.000 NA
ATOM      9  C   UNL     1      -1.042  11.556  20.428  0.00  0.00    +0.000 A 
ATOM     10  C   UNL     1      -1.567  11.130  19.219  0.00  0.00    +0.000 A 
ATOM     11  N   UNL     1      -0.844  10.437  18.306  0.00  0.00    +0.000 NA
ATOM     12  N   UNL     1       1.953   7.771  19.298  0.00  0.00    +0.000 NA
ATOM     13  C   UNL     1       2.780   6.734  19.572  0.00  0.00    +0.000 A 
ATOM     14  H   UNL     1       0.626   9.167  16.969  0.00  0.00    +0.000 HD
ENDROOT
BRANCH   1  20
ATOM     15  N   UNL     1       4.486   3.906  18.256  0.00  0.00    +0.000 NA
ATOM     16  C   UNL     1       5.077   4.036  16.904  0.00  0.00    +0.000 C 
ATOM     17  C   UNL     1       6.546   4.463  16.962  0.00  0.00    +0.000 C 
ATOM     18  C   UNL     1       6.883   5.564  17.966  0.00  0.00    +0.000 C 
ATOM     19  C   UNL     1       6.147   5.390  19.287  0.00  0.00    +0.000 C 
ATOM     20  C   UNL     1       4.645   5.106  19.130  0.00  0.00    +0.000 C 
BRANCH  15  22
ATOM     21  C   UNL     1       3.351   1.457  18.193  0.00  0.00    +0.000 C 
ATOM     22  S   UNL     1       2.940   3.186  18.307  0.00  0.00    +0.000 S 
ATOM     23  O   UNL     1       2.216   3.564  17.113  0.00  0.00    +0.000 OA
ATOM     24  O   UNL     1       2.385   3.391  19.633  0.00  0.00    +0.000 OA
ENDBRANCH  15  22
ENDBRANCH   1  20
TORSDOF 2
ENDMDL
MODEL 4
REMARK VINA RESULT:      -7.4      1.372      2.073
REMARK  Name = 
REMARK  3 active torsions:
REMARK  status: ('A' for Active; 'I' for Inactive)
REMARK    1  A    between atoms: C_1  and  S_2
REMARK    2  A    between atoms: S_2  and  N_5
REMARK    3  A    between atoms: C_10  and  C_11
REMARK                            x       y       z     vdW  Elec       q    Type
REMARK                         _______ _______ _______ _____ _____    ______ ____
ROOT
ATOM      1  C   UNL     1       3.370   6.170  17.987  0.00  0.00    +0.000 A 
ATOM      2  C   UNL     1       3.325   7.406  17.340  0.00  0.00    +0.000 A 
ATOM      3  C   UNL     1       2.574   8.455  17.858  0.00  0.00    +0.000 A 
ATOM      4  C   UNL     1       1.913   8.278  19.060  0.00  0.00    +0.000 A 
ATOM      5  N   UNL     1       1.155   9.349  19.561  0.00  0.00    +0.000 N 
ATOM      6  C   UNL     1       0.757   9.467  20.896  0.00  0.00    +0.000 A 
ATOM      7  C   UNL     1       1.636   9.200  21.950  0.00  0.00    +0.000 A 
ATOM      8  N   UNL     1       1.305   9.330  23.260  0.00  0.00    +0.000 NA
ATOM      9  C   UNL     1       0.038   9.730  23.476  0.00  0.00    +0.000 A 
ATOM     10  C   UNL     1      -0.839  10.014  22.443  0.00  0.00    +0.000 A 
ATOM     11  N   UNL     1      -0.497   9.912  21.136  0.00  0.00    +0.000 NA
ATOM     12  N   UNL     1       1.984   7.116  19.740  0.00  0.00    +0.000 NA
ATOM     13  C   UNL     1       2.671   6.089  19.185  0.00  0.00    +0.000 A 
ATOM     14  H   UNL     1       0.356   9.543  18.967  0.00  0.00    +0.000 HD
ENDROOT
BRANCH   1  20
ATOM     15  N   UNL     1       5.144   4.375  18.309  0.00  0.00    +0.000 NA
ATOM     16  C   UNL     1       4.665   3.710  19.542  0.00  0.00    +0.000 C 
ATOM     17  C   UNL     1       3.608   2.644  19.241  0.00  0.00    +0.000 C 
ATOM     18  C   UNL     1       2.547   3.026  18.211  0.00  0.00    +0.000 C 
ATOM     19  C   UNL     1       3.131   3.793  17.033  0.00  0.00    +0.000 C 
ATOM     20  C   UNL     1       4.069   4.940  17.440  0.00  0.00    +0.000 C 
BRANCH  15  22
ATOM     21  C   UNL     1       7.758   4.476  17.638  0.00  0.00    +0.000 C 
ATOM     22  S   UNL     1       6.502   5.388  18.512  0.00  0.00    +0.000 S 
ATOM     23  O   UNL     1       6.850   5.417  19.916  0.00  0.00    +0.000 OA
ATOM     24  O   UNL     1       6.278   6.609  17.757  0.00  0.00    +0.000 OA
ENDBRANCH  15  22
ENDBRANCH   1  20
TORSDOF 2
ENDMDL
MODEL 5
REMARK VINA RESULT:      -7.4      0.858      1.009
REMARK  Name = 
REMARK  3 active torsions:
REMARK  status: ('A' for Active; 'I' for Inactive)
REMARK    1  A    between atoms: C_1  and  S_2
REMARK    2  A    between atoms: S_2  and  N_5
REMARK    3  A    between atoms: C_10  and  C_11
REMARK                            x       y       z     vdW  Elec       q    Type
REMARK                         _______ _______ _______ _____ _____    ______ ____
ROOT
ATOM      1  C   UNL     1       2.675   5.455  18.482  0.00  0.00    +0.000 A 
ATOM      2  C   UNL     1       2.359   5.138  19.804  0.00  0.00    +0.000 A 
ATOM      3  C   UNL     1       1.962   6.124  20.699  0.00  0.00    +0.000 A 
ATOM      4  C   UNL     1       1.827   7.425  20.249  0.00  0.00    +0.000 A 
ATOM      5  N   UNL     1       1.432   8.406  21.173  0.00  0.00    +0.000 N 
ATOM      6  C   UNL     1       0.894   9.646  20.812  0.00  0.00    +0.000 A 
ATOM      7  C   UNL     1      -0.076   9.763  19.813  0.00  0.00    +0.000 A 
ATOM      8  N   UNL     1      -0.649  10.939  19.451  0.00  0.00    +0.000 NA
ATOM      9  C   UNL     1      -0.195  12.010  20.128  0.00  0.00    +0.000 A 
ATOM     10  C   UNL     1       0.754  11.908  21.132  0.00  0.00    +0.000 A 
ATOM     11  N   UNL     1       1.303  10.729  21.511  0.00  0.00    +0.000 NA
ATOM     12  N   UNL     1       2.067   7.755  18.964  0.00  0.00    +0.000 NA
ATOM     13  C   UNL     1       2.512   6.789  18.125  0.00  0.00    +0.000 A 
ATOM     14  H   UNL     1       2.145   8.556  21.877  0.00  0.00    +0.000 HD
ENDROOT
BRANCH   1  20
ATOM     15  N   UNL     1       4.579   3.926  17.772  0.00  0.00    +0.000 NA
ATOM     16  C   UNL     1       4.634   2.980  18.911  0.00  0.00    +0.000 C 
ATOM     17  C   UNL     1       3.627   1.839  18.754  0.00  0.00    +0.000 C 
ATOM     18  C   UNL     1       2.237   2.235  18.258  0.00  0.00    +0.000 C 
ATOM     19  C   UNL     1       2.292   3.284  17.156  0.00  0.00    +0.000 C 
ATOM     20  C   UNL     1       3.222   4.468  17.469  0.00  0.00    +0.000 C 
BRANCH  15  22
ATOM     21  C   UNL     1       6.038   5.451  19.455  0.00  0.00    +0.000 C 
ATOM     22  S   UNL     1       5.835   5.080  17.725  0.00  0.00    +0.000 S 
ATOM     23  O   UNL     1       5.346   6.266  17.057  0.00  0.00    +0.000 OA
ATOM     24  O   UNL     1       7.053   4.412  17.301  0.00  0.00    +0.000 OA
ENDBRANCH  15  22
ENDBRANCH   1  20
TORSDOF 2
ENDMDL
MODEL 6
REMARK VINA RESULT:      -7.3      2.194      3.252
REMARK  Name = 
REMARK  3 active torsions:
REMARK  status: ('A' for Active; 'I' for Inactive)
REMARK    1  A    between atoms: C_1  and  S_2
REMARK    2  A    between atoms: S_2  and  N_5
REMARK    3  A    between atoms: C_10  and  C_11
REMARK                            x       y       z     vdW  Elec       q    Type
REMARK                         _______ _______ _______ _____ _____    ______ ____
ROOT
ATOM      1  C   UNL     1       3.468   6.333  19.001  0.00  0.00    +0.000 A 
ATOM      2  C   UNL     1       3.536   7.080  17.823  0.00  0.00    +0.000 A 
ATOM      3  C   UNL     1       2.705   8.176  17.624  0.00  0.00    +0.000 A 
ATOM      4  C   UNL     1       1.844   8.559  18.637  0.00  0.00    +0.000 A 
ATOM      5  N   UNL     1       1.009   9.666  18.411  0.00  0.00    +0.000 N 
ATOM      6  C   UNL     1       0.384  10.392  19.430  0.00  0.00    +0.000 A 
ATOM      7  C   UNL     1       1.065  10.759  20.594  0.00  0.00    +0.000 A 
ATOM      8  N   UNL     1       0.510  11.490  21.594  0.00  0.00    +0.000 NA
ATOM      9  C   UNL     1      -0.776  11.830  21.386  0.00  0.00    +0.000 A 
ATOM     10  C   UNL     1      -1.459  11.488  20.231  0.00  0.00    +0.000 A 
ATOM     11  N   UNL     1      -0.893  10.784  19.221  0.00  0.00    +0.000 NA
ATOM     12  N   UNL     1       1.796   7.896  19.810  0.00  0.00    +0.000 NA
ATOM     13  C   UNL     1       2.570   6.794  19.957  0.00  0.00    +0.000 A 
ATOM     14  H   UNL     1       0.326   9.469  17.689  0.00  0.00    +0.000 HD
ENDROOT
BRANCH   1  20
ATOM     15  N   UNL     1       3.885   3.898  18.398  0.00  0.00    +0.000 NA
ATOM     16  C   UNL     1       4.296   4.015  16.980  0.00  0.00    +0.000 C 
ATOM     17  C   UNL     1       5.788   4.329  16.843  0.00  0.00    +0.000 C 
ATOM     18  C   UNL     1       6.343   5.376  17.807  0.00  0.00    +0.000 C 
ATOM     19  C   UNL     1       5.780   5.227  19.213  0.00  0.00    +0.000 C 
ATOM     20  C   UNL     1       4.253   5.062  19.258  0.00  0.00    +0.000 C 
BRANCH  15  22
ATOM     21  C   UNL     1       1.357   4.326  17.550  0.00  0.00    +0.000 C 
ATOM     22  S   UNL     1       2.308   3.296  18.649  0.00  0.00    +0.000 S 
ATOM     23  O   UNL     1       1.913   3.589  20.009  0.00  0.00    +0.000 OA
ATOM     24  O   UNL     1       2.243   1.949  18.109  0.00  0.00    +0.000 OA
ENDBRANCH  15  22
ENDBRANCH   1  20
TORSDOF 2
ENDMDL
MODEL 7
REMARK VINA RESULT:      -7.3      2.281      3.331
REMARK  Name = 
REMARK  3 active torsions:
REMARK  status: ('A' for Active; 'I' for Inactive)
REMARK    1  A    between atoms: C_1  and  S_2
REMARK    2  A    between atoms: S_2  and  N_5
REMARK    3  A    between atoms: C_10  and  C_11
REMARK                            x       y       z     vdW  Elec       q    Type
REMARK                         _______ _______ _______ _____ _____    ______ ____
ROOT
ATOM      1  C   UNL     1       3.100   6.745  19.133  0.00  0.00    +0.000 A 
ATOM      2  C   UNL     1       3.024   7.410  17.908  0.00  0.00    +0.000 A 
ATOM      3  C   UNL     1       2.171   8.493  17.735  0.00  0.00    +0.000 A 
ATOM      4  C   UNL     1       1.435   8.947  18.815  0.00  0.00    +0.000 A 
ATOM      5  N   UNL     1       0.574  10.039  18.615  0.00  0.00    +0.000 N 
ATOM      6  C   UNL     1       0.071  10.835  19.649  0.00  0.00    +0.000 A 
ATOM      7  C   UNL     1       0.884  11.278  20.697  0.00  0.00    +0.000 A 
ATOM      8  N   UNL     1       0.449  12.077  21.704  0.00  0.00    +0.000 NA
ATOM      9  C   UNL     1      -0.854  12.407  21.628  0.00  0.00    +0.000 A 
ATOM     10  C   UNL     1      -1.668  11.990  20.588  0.00  0.00    +0.000 A 
ATOM     11  N   UNL     1      -1.223  11.217  19.568  0.00  0.00    +0.000 NA
ATOM     12  N   UNL     1       1.529   8.365  20.027  0.00  0.00    +0.000 NA
ATOM     13  C   UNL     1       2.320   7.273  20.155  0.00  0.00    +0.000 A 
ATOM     14  H   UNL     1      -0.189   9.796  17.994  0.00  0.00    +0.000 HD
ENDROOT
BRANCH   1  20
ATOM     15  N   UNL     1       3.194   4.203  19.149  0.00  0.00    +0.000 NA
ATOM     16  C   UNL     1       2.914   3.892  17.728  0.00  0.00    +0.000 C 
ATOM     17  C   UNL     1       4.178   3.957  16.869  0.00  0.00    +0.000 C 
ATOM     18  C   UNL     1       5.112   5.135  17.141  0.00  0.00    +0.000 C 
ATOM     19  C   UNL     1       5.253   5.432  18.628  0.00  0.00    +0.000 C 
ATOM     20  C   UNL     1       3.915   5.490  19.381  0.00  0.00    +0.000 C 
BRANCH  15  22
ATOM     21  C   UNL     1       1.836   2.123  20.208  0.00  0.00    +0.000 C 
ATOM     22  S   UNL     1       1.906   3.903  20.226  0.00  0.00    +0.000 S 
ATOM     23  O   UNL     1       0.686   4.415  19.640  0.00  0.00    +0.000 OA
ATOM     24  O   UNL     1       2.330   4.285  21.562  0.00  0.00    +0.000 OA
ENDBRANCH  15  22
ENDBRANCH   1  20
TORSDOF 2
ENDMDL
MODEL 8
REMARK VINA RESULT:      -6.6      1.534      2.254
REMARK  Name = 
REMARK  3 active torsions:
REMARK  status: ('A' for Active; 'I' for Inactive)
REMARK    1  A    between atoms: C_1  and  S_2
REMARK    2  A    between atoms: S_2  and  N_5
REMARK    3  A    between atoms: C_10  and  C_11
REMARK                            x       y       z     vdW  Elec       q    Type
REMARK                         _______ _______ _______ _____ _____    ______ ____
ROOT
ATOM      1  C   UNL     1       3.298   5.852  17.847  0.00  0.00    +0.000 A 
ATOM      2  C   UNL     1       3.489   7.097  17.245  0.00  0.00    +0.000 A 
ATOM      3  C   UNL     1       2.849   8.231  17.733  0.00  0.00    +0.000 A 
ATOM      4  C   UNL     1       2.061   8.123  18.864  0.00  0.00    +0.000 A 
ATOM      5  N   UNL     1       1.419   9.280  19.335  0.00  0.00    +0.000 N 
ATOM      6  C   UNL     1       0.919   9.422  20.634  0.00  0.00    +0.000 A 
ATOM      7  C   UNL     1       1.649   9.005  21.750  0.00  0.00    +0.000 A 
ATOM      8  N   UNL     1       1.220   9.150  23.030  0.00  0.00    +0.000 NA
ATOM      9  C   UNL     1       0.008   9.724  23.147  0.00  0.00    +0.000 A 
ATOM     10  C   UNL     1      -0.720  10.157  22.052  0.00  0.00    +0.000 A 
ATOM     11  N   UNL     1      -0.276  10.037  20.777  0.00  0.00    +0.000 NA
ATOM     12  N   UNL     1       1.903   6.947  19.504  0.00  0.00    +0.000 NA
ATOM     13  C   UNL     1       2.486   5.845  18.974  0.00  0.00    +0.000 A 
ATOM     14  H   UNL     1       0.714   9.601  18.681  0.00  0.00    +0.000 HD
ENDROOT
BRANCH   1  20
ATOM     15  N   UNL     1       5.082   4.048  18.021  0.00  0.00    +0.000 NA
ATOM     16  C   UNL     1       4.847   3.538  19.392  0.00  0.00    +0.000 C 
ATOM     17  C   UNL     1       3.742   2.480  19.425  0.00  0.00    +0.000 C 
ATOM     18  C   UNL     1       2.502   2.781  18.584  0.00  0.00    +0.000 C 
ATOM     19  C   UNL     1       2.852   3.394  17.235  0.00  0.00    +0.000 C 
ATOM     20  C   UNL     1       3.863   4.548  17.319  0.00  0.00    +0.000 C 
BRANCH  15  22
ATOM     21  C   UNL     1       6.464   5.928  19.379  0.00  0.00    +0.000 C 
ATOM     22  S   UNL     1       6.464   5.033  17.840  0.00  0.00    +0.000 S 
ATOM     23  O   UNL     1       6.224   5.970  16.764  0.00  0.00    +0.000 OA
ATOM     24  O   UNL     1       7.638   4.178  17.861  0.00  0.00    +0.000 OA
ENDBRANCH  15  22
ENDBRANCH   1  20
TORSDOF 2
ENDMDL
MODEL 9
REMARK VINA RESULT:      -6.6      3.320      7.767
REMARK  Name = 
REMARK  3 active torsions:
REMARK  status: ('A' for Active; 'I' for Inactive)
REMARK    1  A    between atoms: C_1  and  S_2
REMARK    2  A    between atoms: S_2  and  N_5
REMARK    3  A    between atoms: C_10  and  C_11
REMARK                            x       y       z     vdW  Elec       q    Type
REMARK                         _______ _______ _______ _____ _____    ______ ____
ROOT
ATOM      1  C   UNL     1       0.826   9.945  19.508  0.00  0.00    +0.000 A 
ATOM      2  C   UNL     1       1.245   9.920  18.176  0.00  0.00    +0.000 A 
ATOM      3  C   UNL     1       2.076   8.909  17.708  0.00  0.00    +0.000 A 
ATOM      4  C   UNL     1       2.440   7.888  18.567  0.00  0.00    +0.000 A 
ATOM      5  N   UNL     1       3.286   6.880  18.075  0.00  0.00    +0.000 N 
ATOM      6  C   UNL     1       3.430   5.623  18.670  0.00  0.00    +0.000 A 
ATOM      7  C   UNL     1       2.328   4.896  19.126  0.00  0.00    +0.000 A 
ATOM      8  N   UNL     1       2.415   3.660  19.681  0.00  0.00    +0.000 NA
ATOM      9  C   UNL     1       3.670   3.181  19.775  0.00  0.00    +0.000 A 
ATOM     10  C   UNL     1       4.771   3.883  19.313  0.00  0.00    +0.000 A 
ATOM     11  N   UNL     1       4.677   5.104  18.733  0.00  0.00    +0.000 NA
ATOM     12  N   UNL     1       2.005   7.850  19.843  0.00  0.00    +0.000 NA
ATOM     13  C   UNL     1       1.247   8.879  20.293  0.00  0.00    +0.000 A 
ATOM     14  H   UNL     1       4.207   7.246  17.864  0.00  0.00    +0.000 HD
ENDROOT
BRANCH   1  20
ATOM     15  N   UNL     1       0.294  12.431  19.599  0.00  0.00    +0.000 NA
ATOM     16  C   UNL     1      -0.192  12.676  18.221  0.00  0.00    +0.000 C 
ATOM     17  C   UNL     1      -1.678  12.339  18.072  0.00  0.00    +0.000 C 
ATOM     18  C   UNL     1      -2.142  11.048  18.743  0.00  0.00    +0.000 C 
ATOM     19  C   UNL     1      -1.507  10.844  20.112  0.00  0.00    +0.000 C 
ATOM     20  C   UNL     1       0.014  11.064  20.131  0.00  0.00    +0.000 C 
BRANCH  15  22
ATOM     21  C   UNL     1       1.552  14.764  20.115  0.00  0.00    +0.000 C 
ATOM     22  S   UNL     1       1.861  13.019  19.931  0.00  0.00    +0.000 S 
ATOM     23  O   UNL     1       2.686  12.820  18.760  0.00  0.00    +0.000 OA
ATOM     24  O   UNL     1       2.262  12.532  21.240  0.00  0.00    +0.000 OA
ENDBRANCH  15  22
ENDBRANCH   1  20
TORSDOF 2
ENDMDL
