MODEL 1
REMARK VINA RESULT:      -7.5      0.000      0.000
REMARK  Name = 
REMARK  5 active torsions:
REMARK  status: ('A' for Active; 'I' for Inactive)
REMARK    1  A    between atoms: C_1  and  N_2
REMARK    2  A    between atoms: N_2  and  C_3
REMARK    3  A    between atoms: N_2  and  C_14
REMARK    4  A    between atoms: C_3  and  N_5
REMARK    5  A    between atoms: C_6  and  C_8
REMARK                            x       y       z     vdW  Elec       q    Type
REMARK                         _______ _______ _______ _____ _____    ______ ____
ROOT
ATOM      1  C   UNL     1       5.141   4.125  18.074  0.00  0.00    +0.000 C 
ATOM      2  S   UNL     1       5.928   5.138  19.160  0.00  0.00    +0.000 S 
ENDROOT
BRANCH   1   3
ATOM      3  N   UNL     1       5.472   4.053  16.714  0.00  0.00    +0.000 N 
ATOM      4  C   UNL     1       5.770   5.077  15.812  0.00  0.00    +0.000 C 
ATOM      5  O   UNL     1       5.588   6.271  16.004  0.00  0.00    +0.000 OA
ATOM      6  H   UNL     1       5.647   3.119  16.390  0.00  0.00    +0.000 HD
BRANCH   4   7
ATOM      7  C   UNL     1       6.185   4.638  14.447  0.00  0.00    +0.000 A 
ATOM      8  C   UNL     1       7.334   5.229  13.906  0.00  0.00    +0.000 A 
ATOM      9  C   UNL     1       7.763   4.910  12.621  0.00  0.00    +0.000 A 
ATOM     10  C   UNL     1       7.048   3.984  11.864  0.00  0.00    +0.000 A 
ATOM     11  C   UNL     1       5.915   3.367  12.399  0.00  0.00    +0.000 A 
ATOM     12  C   UNL     1       5.480   3.687  13.689  0.00  0.00    +0.000 A 
ENDBRANCH   4   7
ENDBRANCH   1   3
BRANCH   1  14
ATOM     13  C   UNL     1       4.351   2.119  19.351  0.00  0.00    +0.000 C 
ATOM     14  N   UNL     1       4.086   3.229  18.427  0.00  0.00    +0.000 N 
BRANCH  14  15
ATOM     15  C   UNL     1       2.649   3.553  18.138  0.00  0.00    +0.000 C 
ATOM     16  C   UNL     1       1.610   2.596  18.754  0.00  0.00    +0.000 C 
ATOM     17  C   UNL     1       1.204   2.907  20.192  0.00  0.00    +0.000 C 
ATOM     18  C   UNL     1       0.869   4.377  20.412  0.00  0.00    +0.000 C 
ATOM     19  C   UNL     1       1.937   5.321  19.872  0.00  0.00    +0.000 C 
ATOM     20  C   UNL     1       2.296   5.027  18.420  0.00  0.00    +0.000 C 
ENDBRANCH  14  15
ENDBRANCH   1  14
TORSDOF 4
ENDMDL
MODEL 2
REMARK VINA RESULT:      -7.5      0.664      1.402
REMARK  Name = 
REMARK  5 active torsions:
REMARK  status: ('A' for Active; 'I' for Inactive)
REMARK    1  A    between atoms: C_1  and  N_2
REMARK    2  A    between atoms: N_2  and  C_3
REMARK    3  A    between atoms: N_2  and  C_14
REMARK    4  A    between atoms: C_3  and  N_5
REMARK    5  A    between atoms: C_6  and  C_8
REMARK                            x       y       z     vdW  Elec       q    Type
REMARK                         _______ _______ _______ _____ _____    ______ ____
ROOT
ATOM      1  C   UNL     1       5.682   4.682  18.168  0.00  0.00    +0.000 C 
ATOM      2  S   UNL     1       6.766   5.481  19.174  0.00  0.00    +0.000 S 
ENDROOT
BRANCH   1   3
ATOM      3  N   UNL     1       5.901   4.498  16.796  0.00  0.00    +0.000 N 
ATOM      4  C   UNL     1       5.907   5.434  15.759  0.00  0.00    +0.000 C 
ATOM      5  O   UNL     1       5.505   6.587  15.837  0.00  0.00    +0.000 OA
ATOM      6  H   UNL     1       6.232   3.581  16.560  0.00  0.00    +0.000 HD
BRANCH   4   7
ATOM      7  C   UNL     1       6.282   4.909  14.413  0.00  0.00    +0.000 A 
ATOM      8  C   UNL     1       5.435   3.952  13.841  0.00  0.00    +0.000 A 
ATOM      9  C   UNL     1       5.736   3.378  12.609  0.00  0.00    +0.000 A 
ATOM     10  C   UNL     1       6.889   3.766  11.930  0.00  0.00    +0.000 A 
ATOM     11  C   UNL     1       7.731   4.738  12.476  0.00  0.00    +0.000 A 
ATOM     12  C   UNL     1       7.432   5.315  13.714  0.00  0.00    +0.000 A 
ENDBRANCH   4   7
ENDBRANCH   1   3
BRANCH   1  14
ATOM     13  C   UNL     1       4.484   2.900  19.459  0.00  0.00    +0.000 C 
ATOM     14  N   UNL     1       4.456   4.097  18.609  0.00  0.00    +0.000 N 
BRANCH  14  15
ATOM     15  C   UNL     1       3.150   4.828  18.496  0.00  0.00    +0.000 C 
ATOM     16  C   UNL     1       1.967   4.007  17.951  0.00  0.00    +0.000 C 
ATOM     17  C   UNL     1       1.209   3.180  18.987  0.00  0.00    +0.000 C 
ATOM     18  C   UNL     1       0.860   3.973  20.241  0.00  0.00    +0.000 C 
ATOM     19  C   UNL     1       2.052   4.722  20.825  0.00  0.00    +0.000 C 
ATOM     20  C   UNL     1       2.768   5.579  19.787  0.00  0.00    +0.000 C 
ENDBRANCH  14  15
ENDBRANCH   1  14
TORSDOF 4
ENDMDL
MODEL 3
REMARK VINA RESULT:      -7.5      0.788      1.359
REMARK  Name = 
REMARK  5 active torsions:
REMARK  status: ('A' for Active; 'I' for Inactive)
REMARK    1  A    between atoms: C_1  and  N_2
REMARK    2  A    between atoms: N_2  and  C_3
REMARK    3  A    between atoms: N_2  and  C_14
REMARK    4  A    between atoms: C_3  and  N_5
REMARK    5  A    between atoms: C_6  and  C_8
REMARK                            x       y       z     vdW  Elec       q    Type
REMARK                         _______ _______ _______ _____ _____    ______ ____
ROOT
ATOM      1  C   UNL     1       4.767   3.941  17.774  0.00  0.00    +0.000 C 
ATOM      2  S   UNL     1       5.526   4.639  19.101  0.00  0.00    +0.000 S 
ENDROOT
BRANCH   1   3
ATOM      3  N   UNL     1       5.228   4.093  16.459  0.00  0.00    +0.000 N 
ATOM      4  C   UNL     1       6.510   4.391  15.991  0.00  0.00    +0.000 C 
ATOM      5  O   UNL     1       7.444   4.787  16.674  0.00  0.00    +0.000 OA
ATOM      6  H   UNL     1       4.561   3.814  15.763  0.00  0.00    +0.000 HD
BRANCH   4   7
ATOM      7  C   UNL     1       6.678   4.377  14.508  0.00  0.00    +0.000 A 
ATOM      8  C   UNL     1       5.857   3.510  13.778  0.00  0.00    +0.000 A 
ATOM      9  C   UNL     1       5.981   3.404  12.395  0.00  0.00    +0.000 A 
ATOM     10  C   UNL     1       6.928   4.176  11.726  0.00  0.00    +0.000 A 
ATOM     11  C   UNL     1       7.738   5.064  12.438  0.00  0.00    +0.000 A 
ATOM     12  C   UNL     1       7.616   5.173  13.826  0.00  0.00    +0.000 A 
ENDBRANCH   4   7
ENDBRANCH   1   3
BRANCH   1  14
ATOM     13  C   UNL     1       3.740   1.707  18.256  0.00  0.00    +0.000 C 
ATOM     14  N   UNL     1       3.606   3.112  17.853  0.00  0.00    +0.000 N 
BRANCH  14  15
ATOM     15  C   UNL     1       2.222   3.694  17.841  0.00  0.00    +0.000 C 
ATOM     16  C   UNL     1       1.127   2.830  18.494  0.00  0.00    +0.000 C 
ATOM     17  C   UNL     1       0.985   2.984  20.006  0.00  0.00    +0.000 C 
ATOM     18  C   UNL     1       0.946   4.440  20.454  0.00  0.00    +0.000 C 
ATOM     19  C   UNL     1       2.078   5.277  19.869  0.00  0.00    +0.000 C 
ATOM     20  C   UNL     1       2.176   5.147  18.353  0.00  0.00    +0.000 C 
ENDBRANCH  14  15
ENDBRANCH   1  14
TORSDOF 4
ENDMDL
MODEL 4
REMARK VINA RESULT:      -7.4      1.013      1.432
REMARK  Name = 
REMARK  5 active torsions:
REMARK  status: ('A' for Active; 'I' for Inactive)
REMARK    1  A    between atoms: C_1  and  N_2
REMARK    2  A    between atoms: N_2  and  C_3
REMARK    3  A    between atoms: N_2  and  C_14
REMARK    4  A    between atoms: C_3  and  N_5
REMARK    5  A    between atoms: C_6  and  C_8
REMARK                            x       y       z     vdW  Elec       q    Type
REMARK                         _______ _______ _______ _____ _____    ______ ____
ROOT
ATOM      1  C   UNL     1       5.940   4.891  18.245  0.00  0.00    +0.000 C 
ATOM      2  S   UNL     1       7.162   5.552  19.190  0.00  0.00    +0.000 S 
ENDROOT
BRANCH   1   3
ATOM      3  N   UNL     1       6.089   4.616  16.878  0.00  0.00    +0.000 N 
ATOM      4  C   UNL     1       5.909   5.453  15.775  0.00  0.00    +0.000 C 
ATOM      5  O   UNL     1       5.370   6.552  15.793  0.00  0.00    +0.000 OA
ATOM      6  H   UNL     1       6.516   3.728  16.690  0.00  0.00    +0.000 HD
BRANCH   4   7
ATOM      7  C   UNL     1       6.257   4.862  14.449  0.00  0.00    +0.000 A 
ATOM      8  C   UNL     1       7.431   5.314  13.834  0.00  0.00    +0.000 A 
ATOM      9  C   UNL     1       7.803   4.848  12.577  0.00  0.00    +0.000 A 
ATOM     10  C   UNL     1       7.005   3.911  11.923  0.00  0.00    +0.000 A 
ATOM     11  C   UNL     1       5.844   3.432  12.535  0.00  0.00    +0.000 A 
ATOM     12  C   UNL     1       5.466   3.899  13.796  0.00  0.00    +0.000 A 
ENDBRANCH   4   7
ENDBRANCH   1   3
BRANCH   1  14
ATOM     13  C   UNL     1       3.840   5.510  19.465  0.00  0.00    +0.000 C 
ATOM     14  N   UNL     1       4.650   4.524  18.737  0.00  0.00    +0.000 N 
BRANCH  14  15
ATOM     15  C   UNL     1       3.958   3.274  18.276  0.00  0.00    +0.000 C 
ATOM     16  C   UNL     1       3.543   2.290  19.386  0.00  0.00    +0.000 C 
ATOM     17  C   UNL     1       2.196   2.577  20.046  0.00  0.00    +0.000 C 
ATOM     18  C   UNL     1       1.085   2.847  19.039  0.00  0.00    +0.000 C 
ATOM     19  C   UNL     1       1.470   3.881  17.987  0.00  0.00    +0.000 C 
ATOM     20  C   UNL     1       2.794   3.554  17.304  0.00  0.00    +0.000 C 
ENDBRANCH  14  15
ENDBRANCH   1  14
TORSDOF 4
ENDMDL
MODEL 5
REMARK VINA RESULT:      -7.3      1.058      1.805
REMARK  Name = 
REMARK  5 active torsions:
REMARK  status: ('A' for Active; 'I' for Inactive)
REMARK    1  A    between atoms: C_1  and  N_2
REMARK    2  A    between atoms: N_2  and  C_3
REMARK    3  A    between atoms: N_2  and  C_14
REMARK    4  A    between atoms: C_3  and  N_5
REMARK    5  A    between atoms: C_6  and  C_8
REMARK                            x       y       z     vdW  Elec       q    Type
REMARK                         _______ _______ _______ _____ _____    ______ ____
ROOT
ATOM      1  C   UNL     1       5.989   4.859  18.205  0.00  0.00    +0.000 C 
ATOM      2  S   UNL     1       7.194   5.549  19.151  0.00  0.00    +0.000 S 
ENDROOT
BRANCH   1   3
ATOM      3  N   UNL     1       6.134   4.618  16.832  0.00  0.00    +0.000 N 
ATOM      4  C   UNL     1       5.973   5.487  15.751  0.00  0.00    +0.000 C 
ATOM      5  O   UNL     1       5.459   6.597  15.799  0.00  0.00    +0.000 OA
ATOM      6  H   UNL     1       6.542   3.726  16.620  0.00  0.00    +0.000 HD
BRANCH   4   7
ATOM      7  C   UNL     1       6.310   4.925  14.410  0.00  0.00    +0.000 A 
ATOM      8  C   UNL     1       5.436   3.969  13.879  0.00  0.00    +0.000 A 
ATOM      9  C   UNL     1       5.701   3.363  12.655  0.00  0.00    +0.000 A 
ATOM     10  C   UNL     1       6.845   3.716  11.942  0.00  0.00    +0.000 A 
ATOM     11  C   UNL     1       7.714   4.686  12.448  0.00  0.00    +0.000 A 
ATOM     12  C   UNL     1       7.451   5.296  13.677  0.00  0.00    +0.000 A 
ENDBRANCH   4   7
ENDBRANCH   1   3
BRANCH   1  14
ATOM     13  C   UNL     1       3.957   5.304  19.603  0.00  0.00    +0.000 C 
ATOM     14  N   UNL     1       4.720   4.430  18.703  0.00  0.00    +0.000 N 
BRANCH  14  15
ATOM     15  C   UNL     1       3.994   3.260  18.105  0.00  0.00    +0.000 C 
ATOM     16  C   UNL     1       3.560   2.163  19.094  0.00  0.00    +0.000 C 
ATOM     17  C   UNL     1       2.225   2.402  19.795  0.00  0.00    +0.000 C 
ATOM     18  C   UNL     1       1.116   2.817  18.837  0.00  0.00    +0.000 C 
ATOM     19  C   UNL     1       1.521   3.958  17.910  0.00  0.00    +0.000 C 
ATOM     20  C   UNL     1       2.832   3.681  17.183  0.00  0.00    +0.000 C 
ENDBRANCH  14  15
ENDBRANCH   1  14
TORSDOF 4
ENDMDL
MODEL 6
REMARK VINA RESULT:      -7.3      1.030      1.937
REMARK  Name = 
REMARK  5 active torsions:
REMARK  status: ('A' for Active; 'I' for Inactive)
REMARK    1  A    between atoms: C_1  and  N_2
REMARK    2  A    between atoms: N_2  and  C_3
REMARK    3  A    between atoms: N_2  and  C_14
REMARK    4  A    between atoms: C_3  and  N_5
REMARK    5  A    between atoms: C_6  and  C_8
REMARK                            x       y       z     vdW  Elec       q    Type
REMARK                         _______ _______ _______ _____ _____    ______ ____
ROOT
ATOM      1  C   UNL     1       5.086   5.122  18.028  0.00  0.00    +0.000 C 
ATOM      2  S   UNL     1       6.214   5.390  19.245  0.00  0.00    +0.000 S 
ENDROOT
BRANCH   1   3
ATOM      3  N   UNL     1       5.436   4.950  16.682  0.00  0.00    +0.000 N 
ATOM      4  C   UNL     1       6.614   5.293  16.015  0.00  0.00    +0.000 C 
ATOM      5  O   UNL     1       7.499   6.015  16.455  0.00  0.00    +0.000 OA
ATOM      6  H   UNL     1       4.793   4.377  16.167  0.00  0.00    +0.000 HD
BRANCH   4   7
ATOM      7  C   UNL     1       6.698   4.869  14.586  0.00  0.00    +0.000 A 
ATOM      8  C   UNL     1       5.796   3.890  14.154  0.00  0.00    +0.000 A 
ATOM      9  C   UNL     1       5.837   3.407  12.850  0.00  0.00    +0.000 A 
ATOM     10  C   UNL     1       6.781   3.910  11.957  0.00  0.00    +0.000 A 
ATOM     11  C   UNL     1       7.672   4.905  12.365  0.00  0.00    +0.000 A 
ATOM     12  C   UNL     1       7.634   5.391  13.675  0.00  0.00    +0.000 A 
ENDBRANCH   4   7
ENDBRANCH   1   3
BRANCH   1  14
ATOM     13  C   UNL     1       2.831   6.210  18.107  0.00  0.00    +0.000 C 
ATOM     14  N   UNL     1       3.678   5.018  18.243  0.00  0.00    +0.000 N 
BRANCH  14  15
ATOM     15  C   UNL     1       2.986   3.687  18.298  0.00  0.00    +0.000 C 
ATOM     16  C   UNL     1       3.629   2.636  19.222  0.00  0.00    +0.000 C 
ATOM     17  C   UNL     1       3.213   2.710  20.689  0.00  0.00    +0.000 C 
ATOM     18  C   UNL     1       1.706   2.830  20.876  0.00  0.00    +0.000 C 
ATOM     19  C   UNL     1       1.082   3.925  20.018  0.00  0.00    +0.000 C 
ATOM     20  C   UNL     1       1.469   3.807  18.548  0.00  0.00    +0.000 C 
ENDBRANCH  14  15
ENDBRANCH   1  14
TORSDOF 4
ENDMDL
MODEL 7
REMARK VINA RESULT:      -7.3      1.074      1.841
REMARK  Name = 
REMARK  5 active torsions:
REMARK  status: ('A' for Active; 'I' for Inactive)
REMARK    1  A    between atoms: C_1  and  N_2
REMARK    2  A    between atoms: N_2  and  C_3
REMARK    3  A    between atoms: N_2  and  C_14
REMARK    4  A    between atoms: C_3  and  N_5
REMARK    5  A    between atoms: C_6  and  C_8
REMARK                            x       y       z     vdW  Elec       q    Type
REMARK                         _______ _______ _______ _____ _____    ______ ____
ROOT
ATOM      1  C   UNL     1       5.585   5.057  18.212  0.00  0.00    +0.000 C 
ATOM      2  S   UNL     1       6.828   5.444  19.274  0.00  0.00    +0.000 S 
ENDROOT
BRANCH   1   3
ATOM      3  N   UNL     1       5.787   4.829  16.844  0.00  0.00    +0.000 N 
ATOM      4  C   UNL     1       6.750   5.361  15.983  0.00  0.00    +0.000 C 
ATOM      5  O   UNL     1       7.484   6.309  16.232  0.00  0.00    +0.000 OA
ATOM      6  H   UNL     1       5.240   4.074  16.475  0.00  0.00    +0.000 HD
BRANCH   4   7
ATOM      7  C   UNL     1       6.747   4.821  14.592  0.00  0.00    +0.000 A 
ATOM      8  C   UNL     1       7.672   5.363  13.692  0.00  0.00    +0.000 A 
ATOM      9  C   UNL     1       7.704   4.947  12.364  0.00  0.00    +0.000 A 
ATOM     10  C   UNL     1       6.811   3.971  11.924  0.00  0.00    +0.000 A 
ATOM     11  C   UNL     1       5.900   3.402  12.817  0.00  0.00    +0.000 A 
ATOM     12  C   UNL     1       5.864   3.819  14.150  0.00  0.00    +0.000 A 
ENDBRANCH   4   7
ENDBRANCH   1   3
BRANCH   1  14
ATOM     13  C   UNL     1       3.178   5.693  17.930  0.00  0.00    +0.000 C 
ATOM     14  N   UNL     1       4.217   4.898  18.595  0.00  0.00    +0.000 N 
BRANCH  14  15
ATOM     15  C   UNL     1       3.764   3.735  19.428  0.00  0.00    +0.000 C 
ATOM     16  C   UNL     1       2.544   3.994  20.332  0.00  0.00    +0.000 C 
ATOM     17  C   UNL     1       1.183   3.815  19.664  0.00  0.00    +0.000 C 
ATOM     18  C   UNL     1       1.076   2.519  18.870  0.00  0.00    +0.000 C 
ATOM     19  C   UNL     1       2.245   2.303  17.917  0.00  0.00    +0.000 C 
ATOM     20  C   UNL     1       3.596   2.438  18.611  0.00  0.00    +0.000 C 
ENDBRANCH  14  15
ENDBRANCH   1  14
TORSDOF 4
ENDMDL
MODEL 8
REMARK VINA RESULT:      -7.3      0.709      1.061
REMARK  Name = 
REMARK  5 active torsions:
REMARK  status: ('A' for Active; 'I' for Inactive)
REMARK    1  A    between atoms: C_1  and  N_2
REMARK    2  A    between atoms: N_2  and  C_3
REMARK    3  A    between atoms: N_2  and  C_14
REMARK    4  A    between atoms: C_3  and  N_5
REMARK    5  A    between atoms: C_6  and  C_8
REMARK                            x       y       z     vdW  Elec       q    Type
REMARK                         _______ _______ _______ _____ _____    ______ ____
ROOT
ATOM      1  C   UNL     1       5.644   4.743  18.340  0.00  0.00    +0.000 C 
ATOM      2  S   UNL     1       6.718   5.585  19.320  0.00  0.00    +0.000 S 
ENDROOT
BRANCH   1   3
ATOM      3  N   UNL     1       5.851   4.544  16.968  0.00  0.00    +0.000 N 
ATOM      4  C   UNL     1       6.013   5.481  15.945  0.00  0.00    +0.000 C 
ATOM      5  O   UNL     1       5.789   6.681  16.034  0.00  0.00    +0.000 OA
ATOM      6  H   UNL     1       6.042   3.590  16.723  0.00  0.00    +0.000 HD
BRANCH   4   7
ATOM      7  C   UNL     1       6.322   4.921  14.596  0.00  0.00    +0.000 A 
ATOM      8  C   UNL     1       7.436   5.441  13.926  0.00  0.00    +0.000 A 
ATOM      9  C   UNL     1       7.766   5.007  12.646  0.00  0.00    +0.000 A 
ATOM     10  C   UNL     1       6.985   4.035  12.024  0.00  0.00    +0.000 A 
ATOM     11  C   UNL     1       5.886   3.488  12.689  0.00  0.00    +0.000 A 
ATOM     12  C   UNL     1       5.550   3.923  13.974  0.00  0.00    +0.000 A 
ENDBRANCH   4   7
ENDBRANCH   1   3
BRANCH   1  14
ATOM     13  C   UNL     1       4.506   2.876  19.565  0.00  0.00    +0.000 C 
ATOM     14  N   UNL     1       4.440   4.131  18.804  0.00  0.00    +0.000 N 
BRANCH  14  15
ATOM     15  C   UNL     1       3.134   4.872  18.816  0.00  0.00    +0.000 C 
ATOM     16  C   UNL     1       2.041   4.318  17.883  0.00  0.00    +0.000 C 
ATOM     17  C   UNL     1       1.197   3.185  18.462  0.00  0.00    +0.000 C 
ATOM     18  C   UNL     1       0.692   3.479  19.869  0.00  0.00    +0.000 C 
ATOM     19  C   UNL     1       1.791   3.952  20.813  0.00  0.00    +0.000 C 
ATOM     20  C   UNL     1       2.593   5.115  20.239  0.00  0.00    +0.000 C 
ENDBRANCH  14  15
ENDBRANCH   1  14
TORSDOF 4
ENDMDL
MODEL 9
REMARK VINA RESULT:      -7.3      1.343      1.938
REMARK  Name = 
REMARK  5 active torsions:
REMARK  status: ('A' for Active; 'I' for Inactive)
REMARK    1  A    between atoms: C_1  and  N_2
REMARK    2  A    between atoms: N_2  and  C_3
REMARK    3  A    between atoms: N_2  and  C_14
REMARK    4  A    between atoms: C_3  and  N_5
REMARK    5  A    between atoms: C_6  and  C_8
REMARK                            x       y       z     vdW  Elec       q    Type
REMARK                         _______ _______ _______ _____ _____    ______ ____
ROOT
ATOM      1  C   UNL     1       4.452   5.487  17.405  0.00  0.00    +0.000 C 
ATOM      2  S   UNL     1       3.628   6.899  17.791  0.00  0.00    +0.000 S 
ENDROOT
BRANCH   1   3
ATOM      3  N   UNL     1       5.016   5.247  16.144  0.00  0.00    +0.000 N 
ATOM      4  C   UNL     1       6.355   5.256  15.748  0.00  0.00    +0.000 C 
ATOM      5  O   UNL     1       7.290   5.692  16.406  0.00  0.00    +0.000 OA
ATOM      6  H   UNL     1       4.363   4.887  15.472  0.00  0.00    +0.000 HD
BRANCH   4   7
ATOM      7  C   UNL     1       6.617   4.851  14.336  0.00  0.00    +0.000 A 
ATOM      8  C   UNL     1       5.818   3.834  13.802  0.00  0.00    +0.000 A 
ATOM      9  C   UNL     1       6.027   3.366  12.508  0.00  0.00    +0.000 A 
ATOM     10  C   UNL     1       7.038   3.923  11.728  0.00  0.00    +0.000 A 
ATOM     11  C   UNL     1       7.828   4.956  12.237  0.00  0.00    +0.000 A 
ATOM     12  C   UNL     1       7.622   5.427  13.537  0.00  0.00    +0.000 A 
ENDBRANCH   4   7
ENDBRANCH   1   3
BRANCH   1  14
ATOM     13  C   UNL     1       5.512   4.631  19.508  0.00  0.00    +0.000 C 
ATOM     14  N   UNL     1       4.680   4.412  18.317  0.00  0.00    +0.000 N 
BRANCH  14  15
ATOM     15  C   UNL     1       3.857   3.157  18.277  0.00  0.00    +0.000 C 
ATOM     16  C   UNL     1       3.521   2.532  19.644  0.00  0.00    +0.000 C 
ATOM     17  C   UNL     1       2.289   3.103  20.341  0.00  0.00    +0.000 C 
ATOM     18  C   UNL     1       1.081   3.213  19.419  0.00  0.00    +0.000 C 
ATOM     19  C   UNL     1       1.397   3.904  18.097  0.00  0.00    +0.000 C 
ATOM     20  C   UNL     1       2.602   3.289  17.392  0.00  0.00    +0.000 C 
ENDBRANCH  14  15
ENDBRANCH   1  14
TORSDOF 4
ENDMDL
