MODEL 1
REMARK VINA RESULT:      -8.6      0.000      0.000
REMARK  Name = 
REMARK  9 active torsions:
REMARK  status: ('A' for Active; 'I' for Inactive)
REMARK    1  A    between atoms: C_1  and  C_2
REMARK    2  A    between atoms: C_7  and  C_8
REMARK    3  A    between atoms: C_8  and  O_9
REMARK    4  A    between atoms: O_9  and  C_10
REMARK    5  A    between atoms: C_15  and  C_16
REMARK    6  A    between atoms: C_16  and  C_18
REMARK    7  A    between atoms: C_18  and  C_19
REMARK    8  A    between atoms: C_18  and  C_21
REMARK    9  A    between atoms: C_23  and  C_24
REMARK                            x       y       z     vdW  Elec       q    Type
REMARK                         _______ _______ _______ _____ _____    ______ ____
ROOT
ATOM      1  C   UNL     1       2.166   5.172  19.705  0.00  0.00    +0.000 A 
ATOM      2  C   UNL     1       1.114   4.608  20.443  0.00  0.00    +0.000 A 
ATOM      3  C   UNL     1       0.719   3.289  20.243  0.00  0.00    +0.000 A 
ATOM      4  C   UNL     1       1.283   2.550  19.216  0.00  0.00    +0.000 A 
ATOM      5  C   UNL     1       2.231   3.139  18.383  0.00  0.00    +0.000 A 
ATOM      6  C   UNL     1       2.710   4.439  18.630  0.00  0.00    +0.000 A 
ENDROOT
BRANCH   6   7
ATOM      7  C   UNL     1       3.821   4.992  17.773  0.00  0.00    +0.000 C 
ATOM      8  O   UNL     1       3.612   5.998  17.087  0.00  0.00    +0.000 OA
BRANCH   7   9
ATOM      9  C   UNL     1       5.178   4.294  17.689  0.00  0.00    +0.000 C 
BRANCH   9  10
ATOM     10  C   UNL     1       5.817   4.438  16.328  0.00  0.00    +0.000 A 
ATOM     11  N   UNL     1       5.443   3.798  15.236  0.00  0.00    +0.000 NA
ATOM     12  C   UNL     1       6.293   4.083  14.180  0.00  0.00    +0.000 A 
ATOM     13  C   UNL     1       6.024   3.493  12.842  0.00  0.00    +0.000 C 
ATOM     14  C   UNL     1       7.338   4.925  14.500  0.00  0.00    +0.000 A 
ATOM     15  S   UNL     1       7.166   5.498  16.102  0.00  0.00    +0.000 S 
ENDBRANCH   9  10
BRANCH   9  16
ATOM     16  C   UNL     1       6.042   4.768  18.779  0.00  0.00    +0.000 C 
ATOM     17  N   UNL     1       6.729   5.157  19.638  0.00  0.00    +0.000 NA
ENDBRANCH   9  16
ENDBRANCH   7   9
ENDBRANCH   6   7
BRANCH   1  18
ATOM     18  O   UNL     1       2.736   6.377  20.036  0.00  0.00    +0.000 OA
BRANCH  18  19
ATOM     19  C   UNL     1       2.314   7.568  19.330  0.00  0.00    +0.000 C 
BRANCH  19  26
ATOM     20  C   UNL     1      -1.992  12.792  22.364  0.00  0.00    +0.000 C 
ATOM     21  C   UNL     1      -1.174  11.561  22.138  0.00  0.00    +0.000 A 
ATOM     22  C   UNL     1      -1.007  10.599  23.228  0.00  0.00    +0.000 A 
ATOM     23  C   UNL     1      -0.282   9.474  23.077  0.00  0.00    +0.000 A 
ATOM     24  C   UNL     1       0.319   9.183  21.820  0.00  0.00    +0.000 A 
ATOM     25  N   UNL     1       1.038   8.161  21.407  0.00  0.00    +0.000 NA
ATOM     26  C   UNL     1       1.354   8.437  20.089  0.00  0.00    +0.000 A 
ATOM     27  C   UNL     1       0.780   9.629  19.698  0.00  0.00    +0.000 A 
ATOM     28  N   UNL     1       0.134  10.112  20.804  0.00  0.00    +0.000 N 
ATOM     29  C   UNL     1      -0.588  11.290  20.956  0.00  0.00    +0.000 A 
ENDBRANCH  19  26
ENDBRANCH  18  19
ENDBRANCH   1  18
TORSDOF 7
ENDMDL
MODEL 2
REMARK VINA RESULT:      -8.2      1.181      1.618
REMARK  Name = 
REMARK  9 active torsions:
REMARK  status: ('A' for Active; 'I' for Inactive)
REMARK    1  A    between atoms: C_1  and  C_2
REMARK    2  A    between atoms: C_7  and  C_8
REMARK    3  A    between atoms: C_8  and  O_9
REMARK    4  A    between atoms: O_9  and  C_10
REMARK    5  A    between atoms: C_15  and  C_16
REMARK    6  A    between atoms: C_16  and  C_18
REMARK    7  A    between atoms: C_18  and  C_19
REMARK    8  A    between atoms: C_18  and  C_21
REMARK    9  A    between atoms: C_23  and  C_24
REMARK                            x       y       z     vdW  Elec       q    Type
REMARK                         _______ _______ _______ _____ _____    ______ ____
ROOT
ATOM      1  C   UNL     1       2.139   4.607  19.454  0.00  0.00    +0.000 A 
ATOM      2  C   UNL     1       1.480   4.443  20.682  0.00  0.00    +0.000 A 
ATOM      3  C   UNL     1       1.858   3.446  21.577  0.00  0.00    +0.000 A 
ATOM      4  C   UNL     1       2.814   2.515  21.205  0.00  0.00    +0.000 A 
ATOM      5  C   UNL     1       3.379   2.577  19.934  0.00  0.00    +0.000 A 
ATOM      6  C   UNL     1       3.079   3.634  19.054  0.00  0.00    +0.000 A 
ENDROOT
BRANCH   6   7
ATOM      7  C   UNL     1       3.804   3.727  17.735  0.00  0.00    +0.000 C 
ATOM      8  O   UNL     1       3.152   3.724  16.685  0.00  0.00    +0.000 OA
BRANCH   7   9
ATOM      9  C   UNL     1       5.331   3.757  17.671  0.00  0.00    +0.000 C 
BRANCH   9  10
ATOM     10  C   UNL     1       5.842   4.149  16.304  0.00  0.00    +0.000 A 
ATOM     11  N   UNL     1       5.647   3.468  15.190  0.00  0.00    +0.000 NA
ATOM     12  C   UNL     1       6.326   4.047  14.131  0.00  0.00    +0.000 A 
ATOM     13  C   UNL     1       6.205   3.457  12.772  0.00  0.00    +0.000 C 
ATOM     14  C   UNL     1       7.068   5.160  14.470  0.00  0.00    +0.000 A 
ATOM     15  S   UNL     1       6.784   5.586  16.101  0.00  0.00    +0.000 S 
ENDBRANCH   9  10
BRANCH   9  16
ATOM     16  C   UNL     1       5.850   4.616  18.744  0.00  0.00    +0.000 C 
ATOM     17  N   UNL     1       6.251   5.293  19.605  0.00  0.00    +0.000 NA
ENDBRANCH   9  16
ENDBRANCH   7   9
ENDBRANCH   6   7
BRANCH   1  18
ATOM     18  O   UNL     1       1.958   5.714  18.662  0.00  0.00    +0.000 OA
BRANCH  18  19
ATOM     19  C   UNL     1       2.730   6.907  18.940  0.00  0.00    +0.000 C 
BRANCH  19  26
ATOM     20  C   UNL     1      -1.497  11.447  23.009  0.00  0.00    +0.000 C 
ATOM     21  C   UNL     1      -0.719  10.829  21.891  0.00  0.00    +0.000 A 
ATOM     22  C   UNL     1      -0.689  11.491  20.586  0.00  0.00    +0.000 A 
ATOM     23  C   UNL     1      -0.002  10.978  19.546  0.00  0.00    +0.000 A 
ATOM     24  C   UNL     1       0.744   9.778  19.714  0.00  0.00    +0.000 A 
ATOM     25  N   UNL     1       1.508   9.096  18.885  0.00  0.00    +0.000 NA
ATOM     26  C   UNL     1       1.961   8.007  19.609  0.00  0.00    +0.000 A 
ATOM     27  C   UNL     1       1.488   8.061  20.904  0.00  0.00    +0.000 A 
ATOM     28  N   UNL     1       0.701   9.180  20.967  0.00  0.00    +0.000 N 
ATOM     29  C   UNL     1      -0.026   9.684  22.039  0.00  0.00    +0.000 A 
ENDBRANCH  19  26
ENDBRANCH  18  19
ENDBRANCH   1  18
TORSDOF 7
ENDMDL
MODEL 3
REMARK VINA RESULT:      -8.1      0.662      1.208
REMARK  Name = 
REMARK  9 active torsions:
REMARK  status: ('A' for Active; 'I' for Inactive)
REMARK    1  A    between atoms: C_1  and  C_2
REMARK    2  A    between atoms: C_7  and  C_8
REMARK    3  A    between atoms: C_8  and  O_9
REMARK    4  A    between atoms: O_9  and  C_10
REMARK    5  A    between atoms: C_15  and  C_16
REMARK    6  A    between atoms: C_16  and  C_18
REMARK    7  A    between atoms: C_18  and  C_19
REMARK    8  A    between atoms: C_18  and  C_21
REMARK    9  A    between atoms: C_23  and  C_24
REMARK                            x       y       z     vdW  Elec       q    Type
REMARK                         _______ _______ _______ _____ _____    ______ ____
ROOT
ATOM      1  C   UNL     1       2.040   4.868  19.693  0.00  0.00    +0.000 A 
ATOM      2  C   UNL     1       0.981   4.235  20.362  0.00  0.00    +0.000 A 
ATOM      3  C   UNL     1       0.565   2.956  20.006  0.00  0.00    +0.000 A 
ATOM      4  C   UNL     1       1.115   2.338  18.895  0.00  0.00    +0.000 A 
ATOM      5  C   UNL     1       2.070   3.009  18.134  0.00  0.00    +0.000 A 
ATOM      6  C   UNL     1       2.570   4.262  18.535  0.00  0.00    +0.000 A 
ENDROOT
BRANCH   6   7
ATOM      7  C   UNL     1       3.687   4.898  17.747  0.00  0.00    +0.000 C 
ATOM      8  O   UNL     1       3.459   5.918  17.088  0.00  0.00    +0.000 OA
BRANCH   7   9
ATOM      9  C   UNL     1       5.079   4.268  17.697  0.00  0.00    +0.000 C 
BRANCH   9  10
ATOM     10  C   UNL     1       5.735   4.425  16.345  0.00  0.00    +0.000 A 
ATOM     11  N   UNL     1       5.383   3.786  15.246  0.00  0.00    +0.000 NA
ATOM     12  C   UNL     1       6.244   4.085  14.202  0.00  0.00    +0.000 A 
ATOM     13  C   UNL     1       5.999   3.498  12.859  0.00  0.00    +0.000 C 
ATOM     14  C   UNL     1       7.275   4.937  14.541  0.00  0.00    +0.000 A 
ATOM     15  S   UNL     1       7.075   5.501  16.143  0.00  0.00    +0.000 S 
ENDBRANCH   9  10
BRANCH   9  16
ATOM     16  C   UNL     1       5.898   4.799  18.796  0.00  0.00    +0.000 C 
ATOM     17  N   UNL     1       6.540   5.233  19.667  0.00  0.00    +0.000 NA
ENDBRANCH   9  16
ENDBRANCH   7   9
ENDBRANCH   6   7
BRANCH   1  18
ATOM     18  O   UNL     1       2.630   6.015  20.166  0.00  0.00    +0.000 OA
BRANCH  18  19
ATOM     19  C   UNL     1       2.511   7.233  19.391  0.00  0.00    +0.000 C 
BRANCH  19  26
ATOM     20  C   UNL     1      -1.965  11.632  23.347  0.00  0.00    +0.000 C 
ATOM     21  C   UNL     1      -1.140  11.040  22.250  0.00  0.00    +0.000 A 
ATOM     22  C   UNL     1      -1.098  11.702  20.945  0.00  0.00    +0.000 A 
ATOM     23  C   UNL     1      -0.369  11.212  19.923  0.00  0.00    +0.000 A 
ATOM     24  C   UNL     1       0.412  10.037  20.111  0.00  0.00    +0.000 A 
ATOM     25  N   UNL     1       1.218   9.381  19.303  0.00  0.00    +0.000 NA
ATOM     26  C   UNL     1       1.689   8.308  20.039  0.00  0.00    +0.000 A 
ATOM     27  C   UNL     1       1.182   8.347  21.321  0.00  0.00    +0.000 A 
ATOM     28  N   UNL     1       0.357   9.438  21.364  0.00  0.00    +0.000 N 
ATOM     29  C   UNL     1      -0.412   9.919  22.417  0.00  0.00    +0.000 A 
ENDBRANCH  19  26
ENDBRANCH  18  19
ENDBRANCH   1  18
TORSDOF 7
ENDMDL
MODEL 4
REMARK VINA RESULT:      -8.1      1.292      1.472
REMARK  Name = 
REMARK  9 active torsions:
REMARK  status: ('A' for Active; 'I' for Inactive)
REMARK    1  A    between atoms: C_1  and  C_2
REMARK    2  A    between atoms: C_7  and  C_8
REMARK    3  A    between atoms: C_8  and  O_9
REMARK    4  A    between atoms: O_9  and  C_10
REMARK    5  A    between atoms: C_15  and  C_16
REMARK    6  A    between atoms: C_16  and  C_18
REMARK    7  A    between atoms: C_18  and  C_19
REMARK    8  A    between atoms: C_18  and  C_21
REMARK    9  A    between atoms: C_23  and  C_24
REMARK                            x       y       z     vdW  Elec       q    Type
REMARK                         _______ _______ _______ _____ _____    ______ ____
ROOT
ATOM      1  C   UNL     1       3.125   5.686  19.611  0.00  0.00    +0.000 A 
ATOM      2  C   UNL     1       2.295   4.917  20.441  0.00  0.00    +0.000 A 
ATOM      3  C   UNL     1       2.460   3.539  20.549  0.00  0.00    +0.000 A 
ATOM      4  C   UNL     1       3.372   2.889  19.735  0.00  0.00    +0.000 A 
ATOM      5  C   UNL     1       4.108   3.620  18.804  0.00  0.00    +0.000 A 
ATOM      6  C   UNL     1       4.023   5.023  18.748  0.00  0.00    +0.000 A 
ENDROOT
BRANCH   6   7
ATOM      7  C   UNL     1       4.924   5.782  17.807  0.00  0.00    +0.000 C 
ATOM      8  O   UNL     1       4.479   6.763  17.202  0.00  0.00    +0.000 OA
BRANCH   7   9
ATOM      9  C   UNL     1       6.356   5.320  17.537  0.00  0.00    +0.000 C 
BRANCH   9  10
ATOM     10  C   UNL     1       6.575   4.934  16.093  0.00  0.00    +0.000 A 
ATOM     11  N   UNL     1       7.417   5.522  15.264  0.00  0.00    +0.000 NA
ATOM     12  C   UNL     1       7.308   4.990  13.989  0.00  0.00    +0.000 A 
ATOM     13  C   UNL     1       8.201   5.486  12.909  0.00  0.00    +0.000 C 
ATOM     14  C   UNL     1       6.344   4.012  13.860  0.00  0.00    +0.000 A 
ATOM     15  S   UNL     1       5.675   3.635  15.388  0.00  0.00    +0.000 S 
ENDBRANCH   9  10
BRANCH   9  16
ATOM     16  C   UNL     1       7.298   6.345  18.005  0.00  0.00    +0.000 C 
ATOM     17  N   UNL     1       8.057   7.149  18.378  0.00  0.00    +0.000 NA
ENDBRANCH   9  16
ENDBRANCH   7   9
ENDBRANCH   6   7
BRANCH   1  18
ATOM     18  O   UNL     1       3.150   7.058  19.661  0.00  0.00    +0.000 OA
BRANCH  18  19
ATOM     19  C   UNL     1       2.124   7.802  18.960  0.00  0.00    +0.000 C 
BRANCH  19  26
ATOM     20  C   UNL     1      -1.727  12.907  22.722  0.00  0.00    +0.000 C 
ATOM     21  C   UNL     1      -1.008  11.657  22.326  0.00  0.00    +0.000 A 
ATOM     22  C   UNL     1      -0.899  10.556  23.284  0.00  0.00    +0.000 A 
ATOM     23  C   UNL     1      -0.264   9.408  22.977  0.00  0.00    +0.000 A 
ATOM     24  C   UNL     1       0.294   9.234  21.679  0.00  0.00    +0.000 A 
ATOM     25  N   UNL     1       0.928   8.221  21.125  0.00  0.00    +0.000 NA
ATOM     26  C   UNL     1       1.244   8.637  19.844  0.00  0.00    +0.000 A 
ATOM     27  C   UNL     1       0.758   9.908  19.618  0.00  0.00    +0.000 A 
ATOM     28  N   UNL     1       0.166  10.295  20.791  0.00  0.00    +0.000 N 
ATOM     29  C   UNL     1      -0.462  11.494  21.105  0.00  0.00    +0.000 A 
ENDBRANCH  19  26
ENDBRANCH  18  19
ENDBRANCH   1  18
TORSDOF 7
ENDMDL
MODEL 5
REMARK VINA RESULT:      -8.0      0.911      1.572
REMARK  Name = 
REMARK  9 active torsions:
REMARK  status: ('A' for Active; 'I' for Inactive)
REMARK    1  A    between atoms: C_1  and  C_2
REMARK    2  A    between atoms: C_7  and  C_8
REMARK    3  A    between atoms: C_8  and  O_9
REMARK    4  A    between atoms: O_9  and  C_10
REMARK    5  A    between atoms: C_15  and  C_16
REMARK    6  A    between atoms: C_16  and  C_18
REMARK    7  A    between atoms: C_18  and  C_19
REMARK    8  A    between atoms: C_18  and  C_21
REMARK    9  A    between atoms: C_23  and  C_24
REMARK                            x       y       z     vdW  Elec       q    Type
REMARK                         _______ _______ _______ _____ _____    ______ ____
ROOT
ATOM      1  C   UNL     1       1.977   5.059  19.727  0.00  0.00    +0.000 A 
ATOM      2  C   UNL     1       0.998   4.387  20.475  0.00  0.00    +0.000 A 
ATOM      3  C   UNL     1       0.954   2.997  20.522  0.00  0.00    +0.000 A 
ATOM      4  C   UNL     1       1.806   2.254  19.722  0.00  0.00    +0.000 A 
ATOM      5  C   UNL     1       2.692   2.906  18.867  0.00  0.00    +0.000 A 
ATOM      6  C   UNL     1       2.815   4.308  18.877  0.00  0.00    +0.000 A 
ENDROOT
BRANCH   6   7
ATOM      7  C   UNL     1       3.869   4.964  18.021  0.00  0.00    +0.000 C 
ATOM      8  O   UNL     1       3.581   5.979  17.378  0.00  0.00    +0.000 OA
BRANCH   7   9
ATOM      9  C   UNL     1       5.266   4.359  17.882  0.00  0.00    +0.000 C 
BRANCH   9  10
ATOM     10  C   UNL     1       5.823   4.510  16.486  0.00  0.00    +0.000 A 
ATOM     11  N   UNL     1       5.429   3.829  15.427  0.00  0.00    +0.000 NA
ATOM     12  C   UNL     1       6.205   4.138  14.322  0.00  0.00    +0.000 A 
ATOM     13  C   UNL     1       5.899   3.508  13.011  0.00  0.00    +0.000 C 
ATOM     14  C   UNL     1       7.217   5.042  14.572  0.00  0.00    +0.000 A 
ATOM     15  S   UNL     1       7.098   5.638  16.170  0.00  0.00    +0.000 S 
ENDBRANCH   9  10
BRANCH   9  16
ATOM     16  C   UNL     1       6.148   4.919  18.914  0.00  0.00    +0.000 C 
ATOM     17  N   UNL     1       6.859   5.354  19.730  0.00  0.00    +0.000 NA
ENDBRANCH   9  16
ENDBRANCH   7   9
ENDBRANCH   6   7
BRANCH   1  18
ATOM     18  O   UNL     1       2.198   6.409  19.847  0.00  0.00    +0.000 OA
BRANCH  18  19
ATOM     19  C   UNL     1       1.728   7.092  21.034  0.00  0.00    +0.000 C 
BRANCH  19  26
ATOM     20  C   UNL     1      -2.062  13.456  20.620  0.00  0.00    +0.000 C 
ATOM     21  C   UNL     1      -1.190  12.283  20.304  0.00  0.00    +0.000 A 
ATOM     22  C   UNL     1      -0.577  12.179  18.979  0.00  0.00    +0.000 A 
ATOM     23  C   UNL     1       0.218  11.144  18.644  0.00  0.00    +0.000 A 
ATOM     24  C   UNL     1       0.504  10.132  19.604  0.00  0.00    +0.000 A 
ATOM     25  N   UNL     1       1.256   9.053  19.543  0.00  0.00    +0.000 NA
ATOM     26  C   UNL     1       1.138   8.449  20.782  0.00  0.00    +0.000 A 
ATOM     27  C   UNL     1       0.330   9.201  21.608  0.00  0.00    +0.000 A 
ATOM     28  N   UNL     1      -0.087  10.265  20.854  0.00  0.00    +0.000 N 
ATOM     29  C   UNL     1      -0.931  11.313  21.203  0.00  0.00    +0.000 A 
ENDBRANCH  19  26
ENDBRANCH  18  19
ENDBRANCH   1  18
TORSDOF 7
ENDMDL
MODEL 6
REMARK VINA RESULT:      -8.0      1.426      2.120
REMARK  Name = 
REMARK  9 active torsions:
REMARK  status: ('A' for Active; 'I' for Inactive)
REMARK    1  A    between atoms: C_1  and  C_2
REMARK    2  A    between atoms: C_7  and  C_8
REMARK    3  A    between atoms: C_8  and  O_9
REMARK    4  A    between atoms: O_9  and  C_10
REMARK    5  A    between atoms: C_15  and  C_16
REMARK    6  A    between atoms: C_16  and  C_18
REMARK    7  A    between atoms: C_18  and  C_19
REMARK    8  A    between atoms: C_18  and  C_21
REMARK    9  A    between atoms: C_23  and  C_24
REMARK                            x       y       z     vdW  Elec       q    Type
REMARK                         _______ _______ _______ _____ _____    ______ ____
ROOT
ATOM      1  C   UNL     1       3.213   5.062  18.307  0.00  0.00    +0.000 A 
ATOM      2  C   UNL     1       1.962   4.624  17.844  0.00  0.00    +0.000 A 
ATOM      3  C   UNL     1       1.695   3.270  17.660  0.00  0.00    +0.000 A 
ATOM      4  C   UNL     1       2.711   2.342  17.813  0.00  0.00    +0.000 A 
ATOM      5  C   UNL     1       3.996   2.772  18.136  0.00  0.00    +0.000 A 
ATOM      6  C   UNL     1       4.261   4.125  18.419  0.00  0.00    +0.000 A 
ENDROOT
BRANCH   6   7
ATOM      7  C   UNL     1       5.639   4.528  18.880  0.00  0.00    +0.000 C 
ATOM      8  O   UNL     1       5.845   4.710  20.085  0.00  0.00    +0.000 OA
BRANCH   7   9
ATOM      9  C   UNL     1       6.767   4.779  17.880  0.00  0.00    +0.000 C 
BRANCH   9  10
ATOM     10  C   UNL     1       6.269   4.852  16.455  0.00  0.00    +0.000 A 
ATOM     11  N   UNL     1       6.400   3.901  15.549  0.00  0.00    +0.000 NA
ATOM     12  C   UNL     1       5.920   4.320  14.319  0.00  0.00    +0.000 A 
ATOM     13  C   UNL     1       5.936   3.381  13.167  0.00  0.00    +0.000 C 
ATOM     14  C   UNL     1       5.453   5.618  14.302  0.00  0.00    +0.000 A 
ATOM     15  S   UNL     1       5.464   6.272  15.882  0.00  0.00    +0.000 S 
ENDBRANCH   9  10
BRANCH   9  16
ATOM     16  C   UNL     1       7.524   5.971  18.283  0.00  0.00    +0.000 C 
ATOM     17  N   UNL     1       8.119   6.926  18.592  0.00  0.00    +0.000 NA
ENDBRANCH   9  16
ENDBRANCH   7   9
ENDBRANCH   6   7
BRANCH   1  18
ATOM     18  O   UNL     1       3.433   6.352  18.725  0.00  0.00    +0.000 OA
BRANCH  18  19
ATOM     19  C   UNL     1       2.740   7.432  18.056  0.00  0.00    +0.000 C 
BRANCH  19  26
ATOM     20  C   UNL     1      -1.300  10.982  23.165  0.00  0.00    +0.000 C 
ATOM     21  C   UNL     1      -0.577  10.618  21.908  0.00  0.00    +0.000 A 
ATOM     22  C   UNL     1      -0.617  11.531  20.766  0.00  0.00    +0.000 A 
ATOM     23  C   UNL     1       0.019  11.252  19.611  0.00  0.00    +0.000 A 
ATOM     24  C   UNL     1       0.780  10.054  19.494  0.00  0.00    +0.000 A 
ATOM     25  N   UNL     1       1.504   9.568  18.508  0.00  0.00    +0.000 NA
ATOM     26  C   UNL     1       1.999   8.362  18.972  0.00  0.00    +0.000 A 
ATOM     27  C   UNL     1       1.593   8.144  20.271  0.00  0.00    +0.000 A 
ATOM     28  N   UNL     1       0.803   9.213  20.600  0.00  0.00    +0.000 N 
ATOM     29  C   UNL     1       0.129   9.477  21.786  0.00  0.00    +0.000 A 
ENDBRANCH  19  26
ENDBRANCH  18  19
ENDBRANCH   1  18
TORSDOF 7
ENDMDL
MODEL 7
REMARK VINA RESULT:      -7.9      1.041      1.453
REMARK  Name = 
REMARK  9 active torsions:
REMARK  status: ('A' for Active; 'I' for Inactive)
REMARK    1  A    between atoms: C_1  and  C_2
REMARK    2  A    between atoms: C_7  and  C_8
REMARK    3  A    between atoms: C_8  and  O_9
REMARK    4  A    between atoms: O_9  and  C_10
REMARK    5  A    between atoms: C_15  and  C_16
REMARK    6  A    between atoms: C_16  and  C_18
REMARK    7  A    between atoms: C_18  and  C_19
REMARK    8  A    between atoms: C_18  and  C_21
REMARK    9  A    between atoms: C_23  and  C_24
REMARK                            x       y       z     vdW  Elec       q    Type
REMARK                         _______ _______ _______ _____ _____    ______ ____
ROOT
ATOM      1  C   UNL     1       2.088   4.829  19.289  0.00  0.00    +0.000 A 
ATOM      2  C   UNL     1       1.000   4.148  19.857  0.00  0.00    +0.000 A 
ATOM      3  C   UNL     1       0.711   2.832  19.509  0.00  0.00    +0.000 A 
ATOM      4  C   UNL     1       1.426   2.216  18.495  0.00  0.00    +0.000 A 
ATOM      5  C   UNL     1       2.419   2.925  17.822  0.00  0.00    +0.000 A 
ATOM      6  C   UNL     1       2.787   4.222  18.225  0.00  0.00    +0.000 A 
ENDROOT
BRANCH   6   7
ATOM      7  C   UNL     1       3.947   4.905  17.546  0.00  0.00    +0.000 C 
ATOM      8  O   UNL     1       3.790   6.035  17.071  0.00  0.00    +0.000 OA
BRANCH   7   9
ATOM      9  C   UNL     1       5.292   4.201  17.375  0.00  0.00    +0.000 C 
BRANCH   9  10
ATOM     10  C   UNL     1       5.855   4.361  15.982  0.00  0.00    +0.000 A 
ATOM     11  N   UNL     1       5.453   3.699  14.914  0.00  0.00    +0.000 NA
ATOM     12  C   UNL     1       6.236   4.011  13.815  0.00  0.00    +0.000 A 
ATOM     13  C   UNL     1       5.924   3.402  12.495  0.00  0.00    +0.000 C 
ATOM     14  C   UNL     1       7.261   4.897  14.078  0.00  0.00    +0.000 A 
ATOM     15  S   UNL     1       7.147   5.474  15.684  0.00  0.00    +0.000 S 
ENDBRANCH   9  10
BRANCH   9  16
ATOM     16  C   UNL     1       6.219   4.653  18.422  0.00  0.00    +0.000 C 
ATOM     17  N   UNL     1       6.954   4.998  19.260  0.00  0.00    +0.000 NA
ENDBRANCH   9  16
ENDBRANCH   7   9
ENDBRANCH   6   7
BRANCH   1  18
ATOM     18  O   UNL     1       2.543   6.029  19.778  0.00  0.00    +0.000 OA
BRANCH  18  19
ATOM     19  C   UNL     1       1.845   6.642  20.889  0.00  0.00    +0.000 C 
BRANCH  19  26
ATOM     20  C   UNL     1       0.208  13.547  18.726  0.00  0.00    +0.000 C 
ATOM     21  C   UNL     1       0.338  12.284  19.517  0.00  0.00    +0.000 A 
ATOM     22  C   UNL     1      -0.194  12.232  20.879  0.00  0.00    +0.000 A 
ATOM     23  C   UNL     1      -0.106  11.120  21.634  0.00  0.00    +0.000 A 
ATOM     24  C   UNL     1       0.491   9.945  21.095  0.00  0.00    +0.000 A 
ATOM     25  N   UNL     1       0.674   8.743  21.600  0.00  0.00    +0.000 NA
ATOM     26  C   UNL     1       1.319   8.020  20.612  0.00  0.00    +0.000 A 
ATOM     27  C   UNL     1       1.491   8.795  19.485  0.00  0.00    +0.000 A 
ATOM     28  N   UNL     1       0.978  10.026  19.796  0.00  0.00    +0.000 N 
ATOM     29  C   UNL     1       0.917  11.175  19.018  0.00  0.00    +0.000 A 
ENDBRANCH  19  26
ENDBRANCH  18  19
ENDBRANCH   1  18
TORSDOF 7
ENDMDL
MODEL 8
REMARK VINA RESULT:      -7.9      4.837      7.376
REMARK  Name = 
REMARK  9 active torsions:
REMARK  status: ('A' for Active; 'I' for Inactive)
REMARK    1  A    between atoms: C_1  and  C_2
REMARK    2  A    between atoms: C_7  and  C_8
REMARK    3  A    between atoms: C_8  and  O_9
REMARK    4  A    between atoms: O_9  and  C_10
REMARK    5  A    between atoms: C_15  and  C_16
REMARK    6  A    between atoms: C_16  and  C_18
REMARK    7  A    between atoms: C_18  and  C_19
REMARK    8  A    between atoms: C_18  and  C_21
REMARK    9  A    between atoms: C_23  and  C_24
REMARK                            x       y       z     vdW  Elec       q    Type
REMARK                         _______ _______ _______ _____ _____    ______ ____
ROOT
ATOM      1  C   UNL     1       6.449   6.239  16.252  0.00  0.00    +0.000 A 
ATOM      2  C   UNL     1       7.243   5.540  15.329  0.00  0.00    +0.000 A 
ATOM      3  C   UNL     1       6.764   4.407  14.678  0.00  0.00    +0.000 A 
ATOM      4  C   UNL     1       5.533   3.880  15.030  0.00  0.00    +0.000 A 
ATOM      5  C   UNL     1       4.790   4.480  16.044  0.00  0.00    +0.000 A 
ATOM      6  C   UNL     1       5.215   5.680  16.645  0.00  0.00    +0.000 A 
ENDROOT
BRANCH   6   7
ATOM      7  C   UNL     1       4.323   6.358  17.654  0.00  0.00    +0.000 C 
ATOM      8  O   UNL     1       3.637   7.324  17.303  0.00  0.00    +0.000 OA
BRANCH   7   9
ATOM      9  C   UNL     1       4.301   5.914  19.117  0.00  0.00    +0.000 C 
BRANCH   9  10
ATOM     10  C   UNL     1       3.151   4.982  19.419  0.00  0.00    +0.000 A 
ATOM     11  N   UNL     1       3.017   3.756  18.951  0.00  0.00    +0.000 NA
ATOM     12  C   UNL     1       1.807   3.206  19.343  0.00  0.00    +0.000 A 
ATOM     13  C   UNL     1       1.476   1.810  18.954  0.00  0.00    +0.000 C 
ATOM     14  C   UNL     1       1.012   4.052  20.088  0.00  0.00    +0.000 A 
ATOM     15  S   UNL     1       1.854   5.497  20.443  0.00  0.00    +0.000 S 
ENDBRANCH   9  10
BRANCH   9  16
ATOM     16  C   UNL     1       5.607   5.347  19.477  0.00  0.00    +0.000 C 
ATOM     17  N   UNL     1       6.650   4.900  19.749  0.00  0.00    +0.000 NA
ENDBRANCH   9  16
ENDBRANCH   7   9
ENDBRANCH   6   7
BRANCH   1  18
ATOM     18  O   UNL     1       6.792   7.481  16.727  0.00  0.00    +0.000 OA
BRANCH  18  19
ATOM     19  C   UNL     1       7.813   7.581  17.750  0.00  0.00    +0.000 C 
BRANCH  19  26
ATOM     20  C   UNL     1       9.668  14.750  18.192  0.00  0.00    +0.000 C 
ATOM     21  C   UNL     1       9.557  13.279  18.439  0.00  0.00    +0.000 A 
ATOM     22  C   UNL     1      10.331  12.672  19.523  0.00  0.00    +0.000 A 
ATOM     23  C   UNL     1      10.266  11.353  19.789  0.00  0.00    +0.000 A 
ATOM     24  C   UNL     1       9.402  10.519  19.025  0.00  0.00    +0.000 A 
ATOM     25  N   UNL     1       9.136   9.232  19.097  0.00  0.00    +0.000 NA
ATOM     26  C   UNL     1       8.225   8.984  18.086  0.00  0.00    +0.000 A 
ATOM     27  C   UNL     1       7.914  10.153  17.423  0.00  0.00    +0.000 A 
ATOM     28  N   UNL     1       8.675  11.128  18.010  0.00  0.00    +0.000 N 
ATOM     29  C   UNL     1       8.755  12.482  17.708  0.00  0.00    +0.000 A 
ENDBRANCH  19  26
ENDBRANCH  18  19
ENDBRANCH   1  18
TORSDOF 7
ENDMDL
MODEL 9
REMARK VINA RESULT:      -7.8      2.211      3.119
REMARK  Name = 
REMARK  9 active torsions:
REMARK  status: ('A' for Active; 'I' for Inactive)
REMARK    1  A    between atoms: C_1  and  C_2
REMARK    2  A    between atoms: C_7  and  C_8
REMARK    3  A    between atoms: C_8  and  O_9
REMARK    4  A    between atoms: O_9  and  C_10
REMARK    5  A    between atoms: C_15  and  C_16
REMARK    6  A    between atoms: C_16  and  C_18
REMARK    7  A    between atoms: C_18  and  C_19
REMARK    8  A    between atoms: C_18  and  C_21
REMARK    9  A    between atoms: C_23  and  C_24
REMARK                            x       y       z     vdW  Elec       q    Type
REMARK                         _______ _______ _______ _____ _____    ______ ____
ROOT
ATOM      1  C   UNL     1       3.141   5.202  18.072  0.00  0.00    +0.000 A 
ATOM      2  C   UNL     1       1.794   4.806  18.086  0.00  0.00    +0.000 A 
ATOM      3  C   UNL     1       1.432   3.473  17.915  0.00  0.00    +0.000 A 
ATOM      4  C   UNL     1       2.398   2.533  17.600  0.00  0.00    +0.000 A 
ATOM      5  C   UNL     1       3.724   2.932  17.443  0.00  0.00    +0.000 A 
ATOM      6  C   UNL     1       4.121   4.256  17.706  0.00  0.00    +0.000 A 
ENDROOT
BRANCH   6   7
ATOM      7  C   UNL     1       5.584   4.616  17.639  0.00  0.00    +0.000 C 
ATOM      8  O   UNL     1       6.384   4.039  18.383  0.00  0.00    +0.000 OA
BRANCH   7   9
ATOM      9  C   UNL     1       6.085   5.726  16.716  0.00  0.00    +0.000 C 
BRANCH   9  10
ATOM     10  C   UNL     1       6.935   6.741  17.443  0.00  0.00    +0.000 A 
ATOM     11  N   UNL     1       7.074   8.008  17.101  0.00  0.00    +0.000 NA
ATOM     12  C   UNL     1       7.995   8.643  17.917  0.00  0.00    +0.000 A 
ATOM     13  C   UNL     1       8.268  10.092  17.726  0.00  0.00    +0.000 C 
ATOM     14  C   UNL     1       8.577   7.825  18.863  0.00  0.00    +0.000 A 
ATOM     15  S   UNL     1       7.847   6.279  18.839  0.00  0.00    +0.000 S 
ENDBRANCH   9  10
BRANCH   9  16
ATOM     16  C   UNL     1       6.768   5.131  15.559  0.00  0.00    +0.000 C 
ATOM     17  N   UNL     1       7.319   4.671  14.639  0.00  0.00    +0.000 NA
ENDBRANCH   9  16
ENDBRANCH   7   9
ENDBRANCH   6   7
BRANCH   1  18
ATOM     18  O   UNL     1       3.546   6.451  18.472  0.00  0.00    +0.000 OA
BRANCH  18  19
ATOM     19  C   UNL     1       2.858   7.612  17.946  0.00  0.00    +0.000 C 
BRANCH  19  26
ATOM     20  C   UNL     1      -1.133  12.160  22.238  0.00  0.00    +0.000 C 
ATOM     21  C   UNL     1      -0.329  11.006  21.729  0.00  0.00    +0.000 A 
ATOM     22  C   UNL     1      -0.020   9.893  22.628  0.00  0.00    +0.000 A 
ATOM     23  C   UNL     1       0.698   8.829  22.220  0.00  0.00    +0.000 A 
ATOM     24  C   UNL     1       1.150   8.756  20.871  0.00  0.00    +0.000 A 
ATOM     25  N   UNL     1       1.829   7.834  20.223  0.00  0.00    +0.000 NA
ATOM     26  C   UNL     1       1.982   8.321  18.937  0.00  0.00    +0.000 A 
ATOM     27  C   UNL     1       1.350   9.539  18.807  0.00  0.00    +0.000 A 
ATOM     28  N   UNL     1       0.833   9.825  20.042  0.00  0.00    +0.000 N 
ATOM     29  C   UNL     1       0.116  10.940  20.460  0.00  0.00    +0.000 A 
ENDBRANCH  19  26
ENDBRANCH  18  19
ENDBRANCH   1  18
TORSDOF 7
ENDMDL
