MODEL 1
REMARK VINA RESULT:      -7.1      0.000      0.000
REMARK  Name = 
REMARK  10 active torsions:
REMARK  status: ('A' for Active; 'I' for Inactive)
REMARK    1  A    between atoms: C_1  and  O_2
REMARK    2  A    between atoms: O_2  and  C_3
REMARK    3  A    between atoms: C_8  and  N_9
REMARK    4  A    between atoms: C_11  and  C_12
REMARK    5  A    between atoms: C_12  and  C_13
REMARK    6  A    between atoms: C_17  and  C_18
REMARK    7  A    between atoms: C_18  and  O_19
REMARK    8  A    between atoms: O_19  and  C_20
REMARK    9  A    between atoms: C_20  and  C_21
REMARK   10  A    between atoms: C_20  and  C_22
REMARK                            x       y       z     vdW  Elec       q    Type
REMARK                         _______ _______ _______ _____ _____    ______ ____
ROOT
ATOM      1  N   UNL     1       5.240   4.487  17.564  0.00  0.00    +0.000 N 
ATOM      2  N   UNL     1       5.879   5.126  18.592  0.00  0.00    +0.000 NA
ATOM      3  C   UNL     1       6.985   5.601  18.019  0.00  0.00    +0.000 A 
ATOM      4  N   UNL     1       7.123   5.273  16.705  0.00  0.00    +0.000 NA
ATOM      5  C   UNL     1       6.085   4.491  16.460  0.00  0.00    +0.000 A 
ENDROOT
BRANCH   1  11
ATOM      6  C   UNL     1       2.762   4.725  17.868  0.00  0.00    +0.000 A 
ATOM      7  C   UNL     1       1.539   4.080  18.114  0.00  0.00    +0.000 A 
ATOM      8  C   UNL     1       1.476   2.707  18.342  0.00  0.00    +0.000 A 
ATOM      9  C   UNL     1       2.637   1.948  18.312  0.00  0.00    +0.000 A 
ATOM     10  C   UNL     1       3.856   2.565  18.041  0.00  0.00    +0.000 A 
ATOM     11  C   UNL     1       3.938   3.957  17.797  0.00  0.00    +0.000 A 
BRANCH   6  13
ATOM     12  C   UNL     1       2.649   6.855  18.913  0.00  0.00    +0.000 C 
ATOM     13  O   UNL     1       2.840   6.083  17.727  0.00  0.00    +0.000 OA
ENDBRANCH   6  13
ENDBRANCH   1  11
BRANCH   3  14
ATOM     14  C   UNL     1       7.988   6.412  18.758  0.00  0.00    +0.000 C 
BRANCH  14  15
ATOM     15  C   UNL     1       8.158   7.839  18.270  0.00  0.00    +0.000 C 
ATOM     16  N   UNL     1       7.542   8.230  17.120  0.00  0.00    +0.000 N 
ATOM     17  O   UNL     1       8.842   8.653  18.893  0.00  0.00    +0.000 OA
ATOM     18  H   UNL     1       6.766   7.680  16.745  0.00  0.00    +0.000 HD
ATOM     19  H   UNL     1       7.583   9.210  16.877  0.00  0.00    +0.000 HD
ENDBRANCH  14  15
ENDBRANCH   3  14
BRANCH   5  20
ATOM     20  C   UNL     1       5.909   3.667  15.233  0.00  0.00    +0.000 C 
BRANCH  20  21
ATOM     21  O   UNL     1       6.610   4.322  14.164  0.00  0.00    +0.000 OA
BRANCH  21  22
ATOM     22  C   UNL     1       6.481   3.658  12.903  0.00  0.00    +0.000 C 
ATOM     23  C   UNL     1       5.024   3.567  12.458  0.00  0.00    +0.000 C 
ATOM     24  C   UNL     1       7.281   4.463  11.881  0.00  0.00    +0.000 C 
ENDBRANCH  21  22
ENDBRANCH  20  21
ENDBRANCH   5  20
TORSDOF 7
ENDMDL
MODEL 2
REMARK VINA RESULT:      -6.9      3.134      5.002
REMARK  Name = 
REMARK  10 active torsions:
REMARK  status: ('A' for Active; 'I' for Inactive)
REMARK    1  A    between atoms: C_1  and  O_2
REMARK    2  A    between atoms: O_2  and  C_3
REMARK    3  A    between atoms: C_8  and  N_9
REMARK    4  A    between atoms: C_11  and  C_12
REMARK    5  A    between atoms: C_12  and  C_13
REMARK    6  A    between atoms: C_17  and  C_18
REMARK    7  A    between atoms: C_18  and  O_19
REMARK    8  A    between atoms: O_19  and  C_20
REMARK    9  A    between atoms: C_20  and  C_21
REMARK   10  A    between atoms: C_20  and  C_22
REMARK                            x       y       z     vdW  Elec       q    Type
REMARK                         _______ _______ _______ _____ _____    ______ ____
ROOT
ATOM      1  N   UNL     1       2.817   5.908  18.841  0.00  0.00    +0.000 N 
ATOM      2  N   UNL     1       2.059   7.045  18.924  0.00  0.00    +0.000 NA
ATOM      3  C   UNL     1       2.672   7.885  18.090  0.00  0.00    +0.000 A 
ATOM      4  N   UNL     1       3.798   7.382  17.513  0.00  0.00    +0.000 NA
ATOM      5  C   UNL     1       3.937   6.189  18.068  0.00  0.00    +0.000 A 
ENDROOT
BRANCH   1  11
ATOM      6  C   UNL     1       1.811   3.612  18.899  0.00  0.00    +0.000 A 
ATOM      7  C   UNL     1       1.398   2.527  19.691  0.00  0.00    +0.000 A 
ATOM      8  C   UNL     1       1.482   2.570  21.080  0.00  0.00    +0.000 A 
ATOM      9  C   UNL     1       1.997   3.695  21.707  0.00  0.00    +0.000 A 
ATOM     10  C   UNL     1       2.438   4.769  20.938  0.00  0.00    +0.000 A 
ATOM     11  C   UNL     1       2.369   4.740  19.525  0.00  0.00    +0.000 A 
BRANCH   6  13
ATOM     12  C   UNL     1       2.670   2.949  16.787  0.00  0.00    +0.000 C 
ATOM     13  O   UNL     1       1.652   3.609  17.541  0.00  0.00    +0.000 OA
ENDBRANCH   6  13
ENDBRANCH   1  11
BRANCH   3  14
ATOM     14  C   UNL     1       2.173   9.258  17.823  0.00  0.00    +0.000 C 
BRANCH  14  15
ATOM     15  C   UNL     1       0.905   9.646  18.561  0.00  0.00    +0.000 C 
ATOM     16  N   UNL     1       0.934   9.770  19.918  0.00  0.00    +0.000 N 
ATOM     17  O   UNL     1      -0.151   9.852  17.960  0.00  0.00    +0.000 OA
ATOM     18  H   UNL     1       1.828   9.880  20.401  0.00  0.00    +0.000 HD
ATOM     19  H   UNL     1       0.107  10.133  20.372  0.00  0.00    +0.000 HD
ENDBRANCH  14  15
ENDBRANCH   3  14
BRANCH   5  20
ATOM     20  C   UNL     1       5.152   5.336  17.961  0.00  0.00    +0.000 C 
BRANCH  20  21
ATOM     21  O   UNL     1       6.021   5.676  19.054  0.00  0.00    +0.000 OA
BRANCH  21  22
ATOM     22  C   UNL     1       7.411   5.616  18.721  0.00  0.00    +0.000 C 
ATOM     23  C   UNL     1       7.688   4.581  17.634  0.00  0.00    +0.000 C 
ATOM     24  C   UNL     1       7.822   7.001  18.229  0.00  0.00    +0.000 C 
ENDBRANCH  21  22
ENDBRANCH  20  21
ENDBRANCH   5  20
TORSDOF 7
ENDMDL
MODEL 3
REMARK VINA RESULT:      -6.9      2.174      5.201
REMARK  Name = 
REMARK  10 active torsions:
REMARK  status: ('A' for Active; 'I' for Inactive)
REMARK    1  A    between atoms: C_1  and  O_2
REMARK    2  A    between atoms: O_2  and  C_3
REMARK    3  A    between atoms: C_8  and  N_9
REMARK    4  A    between atoms: C_11  and  C_12
REMARK    5  A    between atoms: C_12  and  C_13
REMARK    6  A    between atoms: C_17  and  C_18
REMARK    7  A    between atoms: C_18  and  O_19
REMARK    8  A    between atoms: O_19  and  C_20
REMARK    9  A    between atoms: C_20  and  C_21
REMARK   10  A    between atoms: C_20  and  C_22
REMARK                            x       y       z     vdW  Elec       q    Type
REMARK                         _______ _______ _______ _____ _____    ______ ____
ROOT
ATOM      1  N   UNL     1       4.883   4.437  16.307  0.00  0.00    +0.000 N 
ATOM      2  N   UNL     1       5.298   3.633  15.279  0.00  0.00    +0.000 NA
ATOM      3  C   UNL     1       5.971   4.468  14.489  0.00  0.00    +0.000 A 
ATOM      4  N   UNL     1       5.980   5.762  14.913  0.00  0.00    +0.000 NA
ATOM      5  C   UNL     1       5.211   5.750  15.990  0.00  0.00    +0.000 A 
ENDROOT
BRANCH   1  11
ATOM      6  C   UNL     1       4.797   3.665  18.691  0.00  0.00    +0.000 A 
ATOM      7  C   UNL     1       4.043   3.045  19.702  0.00  0.00    +0.000 A 
ATOM      8  C   UNL     1       2.766   2.550  19.453  0.00  0.00    +0.000 A 
ATOM      9  C   UNL     1       2.208   2.681  18.189  0.00  0.00    +0.000 A 
ATOM     10  C   UNL     1       2.928   3.318  17.182  0.00  0.00    +0.000 A 
ATOM     11  C   UNL     1       4.224   3.835  17.419  0.00  0.00    +0.000 A 
BRANCH   6  13
ATOM     12  C   UNL     1       6.243   5.362  19.508  0.00  0.00    +0.000 C 
ATOM     13  O   UNL     1       6.083   4.077  18.908  0.00  0.00    +0.000 OA
ENDBRANCH   6  13
ENDBRANCH   1  11
BRANCH   3  14
ATOM     14  C   UNL     1       6.647   4.024  13.242  0.00  0.00    +0.000 C 
BRANCH  14  15
ATOM     15  C   UNL     1       5.787   3.214  12.288  0.00  0.00    +0.000 C 
ATOM     16  N   UNL     1       6.270   2.045  11.784  0.00  0.00    +0.000 N 
ATOM     17  O   UNL     1       4.661   3.591  11.960  0.00  0.00    +0.000 OA
ATOM     18  H   UNL     1       7.057   1.579  12.240  0.00  0.00    +0.000 HD
ATOM     19  H   UNL     1       5.638   1.474  11.239  0.00  0.00    +0.000 HD
ENDBRANCH  14  15
ENDBRANCH   3  14
BRANCH   5  20
ATOM     20  C   UNL     1       4.696   6.962  16.683  0.00  0.00    +0.000 C 
BRANCH  20  21
ATOM     21  O   UNL     1       3.450   6.611  17.306  0.00  0.00    +0.000 OA
BRANCH  21  22
ATOM     22  C   UNL     1       3.051   7.516  18.340  0.00  0.00    +0.000 C 
ATOM     23  C   UNL     1       2.023   8.528  17.841  0.00  0.00    +0.000 C 
ATOM     24  C   UNL     1       2.446   6.682  19.467  0.00  0.00    +0.000 C 
ENDBRANCH  21  22
ENDBRANCH  20  21
ENDBRANCH   5  20
TORSDOF 7
ENDMDL
MODEL 4
REMARK VINA RESULT:      -6.9      1.291      1.932
REMARK  Name = 
REMARK  10 active torsions:
REMARK  status: ('A' for Active; 'I' for Inactive)
REMARK    1  A    between atoms: C_1  and  O_2
REMARK    2  A    between atoms: O_2  and  C_3
REMARK    3  A    between atoms: C_8  and  N_9
REMARK    4  A    between atoms: C_11  and  C_12
REMARK    5  A    between atoms: C_12  and  C_13
REMARK    6  A    between atoms: C_17  and  C_18
REMARK    7  A    between atoms: C_18  and  O_19
REMARK    8  A    between atoms: O_19  and  C_20
REMARK    9  A    between atoms: C_20  and  C_21
REMARK   10  A    between atoms: C_20  and  C_22
REMARK                            x       y       z     vdW  Elec       q    Type
REMARK                         _______ _______ _______ _____ _____    ______ ____
ROOT
ATOM      1  N   UNL     1       5.170   4.544  17.881  0.00  0.00    +0.000 N 
ATOM      2  N   UNL     1       5.880   5.202  18.848  0.00  0.00    +0.000 NA
ATOM      3  C   UNL     1       6.927   5.689  18.183  0.00  0.00    +0.000 A 
ATOM      4  N   UNL     1       6.963   5.351  16.864  0.00  0.00    +0.000 NA
ATOM      5  C   UNL     1       5.921   4.551  16.711  0.00  0.00    +0.000 A 
ENDROOT
BRANCH   1  11
ATOM      6  C   UNL     1       3.711   2.850  19.018  0.00  0.00    +0.000 A 
ATOM      7  C   UNL     1       2.403   2.405  19.273  0.00  0.00    +0.000 A 
ATOM      8  C   UNL     1       1.298   3.040  18.712  0.00  0.00    +0.000 A 
ATOM      9  C   UNL     1       1.479   4.147  17.896  0.00  0.00    +0.000 A 
ATOM     10  C   UNL     1       2.766   4.622  17.654  0.00  0.00    +0.000 A 
ATOM     11  C   UNL     1       3.899   3.995  18.223  0.00  0.00    +0.000 A 
BRANCH   6  13
ATOM     12  C   UNL     1       4.707   1.692  20.836  0.00  0.00    +0.000 C 
ATOM     13  O   UNL     1       4.802   2.180  19.498  0.00  0.00    +0.000 OA
ENDBRANCH   6  13
ENDBRANCH   1  11
BRANCH   3  14
ATOM     14  C   UNL     1       7.974   6.521  18.830  0.00  0.00    +0.000 C 
BRANCH  14  15
ATOM     15  C   UNL     1       8.151   7.913  18.250  0.00  0.00    +0.000 C 
ATOM     16  N   UNL     1       7.579   8.213  17.050  0.00  0.00    +0.000 N 
ATOM     17  O   UNL     1       8.800   8.778  18.840  0.00  0.00    +0.000 OA
ATOM     18  H   UNL     1       6.825   7.628  16.684  0.00  0.00    +0.000 HD
ATOM     19  H   UNL     1       7.621   9.174  16.740  0.00  0.00    +0.000 HD
ENDBRANCH  14  15
ENDBRANCH   3  14
BRANCH   5  20
ATOM     20  C   UNL     1       5.659   3.712  15.509  0.00  0.00    +0.000 C 
BRANCH  20  21
ATOM     21  O   UNL     1       5.876   4.532  14.350  0.00  0.00    +0.000 OA
BRANCH  21  22
ATOM     22  C   UNL     1       6.507   3.841  13.268  0.00  0.00    +0.000 C 
ATOM     23  C   UNL     1       5.486   3.312  12.263  0.00  0.00    +0.000 C 
ATOM     24  C   UNL     1       7.443   4.830  12.578  0.00  0.00    +0.000 C 
ENDBRANCH  21  22
ENDBRANCH  20  21
ENDBRANCH   5  20
TORSDOF 7
ENDMDL
MODEL 5
REMARK VINA RESULT:      -6.9      1.759      2.518
REMARK  Name = 
REMARK  10 active torsions:
REMARK  status: ('A' for Active; 'I' for Inactive)
REMARK    1  A    between atoms: C_1  and  O_2
REMARK    2  A    between atoms: O_2  and  C_3
REMARK    3  A    between atoms: C_8  and  N_9
REMARK    4  A    between atoms: C_11  and  C_12
REMARK    5  A    between atoms: C_12  and  C_13
REMARK    6  A    between atoms: C_17  and  C_18
REMARK    7  A    between atoms: C_18  and  O_19
REMARK    8  A    between atoms: O_19  and  C_20
REMARK    9  A    between atoms: C_20  and  C_21
REMARK   10  A    between atoms: C_20  and  C_22
REMARK                            x       y       z     vdW  Elec       q    Type
REMARK                         _______ _______ _______ _____ _____    ______ ____
ROOT
ATOM      1  N   UNL     1       4.900   4.833  18.831  0.00  0.00    +0.000 N 
ATOM      2  N   UNL     1       5.911   5.397  19.559  0.00  0.00    +0.000 NA
ATOM      3  C   UNL     1       6.782   5.785  18.628  0.00  0.00    +0.000 A 
ATOM      4  N   UNL     1       6.422   5.467  17.354  0.00  0.00    +0.000 NA
ATOM      5  C   UNL     1       5.300   4.782  17.500  0.00  0.00    +0.000 A 
ENDROOT
BRANCH   1  11
ATOM      6  C   UNL     1       3.412   3.078  19.828  0.00  0.00    +0.000 A 
ATOM      7  C   UNL     1       2.208   2.795  20.495  0.00  0.00    +0.000 A 
ATOM      8  C   UNL     1       1.295   3.801  20.801  0.00  0.00    +0.000 A 
ATOM      9  C   UNL     1       1.576   5.116  20.459  0.00  0.00    +0.000 A 
ATOM     10  C   UNL     1       2.776   5.420  19.823  0.00  0.00    +0.000 A 
ATOM     11  C   UNL     1       3.720   4.413  19.513  0.00  0.00    +0.000 A 
BRANCH   6  13
ATOM     12  C   UNL     1       3.788   1.167  18.469  0.00  0.00    +0.000 C 
ATOM     13  O   UNL     1       4.272   2.084  19.451  0.00  0.00    +0.000 OA
ENDBRANCH   6  13
ENDBRANCH   1  11
BRANCH   3  14
ATOM     14  C   UNL     1       8.046   6.493  18.956  0.00  0.00    +0.000 C 
BRANCH  14  15
ATOM     15  C   UNL     1       8.211   7.860  18.316  0.00  0.00    +0.000 C 
ATOM     16  N   UNL     1       7.647   8.100  17.099  0.00  0.00    +0.000 N 
ATOM     17  O   UNL     1       8.845   8.758  18.873  0.00  0.00    +0.000 OA
ATOM     18  H   UNL     1       6.903   7.490  16.753  0.00  0.00    +0.000 HD
ATOM     19  H   UNL     1       7.680   9.047  16.747  0.00  0.00    +0.000 HD
ENDBRANCH  14  15
ENDBRANCH   3  14
BRANCH   5  20
ATOM     20  C   UNL     1       4.635   3.995  16.426  0.00  0.00    +0.000 C 
BRANCH  20  21
ATOM     21  O   UNL     1       5.650   3.580  15.498  0.00  0.00    +0.000 OA
BRANCH  21  22
ATOM     22  C   UNL     1       5.730   4.400  14.329  0.00  0.00    +0.000 C 
ATOM     23  C   UNL     1       7.150   4.903  14.087  0.00  0.00    +0.000 C 
ATOM     24  C   UNL     1       5.275   3.551  13.144  0.00  0.00    +0.000 C 
ENDBRANCH  21  22
ENDBRANCH  20  21
ENDBRANCH   5  20
TORSDOF 7
ENDMDL
MODEL 6
REMARK VINA RESULT:      -6.9      2.378      4.974
REMARK  Name = 
REMARK  10 active torsions:
REMARK  status: ('A' for Active; 'I' for Inactive)
REMARK    1  A    between atoms: C_1  and  O_2
REMARK    2  A    between atoms: O_2  and  C_3
REMARK    3  A    between atoms: C_8  and  N_9
REMARK    4  A    between atoms: C_11  and  C_12
REMARK    5  A    between atoms: C_12  and  C_13
REMARK    6  A    between atoms: C_17  and  C_18
REMARK    7  A    between atoms: C_18  and  O_19
REMARK    8  A    between atoms: O_19  and  C_20
REMARK    9  A    between atoms: C_20  and  C_21
REMARK   10  A    between atoms: C_20  and  C_22
REMARK                            x       y       z     vdW  Elec       q    Type
REMARK                         _______ _______ _______ _____ _____    ______ ____
ROOT
ATOM      1  N   UNL     1       3.686   6.197  17.781  0.00  0.00    +0.000 N 
ATOM      2  N   UNL     1       5.025   6.429  17.617  0.00  0.00    +0.000 NA
ATOM      3  C   UNL     1       5.442   5.360  16.940  0.00  0.00    +0.000 A 
ATOM      4  N   UNL     1       4.473   4.434  16.698  0.00  0.00    +0.000 NA
ATOM      5  C   UNL     1       3.408   4.916  17.317  0.00  0.00    +0.000 A 
ENDROOT
BRANCH   1  11
ATOM      6  C   UNL     1       2.371   7.177  19.678  0.00  0.00    +0.000 A 
ATOM      7  C   UNL     1       1.582   8.246  20.136  0.00  0.00    +0.000 A 
ATOM      8  C   UNL     1       1.257   9.314  19.304  0.00  0.00    +0.000 A 
ATOM      9  C   UNL     1       1.728   9.343  18.000  0.00  0.00    +0.000 A 
ATOM     10  C   UNL     1       2.535   8.307  17.536  0.00  0.00    +0.000 A 
ATOM     11  C   UNL     1       2.884   7.218  18.370  0.00  0.00    +0.000 A 
BRANCH   6  13
ATOM     12  C   UNL     1       1.490   5.304  20.843  0.00  0.00    +0.000 C 
ATOM     13  O   UNL     1       2.623   6.086  20.463  0.00  0.00    +0.000 OA
ENDBRANCH   6  13
ENDBRANCH   1  11
BRANCH   3  14
ATOM     14  C   UNL     1       6.850   5.188  16.498  0.00  0.00    +0.000 C 
BRANCH  14  15
ATOM     15  C   UNL     1       7.033   4.799  15.042  0.00  0.00    +0.000 C 
ATOM     16  N   UNL     1       6.392   3.697  14.560  0.00  0.00    +0.000 N 
ATOM     17  O   UNL     1       7.748   5.459  14.286  0.00  0.00    +0.000 OA
ATOM     18  H   UNL     1       5.596   3.307  15.069  0.00  0.00    +0.000 HD
ATOM     19  H   UNL     1       6.444   3.524  13.566  0.00  0.00    +0.000 HD
ENDBRANCH  14  15
ENDBRANCH   3  14
BRANCH   5  20
ATOM     20  C   UNL     1       2.151   4.159  17.566  0.00  0.00    +0.000 C 
BRANCH  20  21
ATOM     21  O   UNL     1       2.313   2.848  17.001  0.00  0.00    +0.000 OA
BRANCH  21  22
ATOM     22  C   UNL     1       2.220   1.793  17.962  0.00  0.00    +0.000 C 
ATOM     23  C   UNL     1       3.562   1.521  18.635  0.00  0.00    +0.000 C 
ATOM     24  C   UNL     1       1.196   2.221  19.011  0.00  0.00    +0.000 C 
ENDBRANCH  21  22
ENDBRANCH  20  21
ENDBRANCH   5  20
TORSDOF 7
ENDMDL
MODEL 7
REMARK VINA RESULT:      -6.8      2.832      6.257
REMARK  Name = 
REMARK  10 active torsions:
REMARK  status: ('A' for Active; 'I' for Inactive)
REMARK    1  A    between atoms: C_1  and  O_2
REMARK    2  A    between atoms: O_2  and  C_3
REMARK    3  A    between atoms: C_8  and  N_9
REMARK    4  A    between atoms: C_11  and  C_12
REMARK    5  A    between atoms: C_12  and  C_13
REMARK    6  A    between atoms: C_17  and  C_18
REMARK    7  A    between atoms: C_18  and  O_19
REMARK    8  A    between atoms: O_19  and  C_20
REMARK    9  A    between atoms: C_20  and  C_21
REMARK   10  A    between atoms: C_20  and  C_22
REMARK                            x       y       z     vdW  Elec       q    Type
REMARK                         _______ _______ _______ _____ _____    ______ ____
ROOT
ATOM      1  N   UNL     1       3.931   6.313  17.658  0.00  0.00    +0.000 N 
ATOM      2  N   UNL     1       3.690   7.588  17.221  0.00  0.00    +0.000 NA
ATOM      3  C   UNL     1       2.707   8.005  18.019  0.00  0.00    +0.000 A 
ATOM      4  N   UNL     1       2.268   7.071  18.907  0.00  0.00    +0.000 NA
ATOM      5  C   UNL     1       2.965   5.988  18.603  0.00  0.00    +0.000 A 
ENDROOT
BRANCH   1  11
ATOM      6  C   UNL     1       6.186   5.226  17.802  0.00  0.00    +0.000 A 
ATOM      7  C   UNL     1       7.204   4.530  17.128  0.00  0.00    +0.000 A 
ATOM      8  C   UNL     1       7.111   4.251  15.766  0.00  0.00    +0.000 A 
ATOM      9  C   UNL     1       5.988   4.648  15.055  0.00  0.00    +0.000 A 
ATOM     10  C   UNL     1       4.956   5.313  15.712  0.00  0.00    +0.000 A 
ATOM     11  C   UNL     1       5.029   5.597  17.096  0.00  0.00    +0.000 A 
BRANCH   6  13
ATOM     12  C   UNL     1       7.642   5.711  19.615  0.00  0.00    +0.000 C 
ATOM     13  O   UNL     1       6.310   5.576  19.119  0.00  0.00    +0.000 OA
ENDBRANCH   6  13
ENDBRANCH   1  11
BRANCH   3  14
ATOM     14  C   UNL     1       2.130   9.371  17.936  0.00  0.00    +0.000 C 
BRANCH  14  15
ATOM     15  C   UNL     1       0.887   9.606  18.775  0.00  0.00    +0.000 C 
ATOM     16  N   UNL     1       0.968   9.502  20.131  0.00  0.00    +0.000 N 
ATOM     17  O   UNL     1      -0.194   9.890  18.257  0.00  0.00    +0.000 OA
ATOM     18  H   UNL     1       1.879   9.547  20.592  0.00  0.00    +0.000 HD
ATOM     19  H   UNL     1       0.155   9.768  20.670  0.00  0.00    +0.000 HD
ENDBRANCH  14  15
ENDBRANCH   3  14
BRANCH   5  20
ATOM     20  C   UNL     1       2.683   4.620  19.117  0.00  0.00    +0.000 C 
BRANCH  20  21
ATOM     21  O   UNL     1       1.591   4.720  20.046  0.00  0.00    +0.000 OA
BRANCH  21  22
ATOM     22  C   UNL     1       0.914   3.480  20.270  0.00  0.00    +0.000 C 
ATOM     23  C   UNL     1       0.974   2.573  19.044  0.00  0.00    +0.000 C 
ATOM     24  C   UNL     1       1.597   2.795  21.451  0.00  0.00    +0.000 C 
ENDBRANCH  21  22
ENDBRANCH  20  21
ENDBRANCH   5  20
TORSDOF 7
ENDMDL
MODEL 8
REMARK VINA RESULT:      -6.8      2.716      6.558
REMARK  Name = 
REMARK  10 active torsions:
REMARK  status: ('A' for Active; 'I' for Inactive)
REMARK    1  A    between atoms: C_1  and  O_2
REMARK    2  A    between atoms: O_2  and  C_3
REMARK    3  A    between atoms: C_8  and  N_9
REMARK    4  A    between atoms: C_11  and  C_12
REMARK    5  A    between atoms: C_12  and  C_13
REMARK    6  A    between atoms: C_17  and  C_18
REMARK    7  A    between atoms: C_18  and  O_19
REMARK    8  A    between atoms: O_19  and  C_20
REMARK    9  A    between atoms: C_20  and  C_21
REMARK   10  A    between atoms: C_20  and  C_22
REMARK                            x       y       z     vdW  Elec       q    Type
REMARK                         _______ _______ _______ _____ _____    ______ ____
ROOT
ATOM      1  N   UNL     1       3.796   4.464  18.103  0.00  0.00    +0.000 N 
ATOM      2  N   UNL     1       3.453   3.320  18.772  0.00  0.00    +0.000 NA
ATOM      3  C   UNL     1       2.272   3.621  19.310  0.00  0.00    +0.000 A 
ATOM      4  N   UNL     1       1.853   4.895  19.072  0.00  0.00    +0.000 NA
ATOM      5  C   UNL     1       2.857   5.443  18.408  0.00  0.00    +0.000 A 
ENDROOT
BRANCH   1  11
ATOM      6  C   UNL     1       6.272   4.689  17.772  0.00  0.00    +0.000 A 
ATOM      7  C   UNL     1       7.346   4.662  16.867  0.00  0.00    +0.000 A 
ATOM      8  C   UNL     1       7.141   4.463  15.504  0.00  0.00    +0.000 A 
ATOM      9  C   UNL     1       5.855   4.269  15.020  0.00  0.00    +0.000 A 
ATOM     10  C   UNL     1       4.780   4.263  15.905  0.00  0.00    +0.000 A 
ATOM     11  C   UNL     1       4.970   4.454  17.294  0.00  0.00    +0.000 A 
BRANCH   6  13
ATOM     12  C   UNL     1       7.651   5.679  19.433  0.00  0.00    +0.000 C 
ATOM     13  O   UNL     1       6.459   4.968  19.098  0.00  0.00    +0.000 OA
ENDBRANCH   6  13
ENDBRANCH   1  11
BRANCH   3  14
ATOM     14  C   UNL     1       1.484   2.651  20.113  0.00  0.00    +0.000 C 
BRANCH  14  15
ATOM     15  C   UNL     1       1.651   2.763  21.618  0.00  0.00    +0.000 C 
ATOM     16  N   UNL     1       2.477   3.719  22.128  0.00  0.00    +0.000 N 
ATOM     17  O   UNL     1       1.054   2.010  22.388  0.00  0.00    +0.000 OA
ATOM     18  H   UNL     1       2.756   4.514  21.549  0.00  0.00    +0.000 HD
ATOM     19  H   UNL     1       2.486   3.842  23.131  0.00  0.00    +0.000 HD
ENDBRANCH  14  15
ENDBRANCH   3  14
BRANCH   5  20
ATOM     20  C   UNL     1       3.003   6.898  18.130  0.00  0.00    +0.000 C 
BRANCH  20  21
ATOM     21  O   UNL     1       2.442   7.613  19.243  0.00  0.00    +0.000 OA
BRANCH  21  22
ATOM     22  C   UNL     1       1.454   8.577  18.867  0.00  0.00    +0.000 C 
ATOM     23  C   UNL     1       0.988   9.405  20.062  0.00  0.00    +0.000 C 
ATOM     24  C   UNL     1       2.086   9.492  17.822  0.00  0.00    +0.000 C 
ENDBRANCH  21  22
ENDBRANCH  20  21
ENDBRANCH   5  20
TORSDOF 7
ENDMDL
MODEL 9
REMARK VINA RESULT:      -6.8      2.560      6.034
REMARK  Name = 
REMARK  10 active torsions:
REMARK  status: ('A' for Active; 'I' for Inactive)
REMARK    1  A    between atoms: C_1  and  O_2
REMARK    2  A    between atoms: O_2  and  C_3
REMARK    3  A    between atoms: C_8  and  N_9
REMARK    4  A    between atoms: C_11  and  C_12
REMARK    5  A    between atoms: C_12  and  C_13
REMARK    6  A    between atoms: C_17  and  C_18
REMARK    7  A    between atoms: C_18  and  O_19
REMARK    8  A    between atoms: O_19  and  C_20
REMARK    9  A    between atoms: C_20  and  C_21
REMARK   10  A    between atoms: C_20  and  C_22
REMARK                            x       y       z     vdW  Elec       q    Type
REMARK                         _______ _______ _______ _____ _____    ______ ____
ROOT
ATOM      1  N   UNL     1       3.872   5.855  17.573  0.00  0.00    +0.000 N 
ATOM      2  N   UNL     1       3.676   7.208  17.634  0.00  0.00    +0.000 NA
ATOM      3  C   UNL     1       2.557   7.325  18.348  0.00  0.00    +0.000 A 
ATOM      4  N   UNL     1       1.995   6.139  18.711  0.00  0.00    +0.000 NA
ATOM      5  C   UNL     1       2.763   5.231  18.134  0.00  0.00    +0.000 A 
ENDROOT
BRANCH   1  11
ATOM      6  C   UNL     1       6.292   5.201  17.651  0.00  0.00    +0.000 A 
ATOM      7  C   UNL     1       7.405   4.720  16.942  0.00  0.00    +0.000 A 
ATOM      8  C   UNL     1       7.336   4.456  15.576  0.00  0.00    +0.000 A 
ATOM      9  C   UNL     1       6.143   4.653  14.894  0.00  0.00    +0.000 A 
ATOM     10  C   UNL     1       5.021   5.102  15.585  0.00  0.00    +0.000 A 
ATOM     11  C   UNL     1       5.070   5.366  16.974  0.00  0.00    +0.000 A 
BRANCH   6  13
ATOM     12  C   UNL     1       7.694   5.687  19.505  0.00  0.00    +0.000 C 
ATOM     13  O   UNL     1       6.377   5.542  18.973  0.00  0.00    +0.000 OA
ENDBRANCH   6  13
ENDBRANCH   1  11
BRANCH   3  14
ATOM     14  C   UNL     1       1.967   8.640  18.707  0.00  0.00    +0.000 C 
BRANCH  14  15
ATOM     15  C   UNL     1       1.339   8.718  20.087  0.00  0.00    +0.000 C 
ATOM     16  N   UNL     1       1.752   7.855  21.058  0.00  0.00    +0.000 N 
ATOM     17  O   UNL     1       0.464   9.544  20.350  0.00  0.00    +0.000 OA
ATOM     18  H   UNL     1       2.644   7.365  20.958  0.00  0.00    +0.000 HD
ATOM     19  H   UNL     1       1.397   7.999  21.993  0.00  0.00    +0.000 HD
ENDBRANCH  14  15
ENDBRANCH   3  14
BRANCH   5  20
ATOM     20  C   UNL     1       2.433   3.784  18.016  0.00  0.00    +0.000 C 
BRANCH  20  21
ATOM     21  O   UNL     1       2.843   3.143  19.235  0.00  0.00    +0.000 OA
BRANCH  21  22
ATOM     22  C   UNL     1       1.821   2.342  19.834  0.00  0.00    +0.000 C 
ATOM     23  C   UNL     1       1.401   2.887  21.197  0.00  0.00    +0.000 C 
ATOM     24  C   UNL     1       0.623   2.348  18.887  0.00  0.00    +0.000 C 
ENDBRANCH  21  22
ENDBRANCH  20  21
ENDBRANCH   5  20
TORSDOF 7
ENDMDL
