MODEL 1
REMARK VINA RESULT:      -8.1      0.000      0.000
REMARK  Name = 
REMARK  4 active torsions:
REMARK  status: ('A' for Active; 'I' for Inactive)
REMARK    1  A    between atoms: C_1  and  O_2
REMARK    2  A    between atoms: O_2  and  C_3
REMARK    3  A    between atoms: C_9  and  C_10
REMARK    4  A    between atoms: N_12  and  C_13
REMARK                            x       y       z     vdW  Elec       q    Type
REMARK                         _______ _______ _______ _____ _____    ______ ____
ROOT
ATOM      1  C   UNL     1       2.190   8.015  18.048  0.00  0.00    +0.000 A 
ATOM      2  C   UNL     1       1.594   7.054  18.897  0.00  0.00    +0.000 A 
ATOM      3  C   UNL     1       2.294   5.907  19.281  0.00  0.00    +0.000 A 
ATOM      4  C   UNL     1       3.572   5.773  18.782  0.00  0.00    +0.000 A 
ATOM      5  C   UNL     1       4.183   6.698  17.959  0.00  0.00    +0.000 A 
ATOM      6  C   UNL     1       3.505   7.847  17.591  0.00  0.00    +0.000 A 
ATOM      7  C   UNL     1       5.520   6.148  17.514  0.00  0.00    +0.000 C 
ATOM      8  C   UNL     1       5.576   4.798  18.254  0.00  0.00    +0.000 C 
ATOM      9  O   UNL     1       6.484   3.984  18.169  0.00  0.00    +0.000 OA
ATOM     10  N   UNL     1       4.408   4.686  19.001  0.00  0.00    +0.000 N 
ATOM     11  C   UNL     1       3.940   3.562  19.784  0.00  0.00    +0.000 C 
ATOM     12  C   UNL     1       2.860   3.994  20.789  0.00  0.00    +0.000 C 
ATOM     13  C   UNL     1       1.729   4.791  20.109  0.00  0.00    +0.000 C 
ENDROOT
BRANCH   7  14
ATOM     14  C   UNL     1       5.567   5.966  16.011  0.00  0.00    +0.000 C 
ATOM     15  O   UNL     1       5.240   6.882  15.257  0.00  0.00    +0.000 OA
ATOM     16  N   UNL     1       6.029   4.736  15.562  0.00  0.00    +0.000 N 
ATOM     17  H   UNL     1       5.970   3.943  16.201  0.00  0.00    +0.000 HD
BRANCH  16  18
ATOM     18  C   UNL     1       6.175   4.425  14.184  0.00  0.00    +0.000 A 
ATOM     19  C   UNL     1       5.234   3.671  13.476  0.00  0.00    +0.000 A 
ATOM     20  C   UNL     1       5.502   3.257  12.178  0.00  0.00    +0.000 A 
ATOM     21  F   UNL     1       4.617   2.477  11.545  0.00  0.00    +0.000 F 
ATOM     22  C   UNL     1       6.681   3.615  11.540  0.00  0.00    +0.000 A 
ATOM     23  C   UNL     1       7.588   4.443  12.199  0.00  0.00    +0.000 A 
ATOM     24  C   UNL     1       7.324   4.848  13.509  0.00  0.00    +0.000 A 
ATOM     25  F   UNL     1       8.218   5.629  14.139  0.00  0.00    +0.000 F 
ENDBRANCH  16  18
ENDBRANCH   7  14
BRANCH   1  27
ATOM     26  C   UNL     1       0.983   9.879  18.859  0.00  0.00    +0.000 C 
ATOM     27  O   UNL     1       1.400   9.093  17.744  0.00  0.00    +0.000 OA
ENDBRANCH   1  27
TORSDOF 3
ENDMDL
MODEL 2
REMARK VINA RESULT:      -7.5      0.971      1.014
REMARK  Name = 
REMARK  4 active torsions:
REMARK  status: ('A' for Active; 'I' for Inactive)
REMARK    1  A    between atoms: C_1  and  O_2
REMARK    2  A    between atoms: O_2  and  C_3
REMARK    3  A    between atoms: C_9  and  C_10
REMARK    4  A    between atoms: N_12  and  C_13
REMARK                            x       y       z     vdW  Elec       q    Type
REMARK                         _______ _______ _______ _____ _____    ______ ____
ROOT
ATOM      1  C   UNL     1       2.776   7.961  17.973  0.00  0.00    +0.000 A 
ATOM      2  C   UNL     1       1.916   7.417  18.955  0.00  0.00    +0.000 A 
ATOM      3  C   UNL     1       2.206   6.191  19.559  0.00  0.00    +0.000 A 
ATOM      4  C   UNL     1       3.355   5.555  19.137  0.00  0.00    +0.000 A 
ATOM      5  C   UNL     1       4.217   6.065  18.187  0.00  0.00    +0.000 A 
ATOM      6  C   UNL     1       3.949   7.290  17.599  0.00  0.00    +0.000 A 
ATOM      7  C   UNL     1       5.285   5.034  17.893  0.00  0.00    +0.000 C 
ATOM      8  C   UNL     1       4.908   3.895  18.860  0.00  0.00    +0.000 C 
ATOM      9  O   UNL     1       5.493   2.826  18.950  0.00  0.00    +0.000 OA
ATOM     10  N   UNL     1       3.789   4.310  19.572  0.00  0.00    +0.000 N 
ATOM     11  C   UNL     1       2.994   3.562  20.523  0.00  0.00    +0.000 C 
ATOM     12  C   UNL     1       2.144   4.497  21.397  0.00  0.00    +0.000 C 
ATOM     13  C   UNL     1       1.324   5.489  20.549  0.00  0.00    +0.000 C 
ENDROOT
BRANCH   7  14
ATOM     14  C   UNL     1       5.231   4.584  16.447  0.00  0.00    +0.000 C 
ATOM     15  O   UNL     1       4.226   4.035  15.997  0.00  0.00    +0.000 OA
ATOM     16  N   UNL     1       6.355   4.864  15.682  0.00  0.00    +0.000 N 
ATOM     17  H   UNL     1       7.239   5.011  16.170  0.00  0.00    +0.000 HD
BRANCH  16  18
ATOM     18  C   UNL     1       6.444   4.548  14.300  0.00  0.00    +0.000 A 
ATOM     19  C   UNL     1       5.537   3.698  13.660  0.00  0.00    +0.000 A 
ATOM     20  C   UNL     1       5.762   3.293  12.351  0.00  0.00    +0.000 A 
ATOM     21  F   UNL     1       4.918   2.423  11.782  0.00  0.00    +0.000 F 
ATOM     22  C   UNL     1       6.859   3.752  11.636  0.00  0.00    +0.000 A 
ATOM     23  C   UNL     1       7.722   4.672  12.230  0.00  0.00    +0.000 A 
ATOM     24  C   UNL     1       7.503   5.069  13.550  0.00  0.00    +0.000 A 
ATOM     25  F   UNL     1       8.355   5.940  14.116  0.00  0.00    +0.000 F 
ENDBRANCH  16  18
ENDBRANCH   7  14
BRANCH   1  27
ATOM     26  C   UNL     1       1.284   9.789  18.124  0.00  0.00    +0.000 C 
ATOM     27  O   UNL     1       2.382   9.168  17.457  0.00  0.00    +0.000 OA
ENDBRANCH   1  27
TORSDOF 3
ENDMDL
MODEL 3
REMARK VINA RESULT:      -7.4      5.241      7.589
REMARK  Name = 
REMARK  4 active torsions:
REMARK  status: ('A' for Active; 'I' for Inactive)
REMARK    1  A    between atoms: C_1  and  O_2
REMARK    2  A    between atoms: O_2  and  C_3
REMARK    3  A    between atoms: C_9  and  C_10
REMARK    4  A    between atoms: N_12  and  C_13
REMARK                            x       y       z     vdW  Elec       q    Type
REMARK                         _______ _______ _______ _____ _____    ______ ____
ROOT
ATOM      1  C   UNL     1      -1.183  10.514  18.019  0.00  0.00    +0.000 A 
ATOM      2  C   UNL     1      -1.997  11.333  18.835  0.00  0.00    +0.000 A 
ATOM      3  C   UNL     1      -1.715  11.495  20.194  0.00  0.00    +0.000 A 
ATOM      4  C   UNL     1      -0.620  10.810  20.679  0.00  0.00    +0.000 A 
ATOM      5  C   UNL     1       0.197  10.010  19.906  0.00  0.00    +0.000 A 
ATOM      6  C   UNL     1      -0.062   9.862  18.554  0.00  0.00    +0.000 A 
ATOM      7  C   UNL     1       1.205   9.328  20.805  0.00  0.00    +0.000 C 
ATOM      8  C   UNL     1       0.849   9.909  22.187  0.00  0.00    +0.000 C 
ATOM      9  O   UNL     1       1.398   9.613  23.238  0.00  0.00    +0.000 OA
ATOM     10  N   UNL     1      -0.206  10.797  22.004  0.00  0.00    +0.000 N 
ATOM     11  C   UNL     1      -0.965  11.517  23.004  0.00  0.00    +0.000 C 
ATOM     12  C   UNL     1      -1.721  12.702  22.384  0.00  0.00    +0.000 C 
ATOM     13  C   UNL     1      -2.557  12.273  21.161  0.00  0.00    +0.000 C 
ENDROOT
BRANCH   7  14
ATOM     14  C   UNL     1       1.041   7.822  20.770  0.00  0.00    +0.000 C 
ATOM     15  O   UNL     1       0.000   7.294  21.161  0.00  0.00    +0.000 OA
ATOM     16  N   UNL     1       2.109   7.108  20.245  0.00  0.00    +0.000 N 
ATOM     17  H   UNL     1       3.028   7.551  20.249  0.00  0.00    +0.000 HD
BRANCH  16  18
ATOM     18  C   UNL     1       2.093   5.694  20.102  0.00  0.00    +0.000 A 
ATOM     19  C   UNL     1       2.207   4.824  21.190  0.00  0.00    +0.000 A 
ATOM     20  C   UNL     1       2.351   3.458  20.983  0.00  0.00    +0.000 A 
ATOM     21  F   UNL     1       2.529   2.652  22.036  0.00  0.00    +0.000 F 
ATOM     22  C   UNL     1       2.340   2.923  19.702  0.00  0.00    +0.000 A 
ATOM     23  C   UNL     1       2.135   3.767  18.612  0.00  0.00    +0.000 A 
ATOM     24  C   UNL     1       2.004   5.141  18.821  0.00  0.00    +0.000 A 
ATOM     25  F   UNL     1       1.828   5.945  17.759  0.00  0.00    +0.000 F 
ENDBRANCH  16  18
ENDBRANCH   7  14
BRANCH   1  27
ATOM     26  C   UNL     1      -2.782  11.105  16.382  0.00  0.00    +0.000 C 
ATOM     27  O   UNL     1      -1.565  10.437  16.705  0.00  0.00    +0.000 OA
ENDBRANCH   1  27
TORSDOF 3
ENDMDL
MODEL 4
REMARK VINA RESULT:      -7.3      4.627      7.782
REMARK  Name = 
REMARK  4 active torsions:
REMARK  status: ('A' for Active; 'I' for Inactive)
REMARK    1  A    between atoms: C_1  and  O_2
REMARK    2  A    between atoms: O_2  and  C_3
REMARK    3  A    between atoms: C_9  and  C_10
REMARK    4  A    between atoms: N_12  and  C_13
REMARK                            x       y       z     vdW  Elec       q    Type
REMARK                         _______ _______ _______ _____ _____    ______ ____
ROOT
ATOM      1  C   UNL     1      -2.313  10.111  17.044  0.00  0.00    +0.000 A 
ATOM      2  C   UNL     1      -3.212  10.902  17.797  0.00  0.00    +0.000 A 
ATOM      3  C   UNL     1      -2.780  11.585  18.937  0.00  0.00    +0.000 A 
ATOM      4  C   UNL     1      -1.452  11.434  19.276  0.00  0.00    +0.000 A 
ATOM      5  C   UNL     1      -0.550  10.676  18.556  0.00  0.00    +0.000 A 
ATOM      6  C   UNL     1      -0.964  10.014  17.414  0.00  0.00    +0.000 A 
ATOM      7  C   UNL     1       0.766  10.644  19.302  0.00  0.00    +0.000 C 
ATOM      8  C   UNL     1       0.468  11.538  20.521  0.00  0.00    +0.000 C 
ATOM      9  O   UNL     1       1.252  11.779  21.427  0.00  0.00    +0.000 OA
ATOM     10  N   UNL     1      -0.843  11.985  20.396  0.00  0.00    +0.000 N 
ATOM     11  C   UNL     1      -1.626  12.764  21.333  0.00  0.00    +0.000 C 
ATOM     12  C   UNL     1      -2.836  13.412  20.643  0.00  0.00    +0.000 C 
ATOM     13  C   UNL     1      -3.665  12.383  19.849  0.00  0.00    +0.000 C 
ENDROOT
BRANCH   7  14
ATOM     14  C   UNL     1       1.128   9.233  19.716  0.00  0.00    +0.000 C 
ATOM     15  O   UNL     1       0.658   8.739  20.741  0.00  0.00    +0.000 OA
ATOM     16  N   UNL     1       1.975   8.547  18.858  0.00  0.00    +0.000 N 
ATOM     17  H   UNL     1       2.568   9.095  18.233  0.00  0.00    +0.000 HD
BRANCH  16  18
ATOM     18  C   UNL     1       2.373   7.201  19.081  0.00  0.00    +0.000 A 
ATOM     19  C   UNL     1       1.930   6.454  20.176  0.00  0.00    +0.000 A 
ATOM     20  C   UNL     1       2.473   5.203  20.437  0.00  0.00    +0.000 A 
ATOM     21  F   UNL     1       2.084   4.536  21.531  0.00  0.00    +0.000 F 
ATOM     22  C   UNL     1       3.430   4.648  19.599  0.00  0.00    +0.000 A 
ATOM     23  C   UNL     1       3.815   5.341  18.452  0.00  0.00    +0.000 A 
ATOM     24  C   UNL     1       3.278   6.604  18.198  0.00  0.00    +0.000 A 
ATOM     25  F   UNL     1       3.674   7.269  17.100  0.00  0.00    +0.000 F 
ENDBRANCH  16  18
ENDBRANCH   7  14
BRANCH   1  27
ATOM     26  C   UNL     1      -3.112  10.338  14.830  0.00  0.00    +0.000 C 
ATOM     27  O   UNL     1      -2.859   9.491  15.949  0.00  0.00    +0.000 OA
ENDBRANCH   1  27
TORSDOF 3
ENDMDL
MODEL 5
REMARK VINA RESULT:      -7.2      0.959      1.680
REMARK  Name = 
REMARK  4 active torsions:
REMARK  status: ('A' for Active; 'I' for Inactive)
REMARK    1  A    between atoms: C_1  and  O_2
REMARK    2  A    between atoms: O_2  and  C_3
REMARK    3  A    between atoms: C_9  and  C_10
REMARK    4  A    between atoms: N_12  and  C_13
REMARK                            x       y       z     vdW  Elec       q    Type
REMARK                         _______ _______ _______ _____ _____    ______ ____
ROOT
ATOM      1  C   UNL     1       2.212   8.138  18.126  0.00  0.00    +0.000 A 
ATOM      2  C   UNL     1       1.558   7.176  18.930  0.00  0.00    +0.000 A 
ATOM      3  C   UNL     1       2.227   6.024  19.352  0.00  0.00    +0.000 A 
ATOM      4  C   UNL     1       3.534   5.886  18.936  0.00  0.00    +0.000 A 
ATOM      5  C   UNL     1       4.201   6.812  18.159  0.00  0.00    +0.000 A 
ATOM      6  C   UNL     1       3.553   7.967  17.754  0.00  0.00    +0.000 A 
ATOM      7  C   UNL     1       5.562   6.258  17.799  0.00  0.00    +0.000 C 
ATOM      8  C   UNL     1       5.564   4.904  18.534  0.00  0.00    +0.000 C 
ATOM      9  O   UNL     1       6.472   4.087  18.503  0.00  0.00    +0.000 OA
ATOM     10  N   UNL     1       4.350   4.795  19.203  0.00  0.00    +0.000 N 
ATOM     11  C   UNL     1       3.827   3.669  19.949  0.00  0.00    +0.000 C 
ATOM     12  C   UNL     1       2.686   4.101  20.884  0.00  0.00    +0.000 C 
ATOM     13  C   UNL     1       1.605   4.906  20.136  0.00  0.00    +0.000 C 
ENDROOT
BRANCH   7  14
ATOM     14  C   UNL     1       5.705   6.084  16.301  0.00  0.00    +0.000 C 
ATOM     15  O   UNL     1       5.081   6.804  15.522  0.00  0.00    +0.000 OA
ATOM     16  N   UNL     1       6.596   5.103  15.887  0.00  0.00    +0.000 N 
ATOM     17  H   UNL     1       6.818   4.353  16.542  0.00  0.00    +0.000 HD
BRANCH  16  18
ATOM     18  C   UNL     1       6.876   4.846  14.518  0.00  0.00    +0.000 A 
ATOM     19  C   UNL     1       7.690   5.680  13.744  0.00  0.00    +0.000 A 
ATOM     20  C   UNL     1       7.800   5.475  12.375  0.00  0.00    +0.000 A 
ATOM     21  F   UNL     1       8.528   6.328  11.643  0.00  0.00    +0.000 F 
ATOM     22  C   UNL     1       7.147   4.421  11.752  0.00  0.00    +0.000 A 
ATOM     23  C   UNL     1       6.406   3.528  12.524  0.00  0.00    +0.000 A 
ATOM     24  C   UNL     1       6.285   3.741  13.898  0.00  0.00    +0.000 A 
ATOM     25  F   UNL     1       5.551   2.883  14.626  0.00  0.00    +0.000 F 
ENDBRANCH  16  18
ENDBRANCH   7  14
BRANCH   1  27
ATOM     26  C   UNL     1       1.036  10.054  18.860  0.00  0.00    +0.000 C 
ATOM     27  O   UNL     1       1.449   9.222  17.778  0.00  0.00    +0.000 OA
ENDBRANCH   1  27
TORSDOF 3
ENDMDL
MODEL 6
REMARK VINA RESULT:      -7.2      1.092      1.218
REMARK  Name = 
REMARK  4 active torsions:
REMARK  status: ('A' for Active; 'I' for Inactive)
REMARK    1  A    between atoms: C_1  and  O_2
REMARK    2  A    between atoms: O_2  and  C_3
REMARK    3  A    between atoms: C_9  and  C_10
REMARK    4  A    between atoms: N_12  and  C_13
REMARK                            x       y       z     vdW  Elec       q    Type
REMARK                         _______ _______ _______ _____ _____    ______ ____
ROOT
ATOM      1  C   UNL     1       2.133   7.533  19.393  0.00  0.00    +0.000 A 
ATOM      2  C   UNL     1       1.343   6.547  20.028  0.00  0.00    +0.000 A 
ATOM      3  C   UNL     1       1.818   5.242  20.182  0.00  0.00    +0.000 A 
ATOM      4  C   UNL     1       3.074   4.981  19.678  0.00  0.00    +0.000 A 
ATOM      5  C   UNL     1       3.871   5.925  19.061  0.00  0.00    +0.000 A 
ATOM      6  C   UNL     1       3.418   7.226  18.923  0.00  0.00    +0.000 A 
ATOM      7  C   UNL     1       5.112   5.244  18.528  0.00  0.00    +0.000 C 
ATOM      8  C   UNL     1       4.901   3.787  18.985  0.00  0.00    +0.000 C 
ATOM      9  O   UNL     1       5.659   2.858  18.748  0.00  0.00    +0.000 OA
ATOM     10  N   UNL     1       3.700   3.742  19.685  0.00  0.00    +0.000 N 
ATOM     11  C   UNL     1       3.011   2.589  20.224  0.00  0.00    +0.000 C 
ATOM     12  C   UNL     1       1.979   3.003  21.285  0.00  0.00    +0.000 C 
ATOM     13  C   UNL     1       1.033   4.104  20.767  0.00  0.00    +0.000 C 
ENDROOT
BRANCH   7  14
ATOM     14  C   UNL     1       5.193   5.352  17.019  0.00  0.00    +0.000 C 
ATOM     15  O   UNL     1       4.659   6.289  16.427  0.00  0.00    +0.000 OA
ATOM     16  N   UNL     1       5.925   4.362  16.378  0.00  0.00    +0.000 N 
ATOM     17  H   UNL     1       6.054   3.474  16.864  0.00  0.00    +0.000 HD
BRANCH  16  18
ATOM     18  C   UNL     1       6.133   4.346  14.973  0.00  0.00    +0.000 A 
ATOM     19  C   UNL     1       5.324   3.615  14.097  0.00  0.00    +0.000 A 
ATOM     20  C   UNL     1       5.667   3.502  12.757  0.00  0.00    +0.000 A 
ATOM     21  F   UNL     1       4.917   2.739  11.952  0.00  0.00    +0.000 F 
ATOM     22  C   UNL     1       6.787   4.143  12.246  0.00  0.00    +0.000 A 
ATOM     23  C   UNL     1       7.552   4.950  13.087  0.00  0.00    +0.000 A 
ATOM     24  C   UNL     1       7.214   5.053  14.437  0.00  0.00    +0.000 A 
ATOM     25  F   UNL     1       7.973   5.819  15.240  0.00  0.00    +0.000 F 
ENDBRANCH  16  18
ENDBRANCH   7  14
BRANCH   1  27
ATOM     26  C   UNL     1       1.420   9.289  17.980  0.00  0.00    +0.000 C 
ATOM     27  O   UNL     1       1.555   8.773  19.302  0.00  0.00    +0.000 OA
ENDBRANCH   1  27
TORSDOF 3
ENDMDL
MODEL 7
REMARK VINA RESULT:      -7.1      1.525      1.788
REMARK  Name = 
REMARK  4 active torsions:
REMARK  status: ('A' for Active; 'I' for Inactive)
REMARK    1  A    between atoms: C_1  and  O_2
REMARK    2  A    between atoms: O_2  and  C_3
REMARK    3  A    between atoms: C_9  and  C_10
REMARK    4  A    between atoms: N_12  and  C_13
REMARK                            x       y       z     vdW  Elec       q    Type
REMARK                         _______ _______ _______ _____ _____    ______ ____
ROOT
ATOM      1  C   UNL     1       2.782   7.029  19.021  0.00  0.00    +0.000 A 
ATOM      2  C   UNL     1       1.737   6.375  19.714  0.00  0.00    +0.000 A 
ATOM      3  C   UNL     1       1.749   4.988  19.883  0.00  0.00    +0.000 A 
ATOM      4  C   UNL     1       2.819   4.313  19.336  0.00  0.00    +0.000 A 
ATOM      5  C   UNL     1       3.858   4.924  18.663  0.00  0.00    +0.000 A 
ATOM      6  C   UNL     1       3.865   6.300  18.509  0.00  0.00    +0.000 A 
ATOM      7  C   UNL     1       4.769   3.857  18.098  0.00  0.00    +0.000 C 
ATOM      8  C   UNL     1       4.101   2.563  18.602  0.00  0.00    +0.000 C 
ATOM      9  O   UNL     1       4.488   1.429  18.358  0.00  0.00    +0.000 OA
ATOM     10  N   UNL     1       2.989   2.935  19.350  0.00  0.00    +0.000 N 
ATOM     11  C   UNL     1       1.977   2.089  19.947  0.00  0.00    +0.000 C 
ATOM     12  C   UNL     1       1.197   2.840  21.037  0.00  0.00    +0.000 C 
ATOM     13  C   UNL     1       0.655   4.190  20.529  0.00  0.00    +0.000 C 
ENDROOT
BRANCH   7  14
ATOM     14  C   UNL     1       4.811   3.914  16.585  0.00  0.00    +0.000 C 
ATOM     15  O   UNL     1       3.771   3.975  15.929  0.00  0.00    +0.000 OA
ATOM     16  N   UNL     1       6.076   3.930  16.013  0.00  0.00    +0.000 N 
ATOM     17  H   UNL     1       6.852   3.557  16.561  0.00  0.00    +0.000 HD
BRANCH  16  18
ATOM     18  C   UNL     1       6.286   4.027  14.611  0.00  0.00    +0.000 A 
ATOM     19  C   UNL     1       5.612   3.221  13.688  0.00  0.00    +0.000 A 
ATOM     20  C   UNL     1       5.970   3.241  12.347  0.00  0.00    +0.000 A 
ATOM     21  F   UNL     1       5.359   2.410  11.494  0.00  0.00    +0.000 F 
ATOM     22  C   UNL     1       6.968   4.087  11.884  0.00  0.00    +0.000 A 
ATOM     23  C   UNL     1       7.586   4.963  12.776  0.00  0.00    +0.000 A 
ATOM     24  C   UNL     1       7.234   4.933  14.126  0.00  0.00    +0.000 A 
ATOM     25  F   UNL     1       7.853   5.768  14.977  0.00  0.00    +0.000 F 
ENDBRANCH  16  18
ENDBRANCH   7  14
BRANCH   1  27
ATOM     26  C   UNL     1       1.790   8.848  17.883  0.00  0.00    +0.000 C 
ATOM     27  O   UNL     1       2.654   8.390  18.922  0.00  0.00    +0.000 OA
ENDBRANCH   1  27
TORSDOF 3
ENDMDL
MODEL 8
REMARK VINA RESULT:      -7.0      5.906      9.776
REMARK  Name = 
REMARK  4 active torsions:
REMARK  status: ('A' for Active; 'I' for Inactive)
REMARK    1  A    between atoms: C_1  and  O_2
REMARK    2  A    between atoms: O_2  and  C_3
REMARK    3  A    between atoms: C_9  and  C_10
REMARK    4  A    between atoms: N_12  and  C_13
REMARK                            x       y       z     vdW  Elec       q    Type
REMARK                         _______ _______ _______ _____ _____    ______ ____
ROOT
ATOM      1  C   UNL     1       1.535   8.792  18.802  0.00  0.00    +0.000 A 
ATOM      2  C   UNL     1       1.653   8.496  20.180  0.00  0.00    +0.000 A 
ATOM      3  C   UNL     1       0.893   9.188  21.127  0.00  0.00    +0.000 A 
ATOM      4  C   UNL     1       0.046  10.162  20.641  0.00  0.00    +0.000 A 
ATOM      5  C   UNL     1      -0.096  10.466  19.302  0.00  0.00    +0.000 A 
ATOM      6  C   UNL     1       0.637   9.771  18.355  0.00  0.00    +0.000 A 
ATOM      7  C   UNL     1      -1.008  11.666  19.167  0.00  0.00    +0.000 C 
ATOM      8  C   UNL     1      -1.385  11.950  20.634  0.00  0.00    +0.000 C 
ATOM      9  O   UNL     1      -2.099  12.866  21.013  0.00  0.00    +0.000 OA
ATOM     10  N   UNL     1      -0.751  10.992  21.418  0.00  0.00    +0.000 N 
ATOM     11  C   UNL     1      -0.705  10.891  22.862  0.00  0.00    +0.000 C 
ATOM     12  C   UNL     1      -0.294   9.479  23.308  0.00  0.00    +0.000 C 
ATOM     13  C   UNL     1       0.999   9.010  22.613  0.00  0.00    +0.000 C 
ENDROOT
BRANCH   7  14
ATOM     14  C   UNL     1      -0.284  12.838  18.538  0.00  0.00    +0.000 C 
ATOM     15  O   UNL     1      -0.619  13.263  17.432  0.00  0.00    +0.000 OA
ATOM     16  N   UNL     1       0.732  13.403  19.296  0.00  0.00    +0.000 N 
ATOM     17  H   UNL     1       1.164  12.827  20.019  0.00  0.00    +0.000 HD
BRANCH  16  18
ATOM     18  C   UNL     1       1.475  14.535  18.867  0.00  0.00    +0.000 A 
ATOM     19  C   UNL     1       1.028  15.847  19.052  0.00  0.00    +0.000 A 
ATOM     20  C   UNL     1       1.710  16.908  18.472  0.00  0.00    +0.000 A 
ATOM     21  F   UNL     1       1.225  18.148  18.604  0.00  0.00    +0.000 F 
ATOM     22  C   UNL     1       2.868  16.699  17.736  0.00  0.00    +0.000 A 
ATOM     23  C   UNL     1       3.377  15.407  17.619  0.00  0.00    +0.000 A 
ATOM     24  C   UNL     1       2.684  14.339  18.192  0.00  0.00    +0.000 A 
ATOM     25  F   UNL     1       3.176  13.096  18.053  0.00  0.00    +0.000 F 
ENDBRANCH  16  18
ENDBRANCH   7  14
BRANCH   1  27
ATOM     26  C   UNL     1       2.824   6.827  18.535  0.00  0.00    +0.000 C 
ATOM     27  O   UNL     1       2.335   8.045  17.976  0.00  0.00    +0.000 OA
ENDBRANCH   1  27
TORSDOF 3
ENDMDL
MODEL 9
REMARK VINA RESULT:      -7.0      4.329      7.176
REMARK  Name = 
REMARK  4 active torsions:
REMARK  status: ('A' for Active; 'I' for Inactive)
REMARK    1  A    between atoms: C_1  and  O_2
REMARK    2  A    between atoms: O_2  and  C_3
REMARK    3  A    between atoms: C_9  and  C_10
REMARK    4  A    between atoms: N_12  and  C_13
REMARK                            x       y       z     vdW  Elec       q    Type
REMARK                         _______ _______ _______ _____ _____    ______ ____
ROOT
ATOM      1  C   UNL     1      -0.591  10.871  22.066  0.00  0.00    +0.000 A 
ATOM      2  C   UNL     1      -0.044  12.149  21.809  0.00  0.00    +0.000 A 
ATOM      3  C   UNL     1       0.723  12.381  20.664  0.00  0.00    +0.000 A 
ATOM      4  C   UNL     1       0.916  11.303  19.825  0.00  0.00    +0.000 A 
ATOM      5  C   UNL     1       0.388  10.047  20.047  0.00  0.00    +0.000 A 
ATOM      6  C   UNL     1      -0.391   9.814  21.167  0.00  0.00    +0.000 A 
ATOM      7  C   UNL     1       0.919   9.101  18.991  0.00  0.00    +0.000 C 
ATOM      8  C   UNL     1       1.784  10.038  18.126  0.00  0.00    +0.000 C 
ATOM      9  O   UNL     1       2.439   9.693  17.153  0.00  0.00    +0.000 OA
ATOM     10  N   UNL     1       1.687  11.313  18.671  0.00  0.00    +0.000 N 
ATOM     11  C   UNL     1       2.393  12.517  18.286  0.00  0.00    +0.000 C 
ATOM     12  C   UNL     1       1.689  13.772  18.824  0.00  0.00    +0.000 C 
ATOM     13  C   UNL     1       1.414  13.672  20.338  0.00  0.00    +0.000 C 
ENDROOT
BRANCH   7  14
ATOM     14  C   UNL     1       1.742   7.991  19.612  0.00  0.00    +0.000 C 
ATOM     15  O   UNL     1       2.005   8.001  20.814  0.00  0.00    +0.000 OA
ATOM     16  N   UNL     1       2.133   6.973  18.753  0.00  0.00    +0.000 N 
ATOM     17  H   UNL     1       2.169   7.179  17.755  0.00  0.00    +0.000 HD
BRANCH  16  18
ATOM     18  C   UNL     1       2.869   5.839  19.189  0.00  0.00    +0.000 A 
ATOM     19  C   UNL     1       4.209   5.631  18.846  0.00  0.00    +0.000 A 
ATOM     20  C   UNL     1       4.833   4.431  19.159  0.00  0.00    +0.000 A 
ATOM     21  F   UNL     1       6.094   4.226  18.758  0.00  0.00    +0.000 F 
ATOM     22  C   UNL     1       4.164   3.434  19.855  0.00  0.00    +0.000 A 
ATOM     23  C   UNL     1       2.858   3.663  20.284  0.00  0.00    +0.000 A 
ATOM     24  C   UNL     1       2.226   4.864  19.957  0.00  0.00    +0.000 A 
ATOM     25  F   UNL     1       0.959   5.062  20.360  0.00  0.00    +0.000 F 
ENDBRANCH  16  18
ENDBRANCH   7  14
BRANCH   1  27
ATOM     26  C   UNL     1      -2.345  11.753  23.383  0.00  0.00    +0.000 C 
ATOM     27  O   UNL     1      -1.323  10.772  23.221  0.00  0.00    +0.000 OA
ENDBRANCH   1  27
TORSDOF 3
ENDMDL
