MODEL 1
REMARK VINA RESULT:      -7.1      0.000      0.000
REMARK  Name = 
REMARK  4 active torsions:
REMARK  status: ('A' for Active; 'I' for Inactive)
REMARK    1  A    between atoms: C_1  and  C_2
REMARK    2  A    between atoms: C_7  and  N_8
REMARK    3  A    between atoms: C_9  and  C_11
REMARK    4  A    between atoms: N_23  and  C_24
REMARK                            x       y       z     vdW  Elec       q    Type
REMARK                         _______ _______ _______ _____ _____    ______ ____
ROOT
ATOM      1  C   UNL     1      -0.607  12.526  19.103  0.00  0.00    +0.000 A 
ATOM      2  C   UNL     1      -0.078  13.818  19.137  0.00  0.00    +0.000 A 
ATOM      3  C   UNL     1       1.242  13.958  18.788  0.00  0.00    +0.000 A 
ATOM      4  N   UNL     1       2.073  13.013  18.344  0.00  0.00    +0.000 NA
ATOM      5  C   UNL     1       1.580  11.787  18.295  0.00  0.00    +0.000 A 
ATOM      6  C   UNL     1       2.482  10.822  17.887  0.00  0.00    +0.000 A 
ATOM      7  C   UNL     1       2.144   9.476  17.868  0.00  0.00    +0.000 A 
ATOM      8  C   UNL     1       0.869   9.098  18.254  0.00  0.00    +0.000 A 
ATOM      9  C   UNL     1      -0.066  10.057  18.656  0.00  0.00    +0.000 A 
ATOM     10  C   UNL     1       0.248  11.443  18.679  0.00  0.00    +0.000 A 
ATOM     11  C   UNL     1       1.666  15.337  19.008  0.00  0.00    +0.000 C 
ATOM     12  O   UNL     1       2.824  15.701  18.970  0.00  0.00    +0.000 OA
ATOM     13  N   UNL     1       0.510  16.072  19.250  0.00  0.00    +0.000 N 
ATOM     14  C   UNL     1      -0.610  15.160  19.552  0.00  0.00    +0.000 C 
ENDROOT
BRANCH  13  15
ATOM     15  C   UNL     1       0.508  17.524  19.530  0.00  0.00    +0.000 C 
ATOM     16  C   UNL     1       1.118  18.374  18.390  0.00  0.00    +0.000 C 
ATOM     17  C   UNL     1       0.321  18.214  17.093  0.00  0.00    +0.000 C 
ATOM     18  C   UNL     1      -1.133  18.631  17.288  0.00  0.00    +0.000 C 
ATOM     19  C   UNL     1      -1.779  17.985  18.516  0.00  0.00    +0.000 C 
ATOM     20  C   UNL     1      -0.907  18.080  19.773  0.00  0.00    +0.000 C 
ENDBRANCH  13  15
BRANCH   1  22
ATOM     21  N   UNL     1      -3.090  12.637  18.995  0.00  0.00    +0.000 N 
ATOM     22  C   UNL     1      -1.945  12.327  19.726  0.00  0.00    +0.000 C 
ATOM     23  O   UNL     1      -1.943  11.918  20.885  0.00  0.00    +0.000 OA
ATOM     24  H   UNL     1      -2.990  13.262  18.203  0.00  0.00    +0.000 HD
BRANCH  21  31
ATOM     25  C   UNL     1      -4.578  10.702  17.291  0.00  0.00    +0.000 C 
ATOM     26  C   UNL     1      -5.134  11.328  18.540  0.00  0.00    +0.000 A 
ATOM     27  C   UNL     1      -6.444  10.958  18.918  0.00  0.00    +0.000 A 
ATOM     28  C   UNL     1      -7.037  11.465  20.072  0.00  0.00    +0.000 A 
ATOM     29  C   UNL     1      -6.317  12.328  20.883  0.00  0.00    +0.000 A 
ATOM     30  C   UNL     1      -5.018  12.698  20.527  0.00  0.00    +0.000 A 
ATOM     31  C   UNL     1      -4.412  12.235  19.345  0.00  0.00    +0.000 A 
ENDBRANCH  21  31
ENDBRANCH   1  22
TORSDOF 3
ENDMDL
MODEL 2
REMARK VINA RESULT:      -7.0      3.638      7.539
REMARK  Name = 
REMARK  4 active torsions:
REMARK  status: ('A' for Active; 'I' for Inactive)
REMARK    1  A    between atoms: C_1  and  C_2
REMARK    2  A    between atoms: C_7  and  N_8
REMARK    3  A    between atoms: C_9  and  C_11
REMARK    4  A    between atoms: N_23  and  C_24
REMARK                            x       y       z     vdW  Elec       q    Type
REMARK                         _______ _______ _______ _____ _____    ______ ____
ROOT
ATOM      1  C   UNL     1      -2.512  13.421  21.896  0.00  0.00    +0.000 A 
ATOM      2  C   UNL     1      -3.800  13.105  21.460  0.00  0.00    +0.000 A 
ATOM      3  C   UNL     1      -4.842  13.520  22.251  0.00  0.00    +0.000 A 
ATOM      4  N   UNL     1      -4.781  14.260  23.359  0.00  0.00    +0.000 NA
ATOM      5  C   UNL     1      -3.567  14.577  23.776  0.00  0.00    +0.000 A 
ATOM      6  C   UNL     1      -3.535  15.294  24.958  0.00  0.00    +0.000 A 
ATOM      7  C   UNL     1      -2.335  15.626  25.571  0.00  0.00    +0.000 A 
ATOM      8  C   UNL     1      -1.146  15.240  24.975  0.00  0.00    +0.000 A 
ATOM      9  C   UNL     1      -1.152  14.528  23.772  0.00  0.00    +0.000 A 
ATOM     10  C   UNL     1      -2.365  14.180  23.116  0.00  0.00    +0.000 A 
ATOM     11  C   UNL     1      -6.098  12.993  21.725  0.00  0.00    +0.000 C 
ATOM     12  O   UNL     1      -7.153  13.038  22.327  0.00  0.00    +0.000 OA
ATOM     13  N   UNL     1      -5.813  12.473  20.468  0.00  0.00    +0.000 N 
ATOM     14  C   UNL     1      -4.354  12.317  20.308  0.00  0.00    +0.000 C 
ENDROOT
BRANCH  13  15
ATOM     15  C   UNL     1      -6.825  11.833  19.599  0.00  0.00    +0.000 C 
ATOM     16  C   UNL     1      -7.739  12.844  18.866  0.00  0.00    +0.000 C 
ATOM     17  C   UNL     1      -6.928  13.752  17.938  0.00  0.00    +0.000 C 
ATOM     18  C   UNL     1      -6.173  12.934  16.897  0.00  0.00    +0.000 C 
ATOM     19  C   UNL     1      -5.378  11.777  17.507  0.00  0.00    +0.000 C 
ATOM     20  C   UNL     1      -6.197  10.950  18.506  0.00  0.00    +0.000 C 
ENDBRANCH  13  15
BRANCH   1  22
ATOM     21  N   UNL     1      -1.189  11.384  21.357  0.00  0.00    +0.000 N 
ATOM     22  C   UNL     1      -1.378  12.755  21.196  0.00  0.00    +0.000 C 
ATOM     23  O   UNL     1      -0.652  13.490  20.530  0.00  0.00    +0.000 OA
ATOM     24  H   UNL     1      -1.617  10.939  22.161  0.00  0.00    +0.000 HD
BRANCH  21  31
ATOM     25  C   UNL     1       0.588   9.337  22.587  0.00  0.00    +0.000 C 
ATOM     26  C   UNL     1       0.514   9.613  21.110  0.00  0.00    +0.000 A 
ATOM     27  C   UNL     1       1.341   8.836  20.267  0.00  0.00    +0.000 A 
ATOM     28  C   UNL     1       1.325   9.002  18.884  0.00  0.00    +0.000 A 
ATOM     29  C   UNL     1       0.458   9.924  18.319  0.00  0.00    +0.000 A 
ATOM     30  C   UNL     1      -0.370  10.693  19.139  0.00  0.00    +0.000 A 
ATOM     31  C   UNL     1      -0.343  10.579  20.540  0.00  0.00    +0.000 A 
ENDBRANCH  21  31
ENDBRANCH   1  22
TORSDOF 3
ENDMDL
MODEL 3
REMARK VINA RESULT:      -6.9      3.239      5.957
REMARK  Name = 
REMARK  4 active torsions:
REMARK  status: ('A' for Active; 'I' for Inactive)
REMARK    1  A    between atoms: C_1  and  C_2
REMARK    2  A    between atoms: C_7  and  N_8
REMARK    3  A    between atoms: C_9  and  C_11
REMARK    4  A    between atoms: N_23  and  C_24
REMARK                            x       y       z     vdW  Elec       q    Type
REMARK                         _______ _______ _______ _____ _____    ______ ____
ROOT
ATOM      1  C   UNL     1       0.161  12.080  21.363  0.00  0.00    +0.000 A 
ATOM      2  C   UNL     1       0.696  13.029  20.490  0.00  0.00    +0.000 A 
ATOM      3  C   UNL     1       0.000  14.204  20.347  0.00  0.00    +0.000 A 
ATOM      4  N   UNL     1      -1.097  14.586  21.001  0.00  0.00    +0.000 NA
ATOM      5  C   UNL     1      -1.607  13.701  21.841  0.00  0.00    +0.000 A 
ATOM      6  C   UNL     1      -2.776  14.105  22.461  0.00  0.00    +0.000 A 
ATOM      7  C   UNL     1      -3.480  13.255  23.302  0.00  0.00    +0.000 A 
ATOM      8  C   UNL     1      -2.989  11.981  23.535  0.00  0.00    +0.000 A 
ATOM      9  C   UNL     1      -1.801  11.555  22.933  0.00  0.00    +0.000 A 
ATOM     10  C   UNL     1      -1.054  12.405  22.072  0.00  0.00    +0.000 A 
ATOM     11  C   UNL     1       0.618  15.018  19.304  0.00  0.00    +0.000 C 
ATOM     12  O   UNL     1       0.105  16.014  18.833  0.00  0.00    +0.000 OA
ATOM     13  N   UNL     1       1.840  14.423  19.010  0.00  0.00    +0.000 N 
ATOM     14  C   UNL     1       1.877  13.054  19.562  0.00  0.00    +0.000 C 
ENDROOT
BRANCH  13  15
ATOM     15  C   UNL     1       2.778  14.942  17.990  0.00  0.00    +0.000 C 
ATOM     16  C   UNL     1       2.908  16.484  17.999  0.00  0.00    +0.000 C 
ATOM     17  C   UNL     1       3.453  16.986  19.339  0.00  0.00    +0.000 C 
ATOM     18  C   UNL     1       4.819  16.379  19.637  0.00  0.00    +0.000 C 
ATOM     19  C   UNL     1       4.846  14.858  19.469  0.00  0.00    +0.000 C 
ATOM     20  C   UNL     1       4.204  14.388  18.158  0.00  0.00    +0.000 C 
ENDBRANCH  13  15
BRANCH   1  22
ATOM     21  N   UNL     1       0.463   9.875  20.253  0.00  0.00    +0.000 N 
ATOM     22  C   UNL     1       0.756  10.715  21.325  0.00  0.00    +0.000 C 
ATOM     23  O   UNL     1       1.460  10.409  22.285  0.00  0.00    +0.000 OA
ATOM     24  H   UNL     1      -0.362  10.081  19.702  0.00  0.00    +0.000 HD
BRANCH  21  31
ATOM     25  C   UNL     1       2.021   9.658  17.725  0.00  0.00    +0.000 C 
ATOM     26  C   UNL     1       1.904   8.555  18.742  0.00  0.00    +0.000 A 
ATOM     27  C   UNL     1       2.589   7.351  18.468  0.00  0.00    +0.000 A 
ATOM     28  C   UNL     1       2.561   6.281  19.360  0.00  0.00    +0.000 A 
ATOM     29  C   UNL     1       1.872   6.411  20.555  0.00  0.00    +0.000 A 
ATOM     30  C   UNL     1       1.197   7.598  20.844  0.00  0.00    +0.000 A 
ATOM     31  C   UNL     1       1.171   8.677  19.942  0.00  0.00    +0.000 A 
ENDBRANCH  21  31
ENDBRANCH   1  22
TORSDOF 3
ENDMDL
MODEL 4
REMARK VINA RESULT:      -6.9      2.987      7.025
REMARK  Name = 
REMARK  4 active torsions:
REMARK  status: ('A' for Active; 'I' for Inactive)
REMARK    1  A    between atoms: C_1  and  C_2
REMARK    2  A    between atoms: C_7  and  N_8
REMARK    3  A    between atoms: C_9  and  C_11
REMARK    4  A    between atoms: N_23  and  C_24
REMARK                            x       y       z     vdW  Elec       q    Type
REMARK                         _______ _______ _______ _____ _____    ______ ____
ROOT
ATOM      1  C   UNL     1      -2.481  12.067  19.430  0.00  0.00    +0.000 A 
ATOM      2  C   UNL     1      -3.473  12.646  20.225  0.00  0.00    +0.000 A 
ATOM      3  C   UNL     1      -4.741  12.686  19.704  0.00  0.00    +0.000 A 
ATOM      4  N   UNL     1      -5.166  12.169  18.550  0.00  0.00    +0.000 NA
ATOM      5  C   UNL     1      -4.239  11.606  17.793  0.00  0.00    +0.000 A 
ATOM      6  C   UNL     1      -4.700  11.132  16.578  0.00  0.00    +0.000 A 
ATOM      7  C   UNL     1      -3.834  10.594  15.636  0.00  0.00    +0.000 A 
ATOM      8  C   UNL     1      -2.483  10.520  15.929  0.00  0.00    +0.000 A 
ATOM      9  C   UNL     1      -1.995  10.979  17.156  0.00  0.00    +0.000 A 
ATOM     10  C   UNL     1      -2.857  11.528  18.144  0.00  0.00    +0.000 A 
ATOM     11  C   UNL     1      -5.616  13.439  20.597  0.00  0.00    +0.000 C 
ATOM     12  O   UNL     1      -6.738  13.799  20.297  0.00  0.00    +0.000 OA
ATOM     13  N   UNL     1      -4.909  13.626  21.779  0.00  0.00    +0.000 N 
ATOM     14  C   UNL     1      -3.478  13.338  21.558  0.00  0.00    +0.000 C 
ENDROOT
BRANCH  13  15
ATOM     15  C   UNL     1      -5.446  14.357  22.948  0.00  0.00    +0.000 C 
ATOM     16  C   UNL     1      -6.453  13.530  23.783  0.00  0.00    +0.000 C 
ATOM     17  C   UNL     1      -5.794  12.276  24.362  0.00  0.00    +0.000 C 
ATOM     18  C   UNL     1      -4.607  12.640  25.248  0.00  0.00    +0.000 C 
ATOM     19  C   UNL     1      -3.638  13.615  24.576  0.00  0.00    +0.000 C 
ATOM     20  C   UNL     1      -4.345  14.809  23.923  0.00  0.00    +0.000 C 
ENDBRANCH  13  15
BRANCH   1  22
ATOM     21  N   UNL     1      -0.406  13.434  19.536  0.00  0.00    +0.000 N 
ATOM     22  C   UNL     1      -1.069  12.254  19.867  0.00  0.00    +0.000 C 
ATOM     23  O   UNL     1      -0.567  11.314  20.479  0.00  0.00    +0.000 OA
ATOM     24  H   UNL     1      -0.774  13.986  18.770  0.00  0.00    +0.000 HD
BRANCH  21  31
ATOM     25  C   UNL     1       2.185  12.881  18.178  0.00  0.00    +0.000 C 
ATOM     26  C   UNL     1       2.058  13.601  19.492  0.00  0.00    +0.000 A 
ATOM     27  C   UNL     1       3.253  14.043  20.103  0.00  0.00    +0.000 A 
ATOM     28  C   UNL     1       3.236  14.739  21.309  0.00  0.00    +0.000 A 
ATOM     29  C   UNL     1       2.022  15.033  21.908  0.00  0.00    +0.000 A 
ATOM     30  C   UNL     1       0.832  14.610  21.313  0.00  0.00    +0.000 A 
ATOM     31  C   UNL     1       0.821  13.866  20.119  0.00  0.00    +0.000 A 
ENDBRANCH  21  31
ENDBRANCH   1  22
TORSDOF 3
ENDMDL
MODEL 5
REMARK VINA RESULT:      -6.8      3.296      6.550
REMARK  Name = 
REMARK  4 active torsions:
REMARK  status: ('A' for Active; 'I' for Inactive)
REMARK    1  A    between atoms: C_1  and  C_2
REMARK    2  A    between atoms: C_7  and  N_8
REMARK    3  A    between atoms: C_9  and  C_11
REMARK    4  A    between atoms: N_23  and  C_24
REMARK                            x       y       z     vdW  Elec       q    Type
REMARK                         _______ _______ _______ _____ _____    ______ ____
ROOT
ATOM      1  C   UNL     1      -0.229  12.489  20.912  0.00  0.00    +0.000 A 
ATOM      2  C   UNL     1      -1.193  12.963  21.804  0.00  0.00    +0.000 A 
ATOM      3  C   UNL     1      -1.744  12.048  22.666  0.00  0.00    +0.000 A 
ATOM      4  N   UNL     1      -1.417  10.763  22.811  0.00  0.00    +0.000 NA
ATOM      5  C   UNL     1      -0.496  10.305  21.981  0.00  0.00    +0.000 A 
ATOM      6  C   UNL     1      -0.221   8.956  22.116  0.00  0.00    +0.000 A 
ATOM      7  C   UNL     1       0.658   8.306  21.261  0.00  0.00    +0.000 A 
ATOM      8  C   UNL     1       1.281   9.032  20.259  0.00  0.00    +0.000 A 
ATOM      9  C   UNL     1       1.031  10.400  20.111  0.00  0.00    +0.000 A 
ATOM     10  C   UNL     1       0.142  11.095  20.977  0.00  0.00    +0.000 A 
ATOM     11  C   UNL     1      -2.821  12.676  23.426  0.00  0.00    +0.000 C 
ATOM     12  O   UNL     1      -3.607  12.058  24.118  0.00  0.00    +0.000 OA
ATOM     13  N   UNL     1      -2.731  14.042  23.186  0.00  0.00    +0.000 N 
ATOM     14  C   UNL     1      -1.864  14.289  22.017  0.00  0.00    +0.000 C 
ENDROOT
BRANCH  13  15
ATOM     15  C   UNL     1      -3.654  15.039  23.771  0.00  0.00    +0.000 C 
ATOM     16  C   UNL     1      -3.436  15.268  25.286  0.00  0.00    +0.000 C 
ATOM     17  C   UNL     1      -2.032  15.808  25.568  0.00  0.00    +0.000 C 
ATOM     18  C   UNL     1      -1.794  17.124  24.836  0.00  0.00    +0.000 C 
ATOM     19  C   UNL     1      -2.163  17.057  23.352  0.00  0.00    +0.000 C 
ATOM     20  C   UNL     1      -3.537  16.421  23.104  0.00  0.00    +0.000 C 
ENDBRANCH  13  15
BRANCH   1  22
ATOM     21  N   UNL     1       1.070  14.437  20.075  0.00  0.00    +0.000 N 
ATOM     22  C   UNL     1       0.178  13.402  19.808  0.00  0.00    +0.000 C 
ATOM     23  O   UNL     1      -0.340  13.187  18.714  0.00  0.00    +0.000 OA
ATOM     24  H   UNL     1       1.178  14.732  21.040  0.00  0.00    +0.000 HD
BRANCH  21  31
ATOM     25  C   UNL     1       0.033  17.092  19.216  0.00  0.00    +0.000 C 
ATOM     26  C   UNL     1       1.272  16.449  18.656  0.00  0.00    +0.000 A 
ATOM     27  C   UNL     1       1.981  17.167  17.667  0.00  0.00    +0.000 A 
ATOM     28  C   UNL     1       3.153  16.664  17.106  0.00  0.00    +0.000 A 
ATOM     29  C   UNL     1       3.652  15.450  17.549  0.00  0.00    +0.000 A 
ATOM     30  C   UNL     1       2.967  14.732  18.531  0.00  0.00    +0.000 A 
ATOM     31  C   UNL     1       1.759  15.194  19.083  0.00  0.00    +0.000 A 
ENDBRANCH  21  31
ENDBRANCH   1  22
TORSDOF 3
ENDMDL
MODEL 6
REMARK VINA RESULT:      -6.8      3.989      5.546
REMARK  Name = 
REMARK  4 active torsions:
REMARK  status: ('A' for Active; 'I' for Inactive)
REMARK    1  A    between atoms: C_1  and  C_2
REMARK    2  A    between atoms: C_7  and  N_8
REMARK    3  A    between atoms: C_9  and  C_11
REMARK    4  A    between atoms: N_23  and  C_24
REMARK                            x       y       z     vdW  Elec       q    Type
REMARK                         _______ _______ _______ _____ _____    ______ ____
ROOT
ATOM      1  C   UNL     1      -1.470  11.503  20.397  0.00  0.00    +0.000 A 
ATOM      2  C   UNL     1      -2.362  12.256  21.163  0.00  0.00    +0.000 A 
ATOM      3  C   UNL     1      -2.323  12.073  22.522  0.00  0.00    +0.000 A 
ATOM      4  N   UNL     1      -1.478  11.310  23.218  0.00  0.00    +0.000 NA
ATOM      5  C   UNL     1      -0.619  10.601  22.506  0.00  0.00    +0.000 A 
ATOM      6  C   UNL     1       0.203   9.777  23.252  0.00  0.00    +0.000 A 
ATOM      7  C   UNL     1       1.097   8.905  22.646  0.00  0.00    +0.000 A 
ATOM      8  C   UNL     1       1.174   8.874  21.264  0.00  0.00    +0.000 A 
ATOM      9  C   UNL     1       0.364   9.708  20.488  0.00  0.00    +0.000 A 
ATOM     10  C   UNL     1      -0.556  10.617  21.079  0.00  0.00    +0.000 A 
ATOM     11  C   UNL     1      -3.403  12.826  23.152  0.00  0.00    +0.000 C 
ATOM     12  O   UNL     1      -3.727  12.697  24.316  0.00  0.00    +0.000 OA
ATOM     13  N   UNL     1      -3.925  13.663  22.171  0.00  0.00    +0.000 N 
ATOM     14  C   UNL     1      -3.465  13.223  20.840  0.00  0.00    +0.000 C 
ENDROOT
BRANCH  13  15
ATOM     15  C   UNL     1      -5.051  14.594  22.405  0.00  0.00    +0.000 C 
ATOM     16  C   UNL     1      -5.533  15.313  21.122  0.00  0.00    +0.000 C 
ATOM     17  C   UNL     1      -6.048  14.311  20.086  0.00  0.00    +0.000 C 
ATOM     18  C   UNL     1      -7.202  13.488  20.647  0.00  0.00    +0.000 C 
ATOM     19  C   UNL     1      -6.892  12.882  22.018  0.00  0.00    +0.000 C 
ATOM     20  C   UNL     1      -6.287  13.894  22.998  0.00  0.00    +0.000 C 
ENDBRANCH  13  15
BRANCH   1  22
ATOM     21  N   UNL     1      -2.350  10.424  18.336  0.00  0.00    +0.000 N 
ATOM     22  C   UNL     1      -1.681  11.496  18.923  0.00  0.00    +0.000 C 
ATOM     23  O   UNL     1      -1.211  12.451  18.308  0.00  0.00    +0.000 OA
ATOM     24  H   UNL     1      -2.401   9.555  18.858  0.00  0.00    +0.000 HD
BRANCH  21  31
ATOM     25  C   UNL     1      -4.914  11.803  17.712  0.00  0.00    +0.000 C 
ATOM     26  C   UNL     1      -4.089  11.056  16.700  0.00  0.00    +0.000 A 
ATOM     27  C   UNL     1      -4.572  11.024  15.373  0.00  0.00    +0.000 A 
ATOM     28  C   UNL     1      -3.867  10.378  14.360  0.00  0.00    +0.000 A 
ATOM     29  C   UNL     1      -2.651   9.780  14.652  0.00  0.00    +0.000 A 
ATOM     30  C   UNL     1      -2.157   9.811  15.958  0.00  0.00    +0.000 A 
ATOM     31  C   UNL     1      -2.869  10.417  17.009  0.00  0.00    +0.000 A 
ENDBRANCH  21  31
ENDBRANCH   1  22
TORSDOF 3
ENDMDL
MODEL 7
REMARK VINA RESULT:      -6.8      2.157      6.076
REMARK  Name = 
REMARK  4 active torsions:
REMARK  status: ('A' for Active; 'I' for Inactive)
REMARK    1  A    between atoms: C_1  and  C_2
REMARK    2  A    between atoms: C_7  and  N_8
REMARK    3  A    between atoms: C_9  and  C_11
REMARK    4  A    between atoms: N_23  and  C_24
REMARK                            x       y       z     vdW  Elec       q    Type
REMARK                         _______ _______ _______ _____ _____    ______ ____
ROOT
ATOM      1  C   UNL     1       0.450  13.689  19.658  0.00  0.00    +0.000 A 
ATOM      2  C   UNL     1      -0.760  14.103  20.218  0.00  0.00    +0.000 A 
ATOM      3  C   UNL     1      -1.093  15.426  20.067  0.00  0.00    +0.000 A 
ATOM      4  N   UNL     1      -0.433  16.360  19.381  0.00  0.00    +0.000 NA
ATOM      5  C   UNL     1       0.709  15.977  18.835  0.00  0.00    +0.000 A 
ATOM      6  C   UNL     1       1.397  16.982  18.180  0.00  0.00    +0.000 A 
ATOM      7  C   UNL     1       2.652  16.761  17.630  0.00  0.00    +0.000 A 
ATOM      8  C   UNL     1       3.217  15.500  17.730  0.00  0.00    +0.000 A 
ATOM      9  C   UNL     1       2.534  14.464  18.374  0.00  0.00    +0.000 A 
ATOM     10  C   UNL     1       1.244  14.658  18.939  0.00  0.00    +0.000 A 
ATOM     11  C   UNL     1      -2.307  15.717  20.823  0.00  0.00    +0.000 C 
ATOM     12  O   UNL     1      -2.722  16.841  21.028  0.00  0.00    +0.000 OA
ATOM     13  N   UNL     1      -2.832  14.490  21.215  0.00  0.00    +0.000 N 
ATOM     14  C   UNL     1      -1.814  13.434  21.053  0.00  0.00    +0.000 C 
ENDROOT
BRANCH  13  15
ATOM     15  C   UNL     1      -4.068  14.347  22.015  0.00  0.00    +0.000 C 
ATOM     16  C   UNL     1      -5.233  15.236  21.516  0.00  0.00    +0.000 C 
ATOM     17  C   UNL     1      -5.635  14.870  20.085  0.00  0.00    +0.000 C 
ATOM     18  C   UNL     1      -6.062  13.410  19.993  0.00  0.00    +0.000 C 
ATOM     19  C   UNL     1      -5.056  12.452  20.635  0.00  0.00    +0.000 C 
ATOM     20  C   UNL     1      -4.603  12.904  22.029  0.00  0.00    +0.000 C 
ENDBRANCH  13  15
BRANCH   1  22
ATOM     21  N   UNL     1       0.450  11.218  19.367  0.00  0.00    +0.000 N 
ATOM     22  C   UNL     1       0.943  12.335  20.038  0.00  0.00    +0.000 C 
ATOM     23  O   UNL     1       1.752  12.298  20.962  0.00  0.00    +0.000 OA
ATOM     24  H   UNL     1      -0.430  11.314  18.871  0.00  0.00    +0.000 HD
BRANCH  21  31
ATOM     25  C   UNL     1       0.008   9.470  21.736  0.00  0.00    +0.000 C 
ATOM     26  C   UNL     1       0.837   9.081  20.543  0.00  0.00    +0.000 A 
ATOM     27  C   UNL     1       1.430   7.799  20.561  0.00  0.00    +0.000 A 
ATOM     28  C   UNL     1       2.196   7.339  19.492  0.00  0.00    +0.000 A 
ATOM     29  C   UNL     1       2.355   8.143  18.374  0.00  0.00    +0.000 A 
ATOM     30  C   UNL     1       1.769   9.409  18.339  0.00  0.00    +0.000 A 
ATOM     31  C   UNL     1       1.028   9.917  19.421  0.00  0.00    +0.000 A 
ENDBRANCH  21  31
ENDBRANCH   1  22
TORSDOF 3
ENDMDL
MODEL 8
REMARK VINA RESULT:      -6.8      3.255      6.501
REMARK  Name = 
REMARK  4 active torsions:
REMARK  status: ('A' for Active; 'I' for Inactive)
REMARK    1  A    between atoms: C_1  and  C_2
REMARK    2  A    between atoms: C_7  and  N_8
REMARK    3  A    between atoms: C_9  and  C_11
REMARK    4  A    between atoms: N_23  and  C_24
REMARK                            x       y       z     vdW  Elec       q    Type
REMARK                         _______ _______ _______ _____ _____    ______ ____
ROOT
ATOM      1  C   UNL     1      -0.249  12.615  20.722  0.00  0.00    +0.000 A 
ATOM      2  C   UNL     1      -1.187  13.017  21.675  0.00  0.00    +0.000 A 
ATOM      3  C   UNL     1      -1.674  12.046  22.514  0.00  0.00    +0.000 A 
ATOM      4  N   UNL     1      -1.304  10.767  22.584  0.00  0.00    +0.000 NA
ATOM      5  C   UNL     1      -0.407  10.376  21.695  0.00  0.00    +0.000 A 
ATOM      6  C   UNL     1      -0.087   9.032  21.754  0.00  0.00    +0.000 A 
ATOM      7  C   UNL     1       0.772   8.450  20.832  0.00  0.00    +0.000 A 
ATOM      8  C   UNL     1       1.330   9.241  19.841  0.00  0.00    +0.000 A 
ATOM      9  C   UNL     1       1.035  10.606  19.770  0.00  0.00    +0.000 A 
ATOM     10  C   UNL     1       0.165  11.231  20.704  0.00  0.00    +0.000 A 
ATOM     11  C   UNL     1      -2.735  12.604  23.348  0.00  0.00    +0.000 C 
ATOM     12  O   UNL     1      -3.472  11.932  24.041  0.00  0.00    +0.000 OA
ATOM     13  N   UNL     1      -2.694  13.983  23.170  0.00  0.00    +0.000 N 
ATOM     14  C   UNL     1      -1.886  14.311  21.979  0.00  0.00    +0.000 C 
ENDROOT
BRANCH  13  15
ATOM     15  C   UNL     1      -3.620  14.922  23.840  0.00  0.00    +0.000 C 
ATOM     16  C   UNL     1      -3.369  15.057  25.361  0.00  0.00    +0.000 C 
ATOM     17  C   UNL     1      -1.968  15.603  25.645  0.00  0.00    +0.000 C 
ATOM     18  C   UNL     1      -1.770  16.967  24.995  0.00  0.00    +0.000 C 
ATOM     19  C   UNL     1      -2.174  16.990  23.519  0.00  0.00    +0.000 C 
ATOM     20  C   UNL     1      -3.542  16.346  23.263  0.00  0.00    +0.000 C 
ENDBRANCH  13  15
BRANCH   1  22
ATOM     21  N   UNL     1       1.001  14.605  19.909  0.00  0.00    +0.000 N 
ATOM     22  C   UNL     1       0.084  13.591  19.647  0.00  0.00    +0.000 C 
ATOM     23  O   UNL     1      -0.515  13.443  18.583  0.00  0.00    +0.000 OA
ATOM     24  H   UNL     1       1.181  14.842  20.879  0.00  0.00    +0.000 HD
BRANCH  21  31
ATOM     25  C   UNL     1       3.379  13.612  18.418  0.00  0.00    +0.000 C 
ATOM     26  C   UNL     1       2.757  14.965  18.209  0.00  0.00    +0.000 A 
ATOM     27  C   UNL     1       3.345  15.801  17.234  0.00  0.00    +0.000 A 
ATOM     28  C   UNL     1       2.826  17.062  16.952  0.00  0.00    +0.000 A 
ATOM     29  C   UNL     1       1.690  17.495  17.618  0.00  0.00    +0.000 A 
ATOM     30  C   UNL     1       1.093  16.677  18.579  0.00  0.00    +0.000 A 
ATOM     31  C   UNL     1       1.621  15.418  18.915  0.00  0.00    +0.000 A 
ENDBRANCH  21  31
ENDBRANCH   1  22
TORSDOF 3
ENDMDL
MODEL 9
REMARK VINA RESULT:      -6.8      3.427      7.235
REMARK  Name = 
REMARK  4 active torsions:
REMARK  status: ('A' for Active; 'I' for Inactive)
REMARK    1  A    between atoms: C_1  and  C_2
REMARK    2  A    between atoms: C_7  and  N_8
REMARK    3  A    between atoms: C_9  and  C_11
REMARK    4  A    between atoms: N_23  and  C_24
REMARK                            x       y       z     vdW  Elec       q    Type
REMARK                         _______ _______ _______ _____ _____    ______ ____
ROOT
ATOM      1  C   UNL     1      -2.585  13.604  21.530  0.00  0.00    +0.000 A 
ATOM      2  C   UNL     1      -3.895  13.333  21.131  0.00  0.00    +0.000 A 
ATOM      3  C   UNL     1      -4.895  13.682  22.004  0.00  0.00    +0.000 A 
ATOM      4  N   UNL     1      -4.775  14.324  23.168  0.00  0.00    +0.000 NA
ATOM      5  C   UNL     1      -3.539  14.598  23.551  0.00  0.00    +0.000 A 
ATOM      6  C   UNL     1      -3.445  15.211  24.787  0.00  0.00    +0.000 A 
ATOM      7  C   UNL     1      -2.214  15.484  25.368  0.00  0.00    +0.000 A 
ATOM      8  C   UNL     1      -1.058  15.146  24.684  0.00  0.00    +0.000 A 
ATOM      9  C   UNL     1      -1.128  14.540  23.426  0.00  0.00    +0.000 A 
ATOM     10  C   UNL     1      -2.373  14.255  22.802  0.00  0.00    +0.000 A 
ATOM     11  C   UNL     1      -6.179  13.207  21.497  0.00  0.00    +0.000 C 
ATOM     12  O   UNL     1      -7.203  13.204  22.151  0.00  0.00    +0.000 OA
ATOM     13  N   UNL     1      -5.959  12.797  20.187  0.00  0.00    +0.000 N 
ATOM     14  C   UNL     1      -4.510  12.649  19.944  0.00  0.00    +0.000 C 
ENDROOT
BRANCH  13  15
ATOM     15  C   UNL     1      -7.016  12.238  19.316  0.00  0.00    +0.000 C 
ATOM     16  C   UNL     1      -7.916  13.317  18.667  0.00  0.00    +0.000 C 
ATOM     17  C   UNL     1      -7.101  14.246  17.763  0.00  0.00    +0.000 C 
ATOM     18  C   UNL     1      -6.403  13.461  16.658  0.00  0.00    +0.000 C 
ATOM     19  C   UNL     1      -5.633  12.248  17.182  0.00  0.00    +0.000 C 
ATOM     20  C   UNL     1      -6.450  11.395  18.160  0.00  0.00    +0.000 C 
ENDBRANCH  13  15
BRANCH   1  22
ATOM     21  N   UNL     1      -1.353  11.611  20.696  0.00  0.00    +0.000 N 
ATOM     22  C   UNL     1      -1.491  12.997  20.721  0.00  0.00    +0.000 C 
ATOM     23  O   UNL     1      -0.750  13.787  20.140  0.00  0.00    +0.000 OA
ATOM     24  H   UNL     1      -1.782  11.078  21.445  0.00  0.00    +0.000 HD
BRANCH  21  31
ATOM     25  C   UNL     1      -2.561  10.536  18.196  0.00  0.00    +0.000 C 
ATOM     26  C   UNL     1      -1.116  10.365  18.577  0.00  0.00    +0.000 A 
ATOM     27  C   UNL     1      -0.293   9.653  17.676  0.00  0.00    +0.000 A 
ATOM     28  C   UNL     1       1.064   9.463  17.929  0.00  0.00    +0.000 A 
ATOM     29  C   UNL     1       1.625  10.009  19.072  0.00  0.00    +0.000 A 
ATOM     30  C   UNL     1       0.826  10.721  19.968  0.00  0.00    +0.000 A 
ATOM     31  C   UNL     1      -0.555  10.891  19.760  0.00  0.00    +0.000 A 
ENDBRANCH  21  31
ENDBRANCH   1  22
TORSDOF 3
ENDMDL
