MODEL 1
REMARK VINA RESULT:      -8.8      0.000      0.000
REMARK  Name = 
REMARK  3 active torsions:
REMARK  status: ('A' for Active; 'I' for Inactive)
REMARK    1  A    between atoms: C_2  and  C_5
REMARK    2  A    between atoms: C_9  and  C_10
REMARK    3  A    between atoms: C_16  and  C_17
REMARK                            x       y       z     vdW  Elec       q    Type
REMARK                         _______ _______ _______ _____ _____    ______ ____
ROOT
ATOM      1  C   UNL     1       4.566   4.677  17.596  0.00  0.00    +0.000 A 
ATOM      2  C   UNL     1       5.376   5.612  18.443  0.00  0.00    +0.000 A 
ATOM      3  C   UNL     1       6.475   6.152  17.905  0.00  0.00    +0.000 A 
ATOM      4  C   UNL     1       6.829   5.816  16.586  0.00  0.00    +0.000 A 
ATOM      5  N   UNL     1       7.834   6.178  15.820  0.00  0.00    +0.000 NA
ATOM      6  N   UNL     1       7.694   5.529  14.618  0.00  0.00    +0.000 NA
ATOM      7  C   UNL     1       6.603   4.782  14.678  0.00  0.00    +0.000 A 
ATOM      8  N   UNL     1       6.019   4.928  15.908  0.00  0.00    +0.000 N 
ATOM      9  N   UNL     1       4.880   4.332  16.379  0.00  0.00    +0.000 NA
ENDROOT
BRANCH   1  14
ATOM     10  C   UNL     1       2.126   3.239  20.170  0.00  0.00    +0.000 A 
ATOM     11  C   UNL     1       1.028   2.965  19.343  0.00  0.00    +0.000 A 
ATOM     12  C   UNL     1       1.078   3.264  17.982  0.00  0.00    +0.000 A 
ATOM     13  C   UNL     1       2.228   3.830  17.429  0.00  0.00    +0.000 A 
ATOM     14  C   UNL     1       3.343   4.097  18.233  0.00  0.00    +0.000 A 
ATOM     15  C   UNL     1       3.277   3.817  19.606  0.00  0.00    +0.000 A 
BRANCH  10  17
ATOM     16  F   UNL     1       0.898   2.436  22.079  0.00  0.00    +0.000 F 
ATOM     17  C   UNL     1       2.094   2.919  21.646  0.00  0.00    +0.000 C 
ATOM     18  F   UNL     1       2.365   4.007  22.418  0.00  0.00    +0.000 F 
ATOM     19  F   UNL     1       3.024   1.983  21.985  0.00  0.00    +0.000 F 
ENDBRANCH  10  17
ENDBRANCH   1  14
BRANCH   7  20
ATOM     20  C   UNL     1       6.030   3.909  13.647  0.00  0.00    +0.000 C 
ATOM     21  F   UNL     1       4.731   4.214  13.374  0.00  0.00    +0.000 F 
ATOM     22  F   UNL     1       6.692   3.997  12.462  0.00  0.00    +0.000 F 
ATOM     23  F   UNL     1       6.040   2.598  14.007  0.00  0.00    +0.000 F 
ENDBRANCH   7  20
TORSDOF 3
ENDMDL
MODEL 2
REMARK VINA RESULT:      -8.6      0.331      1.143
REMARK  Name = 
REMARK  3 active torsions:
REMARK  status: ('A' for Active; 'I' for Inactive)
REMARK    1  A    between atoms: C_2  and  C_5
REMARK    2  A    between atoms: C_9  and  C_10
REMARK    3  A    between atoms: C_16  and  C_17
REMARK                            x       y       z     vdW  Elec       q    Type
REMARK                         _______ _______ _______ _____ _____    ______ ____
ROOT
ATOM      1  C   UNL     1       4.671   4.370  17.590  0.00  0.00    +0.000 A 
ATOM      2  C   UNL     1       5.459   5.282  18.480  0.00  0.00    +0.000 A 
ATOM      3  C   UNL     1       6.525   5.900  17.959  0.00  0.00    +0.000 A 
ATOM      4  C   UNL     1       6.866   5.663  16.615  0.00  0.00    +0.000 A 
ATOM      5  N   UNL     1       7.840   6.113  15.857  0.00  0.00    +0.000 NA
ATOM      6  N   UNL     1       7.703   5.535  14.618  0.00  0.00    +0.000 NA
ATOM      7  C   UNL     1       6.643   4.742  14.649  0.00  0.00    +0.000 A 
ATOM      8  N   UNL     1       6.078   4.787  15.896  0.00  0.00    +0.000 N 
ATOM      9  N   UNL     1       4.974   4.116  16.347  0.00  0.00    +0.000 NA
ENDROOT
BRANCH   1  14
ATOM     10  C   UNL     1       2.214   2.940  20.153  0.00  0.00    +0.000 A 
ATOM     11  C   UNL     1       1.254   2.389  19.294  0.00  0.00    +0.000 A 
ATOM     12  C   UNL     1       1.397   2.502  17.910  0.00  0.00    +0.000 A 
ATOM     13  C   UNL     1       2.505   3.157  17.370  0.00  0.00    +0.000 A 
ATOM     14  C   UNL     1       3.485   3.701  18.209  0.00  0.00    +0.000 A 
ATOM     15  C   UNL     1       3.323   3.606  19.599  0.00  0.00    +0.000 A 
BRANCH  10  17
ATOM     16  F   UNL     1       2.888   1.879  22.206  0.00  0.00    +0.000 F 
ATOM     17  C   UNL     1       2.082   2.825  21.653  0.00  0.00    +0.000 C 
ATOM     18  F   UNL     1       0.813   2.513  22.038  0.00  0.00    +0.000 F 
ATOM     19  F   UNL     1       2.385   3.994  22.283  0.00  0.00    +0.000 F 
ENDBRANCH  10  17
ENDBRANCH   1  14
BRANCH   7  20
ATOM     20  C   UNL     1       6.086   3.913  13.575  0.00  0.00    +0.000 C 
ATOM     21  F   UNL     1       6.767   4.056  12.404  0.00  0.00    +0.000 F 
ATOM     22  F   UNL     1       6.122   2.585  13.868  0.00  0.00    +0.000 F 
ATOM     23  F   UNL     1       4.791   4.219  13.295  0.00  0.00    +0.000 F 
ENDBRANCH   7  20
TORSDOF 3
ENDMDL
MODEL 3
REMARK VINA RESULT:      -8.5      5.107      7.407
REMARK  Name = 
REMARK  3 active torsions:
REMARK  status: ('A' for Active; 'I' for Inactive)
REMARK    1  A    between atoms: C_2  and  C_5
REMARK    2  A    between atoms: C_9  and  C_10
REMARK    3  A    between atoms: C_16  and  C_17
REMARK                            x       y       z     vdW  Elec       q    Type
REMARK                         _______ _______ _______ _____ _____    ______ ____
ROOT
ATOM      1  C   UNL     1       2.135   7.639  19.340  0.00  0.00    +0.000 A 
ATOM      2  C   UNL     1       2.279   8.377  18.043  0.00  0.00    +0.000 A 
ATOM      3  C   UNL     1       1.754   9.604  17.959  0.00  0.00    +0.000 A 
ATOM      4  C   UNL     1       1.084  10.142  19.073  0.00  0.00    +0.000 A 
ATOM      5  N   UNL     1       0.476  11.291  19.270  0.00  0.00    +0.000 NA
ATOM      6  N   UNL     1      -0.022  11.281  20.550  0.00  0.00    +0.000 NA
ATOM      7  C   UNL     1       0.294  10.122  21.107  0.00  0.00    +0.000 A 
ATOM      8  N   UNL     1       0.995   9.362  20.208  0.00  0.00    +0.000 N 
ATOM      9  N   UNL     1       1.503   8.103  20.381  0.00  0.00    +0.000 NA
ENDROOT
BRANCH   1  14
ATOM     10  C   UNL     1       2.730   3.943  20.135  0.00  0.00    +0.000 A 
ATOM     11  C   UNL     1       3.959   3.747  19.492  0.00  0.00    +0.000 A 
ATOM     12  C   UNL     1       4.567   4.793  18.796  0.00  0.00    +0.000 A 
ATOM     13  C   UNL     1       3.959   6.048  18.745  0.00  0.00    +0.000 A 
ATOM     14  C   UNL     1       2.739   6.272  19.395  0.00  0.00    +0.000 A 
ATOM     15  C   UNL     1       2.121   5.210  20.071  0.00  0.00    +0.000 A 
BRANCH  10  17
ATOM     16  F   UNL     1       0.891   3.191  21.494  0.00  0.00    +0.000 F 
ATOM     17  C   UNL     1       2.057   2.825  20.897  0.00  0.00    +0.000 C 
ATOM     18  F   UNL     1       2.848   2.324  21.886  0.00  0.00    +0.000 F 
ATOM     19  F   UNL     1       1.754   1.769  20.092  0.00  0.00    +0.000 F 
ENDBRANCH  10  17
ENDBRANCH   1  14
BRANCH   7  20
ATOM     20  C   UNL     1      -0.010   9.640  22.458  0.00  0.00    +0.000 C 
ATOM     21  F   UNL     1      -0.826   8.549  22.447  0.00  0.00    +0.000 F 
ATOM     22  F   UNL     1       1.105   9.266  23.143  0.00  0.00    +0.000 F 
ATOM     23  F   UNL     1      -0.643  10.574  23.218  0.00  0.00    +0.000 F 
ENDBRANCH   7  20
TORSDOF 3
ENDMDL
MODEL 4
REMARK VINA RESULT:      -8.5      5.119      7.414
REMARK  Name = 
REMARK  3 active torsions:
REMARK  status: ('A' for Active; 'I' for Inactive)
REMARK    1  A    between atoms: C_2  and  C_5
REMARK    2  A    between atoms: C_9  and  C_10
REMARK    3  A    between atoms: C_16  and  C_17
REMARK                            x       y       z     vdW  Elec       q    Type
REMARK                         _______ _______ _______ _____ _____    ______ ____
ROOT
ATOM      1  C   UNL     1       2.112   7.647  19.340  0.00  0.00    +0.000 A 
ATOM      2  C   UNL     1       2.250   8.391  18.046  0.00  0.00    +0.000 A 
ATOM      3  C   UNL     1       1.721   9.617  17.969  0.00  0.00    +0.000 A 
ATOM      4  C   UNL     1       1.054  10.148  19.088  0.00  0.00    +0.000 A 
ATOM      5  N   UNL     1       0.445  11.295  19.293  0.00  0.00    +0.000 NA
ATOM      6  N   UNL     1      -0.048  11.278  20.575  0.00  0.00    +0.000 NA
ATOM      7  C   UNL     1       0.272  10.118  21.125  0.00  0.00    +0.000 A 
ATOM      8  N   UNL     1       0.971   9.364  20.220  0.00  0.00    +0.000 N 
ATOM      9  N   UNL     1       1.483   8.105  20.386  0.00  0.00    +0.000 NA
ENDROOT
BRANCH   1  14
ATOM     10  C   UNL     1       2.718   3.948  20.116  0.00  0.00    +0.000 A 
ATOM     11  C   UNL     1       3.946   3.758  19.468  0.00  0.00    +0.000 A 
ATOM     12  C   UNL     1       4.549   4.809  18.775  0.00  0.00    +0.000 A 
ATOM     13  C   UNL     1       3.938   6.063  18.732  0.00  0.00    +0.000 A 
ATOM     14  C   UNL     1       2.719   6.281  19.387  0.00  0.00    +0.000 A 
ATOM     15  C   UNL     1       2.106   5.214  20.060  0.00  0.00    +0.000 A 
BRANCH  10  17
ATOM     16  F   UNL     1       1.736   1.750  20.104  0.00  0.00    +0.000 F 
ATOM     17  C   UNL     1       2.051   2.826  20.876  0.00  0.00    +0.000 C 
ATOM     18  F   UNL     1       0.889   3.220  21.467  0.00  0.00    +0.000 F 
ATOM     19  F   UNL     1       2.838   2.352  21.881  0.00  0.00    +0.000 F 
ENDBRANCH  10  17
ENDBRANCH   1  14
BRANCH   7  20
ATOM     20  C   UNL     1      -0.025   9.629  22.476  0.00  0.00    +0.000 C 
ATOM     21  F   UNL     1      -0.664  10.562  23.234  0.00  0.00    +0.000 F 
ATOM     22  F   UNL     1      -0.834   8.535  22.469  0.00  0.00    +0.000 F 
ATOM     23  F   UNL     1       1.094   9.286  23.167  0.00  0.00    +0.000 F 
ENDBRANCH   7  20
TORSDOF 3
ENDMDL
MODEL 5
REMARK VINA RESULT:      -8.4      2.431      6.992
REMARK  Name = 
REMARK  3 active torsions:
REMARK  status: ('A' for Active; 'I' for Inactive)
REMARK    1  A    between atoms: C_2  and  C_5
REMARK    2  A    between atoms: C_9  and  C_10
REMARK    3  A    between atoms: C_16  and  C_17
REMARK                            x       y       z     vdW  Elec       q    Type
REMARK                         _______ _______ _______ _____ _____    ______ ____
ROOT
ATOM      1  C   UNL     1       5.159   4.732  16.150  0.00  0.00    +0.000 A 
ATOM      2  C   UNL     1       5.469   6.060  16.771  0.00  0.00    +0.000 A 
ATOM      3  C   UNL     1       5.019   6.292  18.009  0.00  0.00    +0.000 A 
ATOM      4  C   UNL     1       4.273   5.297  18.666  0.00  0.00    +0.000 A 
ATOM      5  N   UNL     1       3.711   5.253  19.854  0.00  0.00    +0.000 NA
ATOM      6  N   UNL     1       3.089   4.033  19.972  0.00  0.00    +0.000 NA
ATOM      7  C   UNL     1       3.287   3.359  18.850  0.00  0.00    +0.000 A 
ATOM      8  N   UNL     1       4.032   4.120  17.988  0.00  0.00    +0.000 N 
ATOM      9  N   UNL     1       4.453   3.799  16.726  0.00  0.00    +0.000 NA
ENDROOT
BRANCH   1  14
ATOM     10  C   UNL     1       5.423   3.717  12.469  0.00  0.00    +0.000 A 
ATOM     11  C   UNL     1       6.750   4.082  12.207  0.00  0.00    +0.000 A 
ATOM     12  C   UNL     1       7.532   4.666  13.204  0.00  0.00    +0.000 A 
ATOM     13  C   UNL     1       7.000   4.882  14.477  0.00  0.00    +0.000 A 
ATOM     14  C   UNL     1       5.682   4.509  14.766  0.00  0.00    +0.000 A 
ATOM     15  C   UNL     1       4.893   3.946  13.752  0.00  0.00    +0.000 A 
BRANCH  10  17
ATOM     16  F   UNL     1       3.295   2.797  11.817  0.00  0.00    +0.000 F 
ATOM     17  C   UNL     1       4.561   3.079  11.405  0.00  0.00    +0.000 C 
ATOM     18  F   UNL     1       5.081   1.906  10.951  0.00  0.00    +0.000 F 
ATOM     19  F   UNL     1       4.431   3.877  10.308  0.00  0.00    +0.000 F 
ENDBRANCH  10  17
ENDBRANCH   1  14
BRANCH   7  20
ATOM     20  C   UNL     1       2.827   2.013  18.495  0.00  0.00    +0.000 C 
ATOM     21  F   UNL     1       2.244   1.973  17.264  0.00  0.00    +0.000 F 
ATOM     22  F   UNL     1       3.842   1.107  18.458  0.00  0.00    +0.000 F 
ATOM     23  F   UNL     1       1.900   1.529  19.364  0.00  0.00    +0.000 F 
ENDBRANCH   7  20
TORSDOF 3
ENDMDL
MODEL 6
REMARK VINA RESULT:      -8.4      2.424      7.023
REMARK  Name = 
REMARK  3 active torsions:
REMARK  status: ('A' for Active; 'I' for Inactive)
REMARK    1  A    between atoms: C_2  and  C_5
REMARK    2  A    between atoms: C_9  and  C_10
REMARK    3  A    between atoms: C_16  and  C_17
REMARK                            x       y       z     vdW  Elec       q    Type
REMARK                         _______ _______ _______ _____ _____    ______ ____
ROOT
ATOM      1  C   UNL     1       5.180   4.729  16.122  0.00  0.00    +0.000 A 
ATOM      2  C   UNL     1       5.511   6.050  16.749  0.00  0.00    +0.000 A 
ATOM      3  C   UNL     1       5.067   6.284  17.988  0.00  0.00    +0.000 A 
ATOM      4  C   UNL     1       4.306   5.298  18.642  0.00  0.00    +0.000 A 
ATOM      5  N   UNL     1       3.744   5.258  19.830  0.00  0.00    +0.000 NA
ATOM      6  N   UNL     1       3.105   4.047  19.944  0.00  0.00    +0.000 NA
ATOM      7  C   UNL     1       3.291   3.375  18.819  0.00  0.00    +0.000 A 
ATOM      8  N   UNL     1       4.046   4.128  17.959  0.00  0.00    +0.000 N 
ATOM      9  N   UNL     1       4.461   3.805  16.696  0.00  0.00    +0.000 NA
ENDROOT
BRANCH   1  14
ATOM     10  C   UNL     1       5.432   3.705  12.443  0.00  0.00    +0.000 A 
ATOM     11  C   UNL     1       6.757   4.072  12.175  0.00  0.00    +0.000 A 
ATOM     12  C   UNL     1       7.541   4.660  13.167  0.00  0.00    +0.000 A 
ATOM     13  C   UNL     1       7.015   4.878  14.441  0.00  0.00    +0.000 A 
ATOM     14  C   UNL     1       5.698   4.504  14.737  0.00  0.00    +0.000 A 
ATOM     15  C   UNL     1       4.907   3.936  13.728  0.00  0.00    +0.000 A 
BRANCH  10  17
ATOM     16  F   UNL     1       4.392   3.831  10.275  0.00  0.00    +0.000 F 
ATOM     17  C   UNL     1       4.567   3.063  11.384  0.00  0.00    +0.000 C 
ATOM     18  F   UNL     1       3.318   2.770  11.842  0.00  0.00    +0.000 F 
ATOM     19  F   UNL     1       5.088   1.883  10.946  0.00  0.00    +0.000 F 
ENDBRANCH  10  17
ENDBRANCH   1  14
BRANCH   7  20
ATOM     20  C   UNL     1       2.809   2.037  18.459  0.00  0.00    +0.000 C 
ATOM     21  F   UNL     1       3.817   1.123  18.401  0.00  0.00    +0.000 F 
ATOM     22  F   UNL     1       1.911   1.546  19.355  0.00  0.00    +0.000 F 
ATOM     23  F   UNL     1       2.205   2.008  17.241  0.00  0.00    +0.000 F 
ENDBRANCH   7  20
TORSDOF 3
ENDMDL
MODEL 7
REMARK VINA RESULT:      -8.4      5.032      7.347
REMARK  Name = 
REMARK  3 active torsions:
REMARK  status: ('A' for Active; 'I' for Inactive)
REMARK    1  A    between atoms: C_2  and  C_5
REMARK    2  A    between atoms: C_9  and  C_10
REMARK    3  A    between atoms: C_16  and  C_17
REMARK                            x       y       z     vdW  Elec       q    Type
REMARK                         _______ _______ _______ _____ _____    ______ ____
ROOT
ATOM      1  C   UNL     1       2.144   7.649  19.140  0.00  0.00    +0.000 A 
ATOM      2  C   UNL     1       2.311   8.460  17.891  0.00  0.00    +0.000 A 
ATOM      3  C   UNL     1       1.814   9.702  17.878  0.00  0.00    +0.000 A 
ATOM      4  C   UNL     1       1.152  10.187  19.020  0.00  0.00    +0.000 A 
ATOM      5  N   UNL     1       0.570  11.336  19.284  0.00  0.00    +0.000 NA
ATOM      6  N   UNL     1       0.066  11.261  20.560  0.00  0.00    +0.000 NA
ATOM      7  C   UNL     1       0.353  10.065  21.047  0.00  0.00    +0.000 A 
ATOM      8  N   UNL     1       1.040   9.344  20.107  0.00  0.00    +0.000 N 
ATOM      9  N   UNL     1       1.518   8.065  20.206  0.00  0.00    +0.000 NA
ENDROOT
BRANCH   1  14
ATOM     10  C   UNL     1       2.947   4.017  20.038  0.00  0.00    +0.000 A 
ATOM     11  C   UNL     1       3.869   3.711  19.028  0.00  0.00    +0.000 A 
ATOM     12  C   UNL     1       4.203   4.663  18.065  0.00  0.00    +0.000 A 
ATOM     13  C   UNL     1       3.628   5.935  18.105  0.00  0.00    +0.000 A 
ATOM     14  C   UNL     1       2.716   6.268  19.115  0.00  0.00    +0.000 A 
ATOM     15  C   UNL     1       2.366   5.298  20.066  0.00  0.00    +0.000 A 
BRANCH  10  17
ATOM     16  F   UNL     1       3.599   2.179  21.450  0.00  0.00    +0.000 F 
ATOM     17  C   UNL     1       2.576   3.002  21.094  0.00  0.00    +0.000 C 
ATOM     18  F   UNL     1       1.558   2.189  20.695  0.00  0.00    +0.000 F 
ATOM     19  F   UNL     1       2.150   3.594  22.244  0.00  0.00    +0.000 F 
ENDBRANCH  10  17
ENDBRANCH   1  14
BRANCH   7  20
ATOM     20  C   UNL     1       0.031   9.509  22.366  0.00  0.00    +0.000 C 
ATOM     21  F   UNL     1       1.141   9.088  23.034  0.00  0.00    +0.000 F 
ATOM     22  F   UNL     1      -0.574  10.416  23.181  0.00  0.00    +0.000 F 
ATOM     23  F   UNL     1      -0.795   8.432  22.294  0.00  0.00    +0.000 F 
ENDBRANCH   7  20
TORSDOF 3
ENDMDL
MODEL 8
REMARK VINA RESULT:      -8.3      4.398      6.529
REMARK  Name = 
REMARK  3 active torsions:
REMARK  status: ('A' for Active; 'I' for Inactive)
REMARK    1  A    between atoms: C_2  and  C_5
REMARK    2  A    between atoms: C_9  and  C_10
REMARK    3  A    between atoms: C_16  and  C_17
REMARK                            x       y       z     vdW  Elec       q    Type
REMARK                         _______ _______ _______ _____ _____    ______ ____
ROOT
ATOM      1  C   UNL     1       2.509   6.748  19.162  0.00  0.00    +0.000 A 
ATOM      2  C   UNL     1       3.377   6.768  17.940  0.00  0.00    +0.000 A 
ATOM      3  C   UNL     1       3.990   5.633  17.588  0.00  0.00    +0.000 A 
ATOM      4  C   UNL     1       3.808   4.482  18.377  0.00  0.00    +0.000 A 
ATOM      5  N   UNL     1       4.281   3.260  18.280  0.00  0.00    +0.000 NA
ATOM      6  N   UNL     1       3.785   2.539  19.339  0.00  0.00    +0.000 NA
ATOM      7  C   UNL     1       3.018   3.341  20.060  0.00  0.00    +0.000 A 
ATOM      8  N   UNL     1       3.002   4.587  19.492  0.00  0.00    +0.000 N 
ATOM      9  N   UNL     1       2.337   5.703  19.923  0.00  0.00    +0.000 NA
ENDROOT
BRANCH   1  14
ATOM     10  C   UNL     1       0.654   9.481  21.096  0.00  0.00    +0.000 A 
ATOM     11  C   UNL     1       0.552  10.462  20.100  0.00  0.00    +0.000 A 
ATOM     12  C   UNL     1       1.097  10.243  18.834  0.00  0.00    +0.000 A 
ATOM     13  C   UNL     1       1.739   9.037  18.546  0.00  0.00    +0.000 A 
ATOM     14  C   UNL     1       1.838   8.036  19.520  0.00  0.00    +0.000 A 
ATOM     15  C   UNL     1       1.311   8.273  20.798  0.00  0.00    +0.000 A 
BRANCH  10  17
ATOM     16  F   UNL     1      -0.419  10.952  22.671  0.00  0.00    +0.000 F 
ATOM     17  C   UNL     1       0.068   9.697  22.471  0.00  0.00    +0.000 C 
ATOM     18  F   UNL     1       0.977   9.482  23.461  0.00  0.00    +0.000 F 
ATOM     19  F   UNL     1      -0.966   8.847  22.724  0.00  0.00    +0.000 F 
ENDBRANCH  10  17
ENDBRANCH   1  14
BRANCH   7  20
ATOM     20  C   UNL     1       2.266   3.037  21.283  0.00  0.00    +0.000 C 
ATOM     21  F   UNL     1       2.387   4.016  22.221  0.00  0.00    +0.000 F 
ATOM     22  F   UNL     1       0.932   2.899  21.054  0.00  0.00    +0.000 F 
ATOM     23  F   UNL     1       2.683   1.889  21.882  0.00  0.00    +0.000 F 
ENDBRANCH   7  20
TORSDOF 3
ENDMDL
MODEL 9
REMARK VINA RESULT:      -8.3      4.381      6.577
REMARK  Name = 
REMARK  3 active torsions:
REMARK  status: ('A' for Active; 'I' for Inactive)
REMARK    1  A    between atoms: C_2  and  C_5
REMARK    2  A    between atoms: C_9  and  C_10
REMARK    3  A    between atoms: C_16  and  C_17
REMARK                            x       y       z     vdW  Elec       q    Type
REMARK                         _______ _______ _______ _____ _____    ______ ____
ROOT
ATOM      1  C   UNL     1       2.544   6.673  19.218  0.00  0.00    +0.000 A 
ATOM      2  C   UNL     1       3.435   6.677  18.012  0.00  0.00    +0.000 A 
ATOM      3  C   UNL     1       4.049   5.535  17.683  0.00  0.00    +0.000 A 
ATOM      4  C   UNL     1       3.846   4.393  18.479  0.00  0.00    +0.000 A 
ATOM      5  N   UNL     1       4.316   3.168  18.402  0.00  0.00    +0.000 NA
ATOM      6  N   UNL     1       3.796   2.459  19.458  0.00  0.00    +0.000 NA
ATOM      7  C   UNL     1       3.020   3.272  20.158  0.00  0.00    +0.000 A 
ATOM      8  N   UNL     1       3.020   4.512  19.577  0.00  0.00    +0.000 N 
ATOM      9  N   UNL     1       2.353   5.636  19.985  0.00  0.00    +0.000 NA
ENDROOT
BRANCH   1  14
ATOM     10  C   UNL     1       0.690   9.443  21.098  0.00  0.00    +0.000 A 
ATOM     11  C   UNL     1       0.586  10.403  20.083  0.00  0.00    +0.000 A 
ATOM     12  C   UNL     1       1.129  10.159  18.821  0.00  0.00    +0.000 A 
ATOM     13  C   UNL     1       1.772   8.948  18.556  0.00  0.00    +0.000 A 
ATOM     14  C   UNL     1       1.872   7.967  19.550  0.00  0.00    +0.000 A 
ATOM     15  C   UNL     1       1.347   8.230  20.824  0.00  0.00    +0.000 A 
BRANCH  10  17
ATOM     16  F   UNL     1       0.981   9.465  23.488  0.00  0.00    +0.000 F 
ATOM     17  C   UNL     1       0.106   9.686  22.470  0.00  0.00    +0.000 C 
ATOM     18  F   UNL     1      -0.974   8.895  22.720  0.00  0.00    +0.000 F 
ATOM     19  F   UNL     1      -0.330  10.968  22.619  0.00  0.00    +0.000 F 
ENDBRANCH  10  17
ENDBRANCH   1  14
BRANCH   7  20
ATOM     20  C   UNL     1       2.243   2.983  21.368  0.00  0.00    +0.000 C 
ATOM     21  F   UNL     1       0.907   2.902  21.118  0.00  0.00    +0.000 F 
ATOM     22  F   UNL     1       2.589   1.798  21.941  0.00  0.00    +0.000 F 
ATOM     23  F   UNL     1       2.389   3.939  22.325  0.00  0.00    +0.000 F 
ENDBRANCH   7  20
TORSDOF 3
ENDMDL
