MODEL 1
REMARK VINA RESULT:      -6.7      0.000      0.000
REMARK  Name = 
REMARK  7 active torsions:
REMARK  status: ('A' for Active; 'I' for Inactive)
REMARK    1  A    between atoms: C_1  and  C_2
REMARK    2  A    between atoms: C_5  and  C_6
REMARK    3  A    between atoms: C_7  and  C_8
REMARK    4  A    between atoms: N_10  and  C_11
REMARK    5  A    between atoms: C_11  and  C_12
REMARK    6  A    between atoms: C_12  and  C_13
REMARK    7  A    between atoms: C_12  and  O_14
REMARK                            x       y       z     vdW  Elec       q    Type
REMARK                         _______ _______ _______ _____ _____    ______ ____
ROOT
ATOM      1  C   UNL     1       4.451   4.045  16.390  0.00  0.00    +0.000 C 
ATOM      2  C   UNL     1       5.794   4.055  16.370  0.00  0.00    +0.000 C 
ENDROOT
BRANCH   1   7
ATOM      3  C   UNL     1       1.347   3.011  21.180  0.00  0.00    +0.000 C 
ATOM      4  C   UNL     1       2.150   3.262  19.938  0.00  0.00    +0.000 A 
ATOM      5  C   UNL     1       3.541   3.125  19.935  0.00  0.00    +0.000 A 
ATOM      6  C   UNL     1       4.276   3.375  18.769  0.00  0.00    +0.000 A 
ATOM      7  C   UNL     1       3.634   3.757  17.582  0.00  0.00    +0.000 A 
ATOM      8  C   UNL     1       2.244   3.907  17.597  0.00  0.00    +0.000 A 
ATOM      9  C   UNL     1       1.509   3.654  18.761  0.00  0.00    +0.000 A 
ENDBRANCH   1   7
BRANCH   2  10
ATOM     10  C   UNL     1       6.522   4.377  15.115  0.00  0.00    +0.000 C 
ATOM     11  O   UNL     1       7.365   5.262  15.042  0.00  0.00    +0.000 OA
ATOM     12  N   UNL     1       6.154   3.575  14.064  0.00  0.00    +0.000 N 
ATOM     13  H   UNL     1       5.352   2.968  14.154  0.00  0.00    +0.000 HD
BRANCH  12  14
ATOM     14  C   UNL     1       6.708   3.757  12.733  0.00  0.00    +0.000 C 
BRANCH  14  15
ATOM     15  C   UNL     1       5.795   3.193  11.632  0.00  0.00    +0.000 C 
ATOM     16  C   UNL     1       5.998   1.690  11.471  0.00  0.00    +0.000 C 
BRANCH  15  17
ATOM     17  O   UNL     1       4.423   3.438  11.968  0.00  0.00    +0.000 OA
ATOM     18  H   UNL     1       3.894   3.347  11.156  0.00  0.00    +0.000 HD
ENDBRANCH  15  17
ENDBRANCH  14  15
ENDBRANCH  12  14
ENDBRANCH   2  10
TORSDOF 5
ENDMDL
MODEL 2
REMARK VINA RESULT:      -6.7      0.193      1.216
REMARK  Name = 
REMARK  7 active torsions:
REMARK  status: ('A' for Active; 'I' for Inactive)
REMARK    1  A    between atoms: C_1  and  C_2
REMARK    2  A    between atoms: C_5  and  C_6
REMARK    3  A    between atoms: C_7  and  C_8
REMARK    4  A    between atoms: N_10  and  C_11
REMARK    5  A    between atoms: C_11  and  C_12
REMARK    6  A    between atoms: C_12  and  C_13
REMARK    7  A    between atoms: C_12  and  O_14
REMARK                            x       y       z     vdW  Elec       q    Type
REMARK                         _______ _______ _______ _____ _____    ______ ____
ROOT
ATOM      1  C   UNL     1       4.642   3.847  16.354  0.00  0.00    +0.000 C 
ATOM      2  C   UNL     1       5.865   4.402  16.348  0.00  0.00    +0.000 C 
ENDROOT
BRANCH   1   7
ATOM      3  C   UNL     1       1.224   3.116  20.984  0.00  0.00    +0.000 C 
ATOM      4  C   UNL     1       2.108   3.322  19.790  0.00  0.00    +0.000 A 
ATOM      5  C   UNL     1       1.576   3.681  18.548  0.00  0.00    +0.000 A 
ATOM      6  C   UNL     1       2.415   3.858  17.441  0.00  0.00    +0.000 A 
ATOM      7  C   UNL     1       3.802   3.687  17.554  0.00  0.00    +0.000 A 
ATOM      8  C   UNL     1       4.326   3.313  18.796  0.00  0.00    +0.000 A 
ATOM      9  C   UNL     1       3.488   3.140  19.903  0.00  0.00    +0.000 A 
ENDBRANCH   1   7
BRANCH   2  10
ATOM     10  C   UNL     1       6.621   4.533  15.075  0.00  0.00    +0.000 C 
ATOM     11  O   UNL     1       7.575   5.289  14.941  0.00  0.00    +0.000 OA
ATOM     12  N   UNL     1       6.141   3.715  14.083  0.00  0.00    +0.000 N 
ATOM     13  H   UNL     1       5.265   3.230  14.214  0.00  0.00    +0.000 HD
BRANCH  12  14
ATOM     14  C   UNL     1       6.706   3.725  12.744  0.00  0.00    +0.000 C 
BRANCH  14  15
ATOM     15  C   UNL     1       5.727   3.186  11.687  0.00  0.00    +0.000 C 
ATOM     16  C   UNL     1       5.922   1.688  11.478  0.00  0.00    +0.000 C 
BRANCH  15  17
ATOM     17  O   UNL     1       4.378   3.419  12.113  0.00  0.00    +0.000 OA
ATOM     18  H   UNL     1       4.249   2.967  12.964  0.00  0.00    +0.000 HD
ENDBRANCH  15  17
ENDBRANCH  14  15
ENDBRANCH  12  14
ENDBRANCH   2  10
TORSDOF 5
ENDMDL
MODEL 3
REMARK VINA RESULT:      -6.6      6.793      8.427
REMARK  Name = 
REMARK  7 active torsions:
REMARK  status: ('A' for Active; 'I' for Inactive)
REMARK    1  A    between atoms: C_1  and  C_2
REMARK    2  A    between atoms: C_5  and  C_6
REMARK    3  A    between atoms: C_7  and  C_8
REMARK    4  A    between atoms: N_10  and  C_11
REMARK    5  A    between atoms: C_11  and  C_12
REMARK    6  A    between atoms: C_12  and  C_13
REMARK    7  A    between atoms: C_12  and  O_14
REMARK                            x       y       z     vdW  Elec       q    Type
REMARK                         _______ _______ _______ _____ _____    ______ ____
ROOT
ATOM      1  C   UNL     1       8.688   8.969  18.878  0.00  0.00    +0.000 C 
ATOM      2  C   UNL     1       8.149   8.515  17.735  0.00  0.00    +0.000 C 
ENDROOT
BRANCH   1   7
ATOM      3  C   UNL     1      11.086  14.227  19.383  0.00  0.00    +0.000 C 
ATOM      4  C   UNL     1      10.481  12.861  19.251  0.00  0.00    +0.000 A 
ATOM      5  C   UNL     1      10.198  12.313  17.996  0.00  0.00    +0.000 A 
ATOM      6  C   UNL     1       9.623  11.040  17.891  0.00  0.00    +0.000 A 
ATOM      7  C   UNL     1       9.327  10.287  19.036  0.00  0.00    +0.000 A 
ATOM      8  C   UNL     1       9.599  10.848  20.288  0.00  0.00    +0.000 A 
ATOM      9  C   UNL     1      10.177  12.118  20.393  0.00  0.00    +0.000 A 
ENDBRANCH   1   7
BRANCH   2  10
ATOM     10  C   UNL     1       7.511   7.173  17.689  0.00  0.00    +0.000 C 
ATOM     11  O   UNL     1       7.595   6.363  18.602  0.00  0.00    +0.000 OA
ATOM     12  N   UNL     1       6.816   6.953  16.525  0.00  0.00    +0.000 N 
ATOM     13  H   UNL     1       6.909   7.601  15.756  0.00  0.00    +0.000 HD
BRANCH  12  14
ATOM     14  C   UNL     1       6.159   5.686  16.255  0.00  0.00    +0.000 C 
BRANCH  14  15
ATOM     15  C   UNL     1       6.977   4.786  15.315  0.00  0.00    +0.000 C 
ATOM     16  C   UNL     1       6.062   3.995  14.384  0.00  0.00    +0.000 C 
BRANCH  15  17
ATOM     17  O   UNL     1       7.857   5.590  14.518  0.00  0.00    +0.000 OA
ATOM     18  H   UNL     1       7.930   5.177  13.641  0.00  0.00    +0.000 HD
ENDBRANCH  15  17
ENDBRANCH  14  15
ENDBRANCH  12  14
ENDBRANCH   2  10
TORSDOF 5
ENDMDL
MODEL 4
REMARK VINA RESULT:      -6.6      6.922      8.667
REMARK  Name = 
REMARK  7 active torsions:
REMARK  status: ('A' for Active; 'I' for Inactive)
REMARK    1  A    between atoms: C_1  and  C_2
REMARK    2  A    between atoms: C_5  and  C_6
REMARK    3  A    between atoms: C_7  and  C_8
REMARK    4  A    between atoms: N_10  and  C_11
REMARK    5  A    between atoms: C_11  and  C_12
REMARK    6  A    between atoms: C_12  and  C_13
REMARK    7  A    between atoms: C_12  and  O_14
REMARK                            x       y       z     vdW  Elec       q    Type
REMARK                         _______ _______ _______ _____ _____    ______ ____
ROOT
ATOM      1  C   UNL     1       8.278   9.446  17.906  0.00  0.00    +0.000 C 
ATOM      2  C   UNL     1       8.310   8.197  18.400  0.00  0.00    +0.000 C 
ENDROOT
BRANCH   1   7
ATOM      3  C   UNL     1      11.111  13.888  20.335  0.00  0.00    +0.000 C 
ATOM      4  C   UNL     1      10.364  12.744  19.714  0.00  0.00    +0.000 A 
ATOM      5  C   UNL     1      10.161  11.549  20.410  0.00  0.00    +0.000 A 
ATOM      6  C   UNL     1       9.472  10.487  19.811  0.00  0.00    +0.000 A 
ATOM      7  C   UNL     1       8.965  10.602  18.509  0.00  0.00    +0.000 A 
ATOM      8  C   UNL     1       9.184  11.795  17.813  0.00  0.00    +0.000 A 
ATOM      9  C   UNL     1       9.870  12.857  18.413  0.00  0.00    +0.000 A 
ENDBRANCH   1   7
BRANCH   2  10
ATOM     10  C   UNL     1       7.596   7.097  17.701  0.00  0.00    +0.000 C 
ATOM     11  O   UNL     1       7.000   7.254  16.643  0.00  0.00    +0.000 OA
ATOM     12  N   UNL     1       7.688   5.897  18.362  0.00  0.00    +0.000 N 
ATOM     13  H   UNL     1       8.067   5.869  19.298  0.00  0.00    +0.000 HD
BRANCH  12  14
ATOM     14  C   UNL     1       7.019   4.703  17.876  0.00  0.00    +0.000 C 
BRANCH  14  15
ATOM     15  C   UNL     1       5.600   4.547  18.448  0.00  0.00    +0.000 C 
ATOM     16  C   UNL     1       4.556   4.588  17.336  0.00  0.00    +0.000 C 
BRANCH  15  17
ATOM     17  O   UNL     1       5.489   3.295  19.137  0.00  0.00    +0.000 OA
ATOM     18  H   UNL     1       4.927   2.707  18.603  0.00  0.00    +0.000 HD
ENDBRANCH  15  17
ENDBRANCH  14  15
ENDBRANCH  12  14
ENDBRANCH   2  10
TORSDOF 5
ENDMDL
MODEL 5
REMARK VINA RESULT:      -6.6      6.815      8.557
REMARK  Name = 
REMARK  7 active torsions:
REMARK  status: ('A' for Active; 'I' for Inactive)
REMARK    1  A    between atoms: C_1  and  C_2
REMARK    2  A    between atoms: C_5  and  C_6
REMARK    3  A    between atoms: C_7  and  C_8
REMARK    4  A    between atoms: N_10  and  C_11
REMARK    5  A    between atoms: C_11  and  C_12
REMARK    6  A    between atoms: C_12  and  C_13
REMARK    7  A    between atoms: C_12  and  O_14
REMARK                            x       y       z     vdW  Elec       q    Type
REMARK                         _______ _______ _______ _____ _____    ______ ____
ROOT
ATOM      1  C   UNL     1       8.212   9.388  17.879  0.00  0.00    +0.000 C 
ATOM      2  C   UNL     1       8.285   8.095  18.235  0.00  0.00    +0.000 C 
ENDROOT
BRANCH   1   7
ATOM      3  C   UNL     1      11.034  13.793  20.386  0.00  0.00    +0.000 C 
ATOM      4  C   UNL     1      10.319  12.649  19.731  0.00  0.00    +0.000 A 
ATOM      5  C   UNL     1       9.860  12.740  18.413  0.00  0.00    +0.000 A 
ATOM      6  C   UNL     1       9.184  11.666  17.821  0.00  0.00    +0.000 A 
ATOM      7  C   UNL     1       8.960  10.477  18.530  0.00  0.00    +0.000 A 
ATOM      8  C   UNL     1       9.409  10.398  19.853  0.00  0.00    +0.000 A 
ATOM      9  C   UNL     1      10.087  11.470  20.443  0.00  0.00    +0.000 A 
ENDBRANCH   1   7
BRANCH   2  10
ATOM     10  C   UNL     1       7.501   7.070  17.497  0.00  0.00    +0.000 C 
ATOM     11  O   UNL     1       6.730   7.346  16.588  0.00  0.00    +0.000 OA
ATOM     12  N   UNL     1       7.745   5.792  17.939  0.00  0.00    +0.000 N 
ATOM     13  H   UNL     1       8.277   5.648  18.785  0.00  0.00    +0.000 HD
BRANCH  12  14
ATOM     14  C   UNL     1       7.043   4.646  17.386  0.00  0.00    +0.000 C 
BRANCH  14  15
ATOM     15  C   UNL     1       5.634   4.475  17.978  0.00  0.00    +0.000 C 
ATOM     16  C   UNL     1       4.643   4.032  16.906  0.00  0.00    +0.000 C 
BRANCH  15  17
ATOM     17  O   UNL     1       5.661   3.487  19.016  0.00  0.00    +0.000 OA
ATOM     18  H   UNL     1       4.795   3.493  19.459  0.00  0.00    +0.000 HD
ENDBRANCH  15  17
ENDBRANCH  14  15
ENDBRANCH  12  14
ENDBRANCH   2  10
TORSDOF 5
ENDMDL
MODEL 6
REMARK VINA RESULT:      -6.5      1.080      1.654
REMARK  Name = 
REMARK  7 active torsions:
REMARK  status: ('A' for Active; 'I' for Inactive)
REMARK    1  A    between atoms: C_1  and  C_2
REMARK    2  A    between atoms: C_5  and  C_6
REMARK    3  A    between atoms: C_7  and  C_8
REMARK    4  A    between atoms: N_10  and  C_11
REMARK    5  A    between atoms: C_11  and  C_12
REMARK    6  A    between atoms: C_12  and  C_13
REMARK    7  A    between atoms: C_12  and  O_14
REMARK                            x       y       z     vdW  Elec       q    Type
REMARK                         _______ _______ _______ _____ _____    ______ ____
ROOT
ATOM      1  C   UNL     1       3.910   4.033  16.819  0.00  0.00    +0.000 C 
ATOM      2  C   UNL     1       5.185   4.424  16.666  0.00  0.00    +0.000 C 
ENDROOT
BRANCH   1   7
ATOM      3  C   UNL     1       1.335   2.595  21.814  0.00  0.00    +0.000 C 
ATOM      4  C   UNL     1       2.003   2.982  20.529  0.00  0.00    +0.000 A 
ATOM      5  C   UNL     1       1.284   3.586  19.492  0.00  0.00    +0.000 A 
ATOM      6  C   UNL     1       1.921   3.931  18.293  0.00  0.00    +0.000 A 
ATOM      7  C   UNL     1       3.290   3.687  18.110  0.00  0.00    +0.000 A 
ATOM      8  C   UNL     1       4.000   3.070  19.145  0.00  0.00    +0.000 A 
ATOM      9  C   UNL     1       3.364   2.729  20.344  0.00  0.00    +0.000 A 
ENDBRANCH   1   7
BRANCH   2  10
ATOM     10  C   UNL     1       5.706   4.769  15.317  0.00  0.00    +0.000 C 
ATOM     11  O   UNL     1       5.880   5.922  14.944  0.00  0.00    +0.000 OA
ATOM     12  N   UNL     1       5.976   3.663  14.550  0.00  0.00    +0.000 N 
ATOM     13  H   UNL     1       5.673   2.751  14.862  0.00  0.00    +0.000 HD
BRANCH  12  14
ATOM     14  C   UNL     1       6.446   3.778  13.180  0.00  0.00    +0.000 C 
BRANCH  14  15
ATOM     15  C   UNL     1       5.885   2.674  12.269  0.00  0.00    +0.000 C 
ATOM     16  C   UNL     1       4.727   3.199  11.426  0.00  0.00    +0.000 C 
BRANCH  15  17
ATOM     17  O   UNL     1       6.914   2.200  11.391  0.00  0.00    +0.000 OA
ATOM     18  H   UNL     1       7.019   1.244  11.539  0.00  0.00    +0.000 HD
ENDBRANCH  15  17
ENDBRANCH  14  15
ENDBRANCH  12  14
ENDBRANCH   2  10
TORSDOF 5
ENDMDL
MODEL 7
REMARK VINA RESULT:      -6.5      6.531      8.181
REMARK  Name = 
REMARK  7 active torsions:
REMARK  status: ('A' for Active; 'I' for Inactive)
REMARK    1  A    between atoms: C_1  and  C_2
REMARK    2  A    between atoms: C_5  and  C_6
REMARK    3  A    between atoms: C_7  and  C_8
REMARK    4  A    between atoms: N_10  and  C_11
REMARK    5  A    between atoms: C_11  and  C_12
REMARK    6  A    between atoms: C_12  and  C_13
REMARK    7  A    between atoms: C_12  and  O_14
REMARK                            x       y       z     vdW  Elec       q    Type
REMARK                         _______ _______ _______ _____ _____    ______ ____
ROOT
ATOM      1  C   UNL     1       8.232   8.999  18.096  0.00  0.00    +0.000 C 
ATOM      2  C   UNL     1       8.355   7.743  18.554  0.00  0.00    +0.000 C 
ENDROOT
BRANCH   1   7
ATOM      3  C   UNL     1      11.651  13.341  19.858  0.00  0.00    +0.000 C 
ATOM      4  C   UNL     1      10.754  12.229  19.404  0.00  0.00    +0.000 A 
ATOM      5  C   UNL     1      10.097  11.406  20.325  0.00  0.00    +0.000 A 
ATOM      6  C   UNL     1       9.271  10.365  19.883  0.00  0.00    +0.000 A 
ATOM      7  C   UNL     1       9.080  10.129  18.514  0.00  0.00    +0.000 A 
ATOM      8  C   UNL     1       9.752  10.946  17.599  0.00  0.00    +0.000 A 
ATOM      9  C   UNL     1      10.573  11.989  18.040  0.00  0.00    +0.000 A 
ENDBRANCH   1   7
BRANCH   2  10
ATOM     10  C   UNL     1       7.458   6.670  18.051  0.00  0.00    +0.000 C 
ATOM     11  O   UNL     1       7.148   5.692  18.718  0.00  0.00    +0.000 OA
ATOM     12  N   UNL     1       7.015   6.902  16.772  0.00  0.00    +0.000 N 
ATOM     13  H   UNL     1       7.424   7.648  16.228  0.00  0.00    +0.000 HD
BRANCH  12  14
ATOM     14  C   UNL     1       6.168   5.951  16.072  0.00  0.00    +0.000 C 
BRANCH  14  15
ATOM     15  C   UNL     1       6.978   4.907  15.286  0.00  0.00    +0.000 C 
ATOM     16  C   UNL     1       6.065   4.056  14.409  0.00  0.00    +0.000 C 
BRANCH  15  17
ATOM     17  O   UNL     1       7.936   5.567  14.448  0.00  0.00    +0.000 OA
ATOM     18  H   UNL     1       7.999   6.494  14.736  0.00  0.00    +0.000 HD
ENDBRANCH  15  17
ENDBRANCH  14  15
ENDBRANCH  12  14
ENDBRANCH   2  10
TORSDOF 5
ENDMDL
MODEL 8
REMARK VINA RESULT:      -6.3      7.046      8.699
REMARK  Name = 
REMARK  7 active torsions:
REMARK  status: ('A' for Active; 'I' for Inactive)
REMARK    1  A    between atoms: C_1  and  C_2
REMARK    2  A    between atoms: C_5  and  C_6
REMARK    3  A    between atoms: C_7  and  C_8
REMARK    4  A    between atoms: N_10  and  C_11
REMARK    5  A    between atoms: C_11  and  C_12
REMARK    6  A    between atoms: C_12  and  C_13
REMARK    7  A    between atoms: C_12  and  O_14
REMARK                            x       y       z     vdW  Elec       q    Type
REMARK                         _______ _______ _______ _____ _____    ______ ____
ROOT
ATOM      1  C   UNL     1       8.980   9.171  18.898  0.00  0.00    +0.000 C 
ATOM      2  C   UNL     1       8.107   8.686  17.999  0.00  0.00    +0.000 C 
ENDROOT
BRANCH   1   7
ATOM      3  C   UNL     1      10.080  14.837  19.483  0.00  0.00    +0.000 C 
ATOM      4  C   UNL     1       9.812  13.370  19.327  0.00  0.00    +0.000 A 
ATOM      5  C   UNL     1       9.442  12.829  18.091  0.00  0.00    +0.000 A 
ATOM      6  C   UNL     1       9.184  11.458  17.966  0.00  0.00    +0.000 A 
ATOM      7  C   UNL     1       9.297  10.600  19.069  0.00  0.00    +0.000 A 
ATOM      8  C   UNL     1       9.653  11.150  20.305  0.00  0.00    +0.000 A 
ATOM      9  C   UNL     1       9.914  12.519  20.430  0.00  0.00    +0.000 A 
ENDBRANCH   1   7
BRANCH   2  10
ATOM     10  C   UNL     1       7.845   7.225  17.922  0.00  0.00    +0.000 C 
ATOM     11  O   UNL     1       8.052   6.461  18.856  0.00  0.00    +0.000 OA
ATOM     12  N   UNL     1       7.344   6.837  16.705  0.00  0.00    +0.000 N 
ATOM     13  H   UNL     1       7.337   7.490  15.934  0.00  0.00    +0.000 HD
BRANCH  12  14
ATOM     14  C   UNL     1       7.066   5.443  16.402  0.00  0.00    +0.000 C 
BRANCH  14  15
ATOM     15  C   UNL     1       5.884   4.888  17.214  0.00  0.00    +0.000 C 
ATOM     16  C   UNL     1       4.943   4.080  16.324  0.00  0.00    +0.000 C 
BRANCH  15  17
ATOM     17  O   UNL     1       6.371   4.036  18.259  0.00  0.00    +0.000 OA
ATOM     18  H   UNL     1       5.732   4.063  18.991  0.00  0.00    +0.000 HD
ENDBRANCH  15  17
ENDBRANCH  14  15
ENDBRANCH  12  14
ENDBRANCH   2  10
TORSDOF 5
ENDMDL
MODEL 9
REMARK VINA RESULT:      -6.3      6.555      8.052
REMARK  Name = 
REMARK  7 active torsions:
REMARK  status: ('A' for Active; 'I' for Inactive)
REMARK    1  A    between atoms: C_1  and  C_2
REMARK    2  A    between atoms: C_5  and  C_6
REMARK    3  A    between atoms: C_7  and  C_8
REMARK    4  A    between atoms: N_10  and  C_11
REMARK    5  A    between atoms: C_11  and  C_12
REMARK    6  A    between atoms: C_12  and  C_13
REMARK    7  A    between atoms: C_12  and  O_14
REMARK                            x       y       z     vdW  Elec       q    Type
REMARK                         _______ _______ _______ _____ _____    ______ ____
ROOT
ATOM      1  C   UNL     1       8.602   8.745  18.577  0.00  0.00    +0.000 C 
ATOM      2  C   UNL     1       7.733   8.245  17.684  0.00  0.00    +0.000 C 
ENDROOT
BRANCH   1   7
ATOM      3  C   UNL     1      10.120  14.318  19.113  0.00  0.00    +0.000 C 
ATOM      4  C   UNL     1       9.714  12.881  18.983  0.00  0.00    +0.000 A 
ATOM      5  C   UNL     1      10.028  11.947  19.976  0.00  0.00    +0.000 A 
ATOM      6  C   UNL     1       9.650  10.606  19.833  0.00  0.00    +0.000 A 
ATOM      7  C   UNL     1       8.946  10.173  18.701  0.00  0.00    +0.000 A 
ATOM      8  C   UNL     1       8.648  11.109  17.705  0.00  0.00    +0.000 A 
ATOM      9  C   UNL     1       9.022  12.450  17.849  0.00  0.00    +0.000 A 
ENDBRANCH   1   7
BRANCH   2  10
ATOM     10  C   UNL     1       7.442   6.788  17.656  0.00  0.00    +0.000 C 
ATOM     11  O   UNL     1       7.212   6.134  18.665  0.00  0.00    +0.000 OA
ATOM     12  N   UNL     1       7.452   6.266  16.386  0.00  0.00    +0.000 N 
ATOM     13  H   UNL     1       7.792   6.826  15.618  0.00  0.00    +0.000 HD
BRANCH  12  14
ATOM     14  C   UNL     1       7.241   4.850  16.140  0.00  0.00    +0.000 C 
BRANCH  14  15
ATOM     15  C   UNL     1       5.777   4.520  15.807  0.00  0.00    +0.000 C 
ATOM     16  C   UNL     1       5.605   4.243  14.317  0.00  0.00    +0.000 C 
BRANCH  15  17
ATOM     17  O   UNL     1       5.362   3.360  16.541  0.00  0.00    +0.000 OA
ATOM     18  H   UNL     1       5.909   3.300  17.343  0.00  0.00    +0.000 HD
ENDBRANCH  15  17
ENDBRANCH  14  15
ENDBRANCH  12  14
ENDBRANCH   2  10
TORSDOF 5
ENDMDL
