MODEL 1
REMARK VINA RESULT:      -9.4      0.000      0.000
REMARK  Name = 
REMARK  1 active torsions:
REMARK  status: ('A' for Active; 'I' for Inactive)
REMARK    1  A    between atoms: C_7  and  C_8
REMARK                            x       y       z     vdW  Elec       q    Type
REMARK                         _______ _______ _______ _____ _____    ______ ____
ROOT
ATOM      1  O   UNL     1       7.189   8.061  16.827  0.00  0.00    +0.000 OA
ATOM      2  C   UNL     1       7.330   7.180  17.661  0.00  0.00    +0.000 C 
ATOM      3  C   UNL     1       8.314   7.207  18.798  0.00  0.00    +0.000 C 
ATOM      4  C   UNL     1       8.158   5.813  19.412  0.00  0.00    +0.000 C 
ATOM      5  C   UNL     1       6.924   5.272  18.770  0.00  0.00    +0.000 C 
ATOM      6  C   UNL     1       6.488   5.991  17.732  0.00  0.00    +0.000 C 
ATOM      7  C   UNL     1       5.301   5.644  16.912  0.00  0.00    +0.000 C 
ATOM      8  C   UNL     1       4.397   4.652  17.667  0.00  0.00    +0.000 A 
ATOM      9  C   UNL     1       3.067   4.468  17.258  0.00  0.00    +0.000 A 
ATOM     10  C   UNL     1       2.306   3.563  17.959  0.00  0.00    +0.000 A 
ATOM     11  C   UNL     1       2.823   2.827  19.000  0.00  0.00    +0.000 A 
ATOM     12  C   UNL     1       4.133   2.958  19.417  0.00  0.00    +0.000 A 
ATOM     13  C   UNL     1       4.930   3.911  18.773  0.00  0.00    +0.000 A 
ATOM     14  N   UNL     1       6.260   4.146  19.198  0.00  0.00    +0.000 N 
ATOM     15  O   UNL     1       1.892   2.002  19.554  0.00  0.00    +0.000 OA
ATOM     16  C   UNL     1       0.710   2.406  18.832  0.00  0.00    +0.000 C 
ATOM     17  O   UNL     1       0.991   3.295  17.733  0.00  0.00    +0.000 OA
ATOM     18  H   UNL     1       6.559   3.713  20.065  0.00  0.00    +0.000 HD
ENDROOT
BRANCH   7  19
ATOM     19  C   UNL     1       5.715   5.076  15.556  0.00  0.00    +0.000 A 
ATOM     20  C   UNL     1       4.978   4.039  14.965  0.00  0.00    +0.000 A 
ATOM     21  C   UNL     1       5.368   3.510  13.731  0.00  0.00    +0.000 A 
ATOM     22  C   UNL     1       6.491   4.010  13.072  0.00  0.00    +0.000 A 
ATOM     23  C   UNL     1       7.225   5.044  13.648  0.00  0.00    +0.000 A 
ATOM     24 CL   UNL     1       8.607   5.672  12.840  0.00  0.00    +0.000 Cl
ATOM     25  C   UNL     1       6.845   5.574  14.878  0.00  0.00    +0.000 A 
ENDBRANCH   7  19
TORSDOF 1
ENDMDL
MODEL 2
REMARK VINA RESULT:      -9.3      4.098      6.617
REMARK  Name = 
REMARK  1 active torsions:
REMARK  status: ('A' for Active; 'I' for Inactive)
REMARK    1  A    between atoms: C_7  and  C_8
REMARK                            x       y       z     vdW  Elec       q    Type
REMARK                         _______ _______ _______ _____ _____    ______ ____
ROOT
ATOM      1  O   UNL     1       1.346   7.902  21.455  0.00  0.00    +0.000 OA
ATOM      2  C   UNL     1       1.504   8.206  20.283  0.00  0.00    +0.000 C 
ATOM      3  C   UNL     1       0.988   9.459  19.631  0.00  0.00    +0.000 C 
ATOM      4  C   UNL     1       1.341   9.243  18.157  0.00  0.00    +0.000 C 
ATOM      5  C   UNL     1       2.262   8.069  18.175  0.00  0.00    +0.000 C 
ATOM      6  C   UNL     1       2.307   7.427  19.346  0.00  0.00    +0.000 C 
ATOM      7  C   UNL     1       3.122   6.215  19.605  0.00  0.00    +0.000 C 
ATOM      8  C   UNL     1       4.227   6.071  18.543  0.00  0.00    +0.000 A 
ATOM      9  C   UNL     1       5.324   5.229  18.785  0.00  0.00    +0.000 A 
ATOM     10  C   UNL     1       6.277   5.128  17.799  0.00  0.00    +0.000 A 
ATOM     11  C   UNL     1       6.157   5.790  16.599  0.00  0.00    +0.000 A 
ATOM     12  C   UNL     1       5.082   6.607  16.310  0.00  0.00    +0.000 A 
ATOM     13  C   UNL     1       4.116   6.789  17.306  0.00  0.00    +0.000 A 
ATOM     14  N   UNL     1       3.026   7.669  17.103  0.00  0.00    +0.000 N 
ATOM     15  O   UNL     1       7.218   5.554  15.777  0.00  0.00    +0.000 OA
ATOM     16  C   UNL     1       8.069   4.784  16.652  0.00  0.00    +0.000 C 
ATOM     17  O   UNL     1       7.423   4.400  17.881  0.00  0.00    +0.000 OA
ATOM     18  H   UNL     1       3.051   8.265  16.283  0.00  0.00    +0.000 HD
ENDROOT
BRANCH   7  19
ATOM     19  C   UNL     1       2.249   4.963  19.652  0.00  0.00    +0.000 A 
ATOM     20  C   UNL     1       1.633   4.482  18.487  0.00  0.00    +0.000 A 
ATOM     21  C   UNL     1       0.821   3.345  18.535  0.00  0.00    +0.000 A 
ATOM     22  C   UNL     1       0.618   2.673  19.740  0.00  0.00    +0.000 A 
ATOM     23  C   UNL     1       1.231   3.139  20.901  0.00  0.00    +0.000 A 
ATOM     24 CL   UNL     1       0.993   2.314  22.391  0.00  0.00    +0.000 Cl
ATOM     25  C   UNL     1       2.039   4.273  20.862  0.00  0.00    +0.000 A 
ENDBRANCH   7  19
TORSDOF 1
ENDMDL
MODEL 3
REMARK VINA RESULT:      -9.2      1.077      1.409
REMARK  Name = 
REMARK  1 active torsions:
REMARK  status: ('A' for Active; 'I' for Inactive)
REMARK    1  A    between atoms: C_7  and  C_8
REMARK                            x       y       z     vdW  Elec       q    Type
REMARK                         _______ _______ _______ _____ _____    ______ ____
ROOT
ATOM      1  O   UNL     1       7.133   8.086  16.732  0.00  0.00    +0.000 OA
ATOM      2  C   UNL     1       7.286   7.223  17.582  0.00  0.00    +0.000 C 
ATOM      3  C   UNL     1       8.244   7.301  18.738  0.00  0.00    +0.000 C 
ATOM      4  C   UNL     1       8.124   5.912  19.371  0.00  0.00    +0.000 C 
ATOM      5  C   UNL     1       6.923   5.319  18.712  0.00  0.00    +0.000 C 
ATOM      6  C   UNL     1       6.484   6.007  17.655  0.00  0.00    +0.000 C 
ATOM      7  C   UNL     1       5.328   5.605  16.816  0.00  0.00    +0.000 C 
ATOM      8  C   UNL     1       4.443   4.594  17.568  0.00  0.00    +0.000 A 
ATOM      9  C   UNL     1       3.128   4.358  17.135  0.00  0.00    +0.000 A 
ATOM     10  C   UNL     1       2.385   3.438  17.835  0.00  0.00    +0.000 A 
ATOM     11  C   UNL     1       2.905   2.736  18.898  0.00  0.00    +0.000 A 
ATOM     12  C   UNL     1       4.201   2.919  19.339  0.00  0.00    +0.000 A 
ATOM     13  C   UNL     1       4.977   3.889  18.697  0.00  0.00    +0.000 A 
ATOM     14  N   UNL     1       6.289   4.177  19.145  0.00  0.00    +0.000 N 
ATOM     15  O   UNL     1       1.992   1.887  19.446  0.00  0.00    +0.000 OA
ATOM     16  C   UNL     1       0.812   2.239  18.694  0.00  0.00    +0.000 C 
ATOM     17  O   UNL     1       1.085   3.121  17.586  0.00  0.00    +0.000 OA
ATOM     18  H   UNL     1       6.585   3.768  20.024  0.00  0.00    +0.000 HD
ENDROOT
BRANCH   7  19
ATOM     19  C   UNL     1       5.789   5.032  15.479  0.00  0.00    +0.000 A 
ATOM     20  C   UNL     1       7.152   5.009  15.147  0.00  0.00    +0.000 A 
ATOM     21  C   UNL     1       7.571   4.498  13.915  0.00  0.00    +0.000 A 
ATOM     22  C   UNL     1       6.638   4.003  13.003  0.00  0.00    +0.000 A 
ATOM     23  C   UNL     1       5.284   4.015  13.326  0.00  0.00    +0.000 A 
ATOM     24 CL   UNL     1       4.128   3.400  12.212  0.00  0.00    +0.000 Cl
ATOM     25  C   UNL     1       4.858   4.525  14.550  0.00  0.00    +0.000 A 
ENDBRANCH   7  19
TORSDOF 1
ENDMDL
MODEL 4
REMARK VINA RESULT:      -9.0      3.492      6.353
REMARK  Name = 
REMARK  1 active torsions:
REMARK  status: ('A' for Active; 'I' for Inactive)
REMARK    1  A    between atoms: C_7  and  C_8
REMARK                            x       y       z     vdW  Elec       q    Type
REMARK                         _______ _______ _______ _____ _____    ______ ____
ROOT
ATOM      1  O   UNL     1       0.222   3.626  19.593  0.00  0.00    +0.000 OA
ATOM      2  C   UNL     1       1.351   3.402  20.002  0.00  0.00    +0.000 C 
ATOM      3  C   UNL     1       1.705   2.431  21.093  0.00  0.00    +0.000 C 
ATOM      4  C   UNL     1       3.205   2.670  21.285  0.00  0.00    +0.000 C 
ATOM      5  C   UNL     1       3.590   3.505  20.110  0.00  0.00    +0.000 C 
ATOM      6  C   UNL     1       2.553   3.989  19.420  0.00  0.00    +0.000 C 
ATOM      7  C   UNL     1       2.675   4.869  18.232  0.00  0.00    +0.000 C 
ATOM      8  C   UNL     1       4.092   4.774  17.635  0.00  0.00    +0.000 A 
ATOM      9  C   UNL     1       4.330   5.220  16.325  0.00  0.00    +0.000 A 
ATOM     10  C   UNL     1       5.613   5.123  15.845  0.00  0.00    +0.000 A 
ATOM     11  C   UNL     1       6.647   4.646  16.617  0.00  0.00    +0.000 A 
ATOM     12  C   UNL     1       6.462   4.222  17.918  0.00  0.00    +0.000 A 
ATOM     13  C   UNL     1       5.161   4.244  18.432  0.00  0.00    +0.000 A 
ATOM     14  N   UNL     1       4.889   3.757  19.733  0.00  0.00    +0.000 N 
ATOM     15  O   UNL     1       7.828   4.630  15.938  0.00  0.00    +0.000 OA
ATOM     16  C   UNL     1       7.386   5.020  14.621  0.00  0.00    +0.000 C 
ATOM     17  O   UNL     1       6.014   5.462  14.589  0.00  0.00    +0.000 OA
ATOM     18  H   UNL     1       5.632   3.263  20.213  0.00  0.00    +0.000 HD
ENDROOT
BRANCH   7  19
ATOM     19  C   UNL     1       2.329   6.315  18.579  0.00  0.00    +0.000 A 
ATOM     20  C   UNL     1       2.298   7.298  17.579  0.00  0.00    +0.000 A 
ATOM     21  C   UNL     1       1.996   8.625  17.901  0.00  0.00    +0.000 A 
ATOM     22  C   UNL     1       1.720   8.985  19.220  0.00  0.00    +0.000 A 
ATOM     23  C   UNL     1       1.742   8.015  20.219  0.00  0.00    +0.000 A 
ATOM     24 CL   UNL     1       1.394   8.447  21.846  0.00  0.00    +0.000 Cl
ATOM     25  C   UNL     1       2.044   6.692  19.906  0.00  0.00    +0.000 A 
ENDBRANCH   7  19
TORSDOF 1
ENDMDL
MODEL 5
REMARK VINA RESULT:      -8.4      3.878      6.536
REMARK  Name = 
REMARK  1 active torsions:
REMARK  status: ('A' for Active; 'I' for Inactive)
REMARK    1  A    between atoms: C_7  and  C_8
REMARK                            x       y       z     vdW  Elec       q    Type
REMARK                         _______ _______ _______ _____ _____    ______ ____
ROOT
ATOM      1  O   UNL     1       1.493   8.084  21.580  0.00  0.00    +0.000 OA
ATOM      2  C   UNL     1       1.570   8.203  20.367  0.00  0.00    +0.000 C 
ATOM      3  C   UNL     1       0.950   9.309  19.560  0.00  0.00    +0.000 C 
ATOM      4  C   UNL     1       1.234   8.876  18.119  0.00  0.00    +0.000 C 
ATOM      5  C   UNL     1       2.220   7.765  18.265  0.00  0.00    +0.000 C 
ATOM      6  C   UNL     1       2.364   7.322  19.517  0.00  0.00    +0.000 C 
ATOM      7  C   UNL     1       3.259   6.207  19.913  0.00  0.00    +0.000 C 
ATOM      8  C   UNL     1       4.312   5.947  18.820  0.00  0.00    +0.000 A 
ATOM      9  C   UNL     1       5.466   5.207  19.123  0.00  0.00    +0.000 A 
ATOM     10  C   UNL     1       6.368   4.995  18.108  0.00  0.00    +0.000 A 
ATOM     11  C   UNL     1       6.147   5.448  16.828  0.00  0.00    +0.000 A 
ATOM     12  C   UNL     1       5.013   6.157  16.482  0.00  0.00    +0.000 A 
ATOM     13  C   UNL     1       4.094   6.451  17.495  0.00  0.00    +0.000 A 
ATOM     14  N   UNL     1       2.946   7.234  17.223  0.00  0.00    +0.000 N 
ATOM     15  O   UNL     1       7.173   5.134  15.989  0.00  0.00    +0.000 OA
ATOM     16  C   UNL     1       8.113   4.556  16.920  0.00  0.00    +0.000 C 
ATOM     17  O   UNL     1       7.557   4.344  18.232  0.00  0.00    +0.000 OA
ATOM     18  H   UNL     1       2.893   7.691  16.320  0.00  0.00    +0.000 HD
ENDROOT
BRANCH   7  19
ATOM     19  C   UNL     1       2.462   4.940  20.210  0.00  0.00    +0.000 A 
ATOM     20  C   UNL     1       2.365   4.452  21.522  0.00  0.00    +0.000 A 
ATOM     21  C   UNL     1       1.648   3.282  21.790  0.00  0.00    +0.000 A 
ATOM     22  C   UNL     1       1.018   2.589  20.757  0.00  0.00    +0.000 A 
ATOM     23  C   UNL     1       1.102   3.068  19.452  0.00  0.00    +0.000 A 
ATOM     24 CL   UNL     1       0.322   2.226  18.173  0.00  0.00    +0.000 Cl
ATOM     25  C   UNL     1       1.817   4.232  19.177  0.00  0.00    +0.000 A 
ENDBRANCH   7  19
TORSDOF 1
ENDMDL
MODEL 6
REMARK VINA RESULT:      -8.4      3.187      6.277
REMARK  Name = 
REMARK  1 active torsions:
REMARK  status: ('A' for Active; 'I' for Inactive)
REMARK    1  A    between atoms: C_7  and  C_8
REMARK                            x       y       z     vdW  Elec       q    Type
REMARK                         _______ _______ _______ _____ _____    ______ ____
ROOT
ATOM      1  O   UNL     1       0.195   3.470  19.832  0.00  0.00    +0.000 OA
ATOM      2  C   UNL     1       1.333   3.208  20.185  0.00  0.00    +0.000 C 
ATOM      3  C   UNL     1       1.716   2.133  21.164  0.00  0.00    +0.000 C 
ATOM      4  C   UNL     1       3.220   2.354  21.338  0.00  0.00    +0.000 C 
ATOM      5  C   UNL     1       3.575   3.303  20.241  0.00  0.00    +0.000 C 
ATOM      6  C   UNL     1       2.520   3.851  19.632  0.00  0.00    +0.000 C 
ATOM      7  C   UNL     1       2.612   4.845  18.534  0.00  0.00    +0.000 C 
ATOM      8  C   UNL     1       4.011   4.812  17.892  0.00  0.00    +0.000 A 
ATOM      9  C   UNL     1       4.214   5.386  16.627  0.00  0.00    +0.000 A 
ATOM     10  C   UNL     1       5.484   5.339  16.105  0.00  0.00    +0.000 A 
ATOM     11  C   UNL     1       6.538   4.789  16.797  0.00  0.00    +0.000 A 
ATOM     12  C   UNL     1       6.387   4.237  18.054  0.00  0.00    +0.000 A 
ATOM     13  C   UNL     1       5.100   4.206  18.603  0.00  0.00    +0.000 A 
ATOM     14  N   UNL     1       4.863   3.592  19.856  0.00  0.00    +0.000 N 
ATOM     15  O   UNL     1       7.699   4.841  16.087  0.00  0.00    +0.000 OA
ATOM     16  C   UNL     1       7.222   5.360  14.829  0.00  0.00    +0.000 C 
ATOM     17  O   UNL     1       5.850   5.801  14.878  0.00  0.00    +0.000 OA
ATOM     18  H   UNL     1       5.619   3.053  20.264  0.00  0.00    +0.000 HD
ENDROOT
BRANCH   7  19
ATOM     19  C   UNL     1       2.278   6.249  19.032  0.00  0.00    +0.000 A 
ATOM     20  C   UNL     1       1.931   6.463  20.375  0.00  0.00    +0.000 A 
ATOM     21  C   UNL     1       1.610   7.747  20.826  0.00  0.00    +0.000 A 
ATOM     22  C   UNL     1       1.635   8.830  19.947  0.00  0.00    +0.000 A 
ATOM     23  C   UNL     1       1.984   8.629  18.614  0.00  0.00    +0.000 A 
ATOM     24 CL   UNL     1       2.025   9.959  17.524  0.00  0.00    +0.000 Cl
ATOM     25  C   UNL     1       2.302   7.353  18.156  0.00  0.00    +0.000 A 
ENDBRANCH   7  19
TORSDOF 1
ENDMDL
MODEL 7
REMARK VINA RESULT:      -8.2      9.028     11.308
REMARK  Name = 
REMARK  1 active torsions:
REMARK  status: ('A' for Active; 'I' for Inactive)
REMARK    1  A    between atoms: C_7  and  C_8
REMARK                            x       y       z     vdW  Elec       q    Type
REMARK                         _______ _______ _______ _____ _____    ______ ____
ROOT
ATOM      1  O   UNL     1      11.737  13.679  16.590  0.00  0.00    +0.000 OA
ATOM      2  C   UNL     1      11.454  14.709  17.182  0.00  0.00    +0.000 C 
ATOM      3  C   UNL     1      12.333  15.924  17.282  0.00  0.00    +0.000 C 
ATOM      4  C   UNL     1      11.554  16.827  18.243  0.00  0.00    +0.000 C 
ATOM      5  C   UNL     1      10.214  16.177  18.340  0.00  0.00    +0.000 C 
ATOM      6  C   UNL     1      10.162  14.950  17.814  0.00  0.00    +0.000 C 
ATOM      7  C   UNL     1       8.953  14.089  17.814  0.00  0.00    +0.000 C 
ATOM      8  C   UNL     1       7.691  14.934  18.065  0.00  0.00    +0.000 A 
ATOM      9  C   UNL     1       6.426  14.412  17.751  0.00  0.00    +0.000 A 
ATOM     10  C   UNL     1       5.331  15.202  18.004  0.00  0.00    +0.000 A 
ATOM     11  C   UNL     1       5.448  16.447  18.581  0.00  0.00    +0.000 A 
ATOM     12  C   UNL     1       6.670  16.987  18.929  0.00  0.00    +0.000 A 
ATOM     13  C   UNL     1       7.818  16.245  18.634  0.00  0.00    +0.000 A 
ATOM     14  N   UNL     1       9.106  16.770  18.900  0.00  0.00    +0.000 N 
ATOM     15  O   UNL     1       4.239  17.056  18.731  0.00  0.00    +0.000 OA
ATOM     16  C   UNL     1       3.377  16.111  18.062  0.00  0.00    +0.000 C 
ATOM     17  O   UNL     1       4.040  14.878  17.721  0.00  0.00    +0.000 OA
ATOM     18  H   UNL     1       9.168  17.746  19.167  0.00  0.00    +0.000 HD
ENDROOT
BRANCH   7  19
ATOM     19  C   UNL     1       9.072  12.973  18.849  0.00  0.00    +0.000 A 
ATOM     20  C   UNL     1       9.285  11.647  18.442  0.00  0.00    +0.000 A 
ATOM     21  C   UNL     1       9.378  10.624  19.390  0.00  0.00    +0.000 A 
ATOM     22  C   UNL     1       9.264  10.910  20.751  0.00  0.00    +0.000 A 
ATOM     23  C   UNL     1       9.059  12.224  21.165  0.00  0.00    +0.000 A 
ATOM     24 CL   UNL     1       8.925  12.588  22.840  0.00  0.00    +0.000 Cl
ATOM     25  C   UNL     1       8.963  13.248  20.226  0.00  0.00    +0.000 A 
ENDBRANCH   7  19
TORSDOF 1
ENDMDL
MODEL 8
REMARK VINA RESULT:      -7.8     11.535     12.679
REMARK  Name = 
REMARK  1 active torsions:
REMARK  status: ('A' for Active; 'I' for Inactive)
REMARK    1  A    between atoms: C_7  and  C_8
REMARK                            x       y       z     vdW  Elec       q    Type
REMARK                         _______ _______ _______ _____ _____    ______ ____
ROOT
ATOM      1  O   UNL     1      -0.103  14.869  23.251  0.00  0.00    +0.000 OA
ATOM      2  C   UNL     1      -1.206  14.665  23.733  0.00  0.00    +0.000 C 
ATOM      3  C   UNL     1      -1.745  15.311  24.978  0.00  0.00    +0.000 C 
ATOM      4  C   UNL     1      -3.077  14.585  25.187  0.00  0.00    +0.000 C 
ATOM      5  C   UNL     1      -3.288  13.845  23.908  0.00  0.00    +0.000 C 
ATOM      6  C   UNL     1      -2.217  13.816  23.110  0.00  0.00    +0.000 C 
ATOM      7  C   UNL     1      -2.166  13.119  21.802  0.00  0.00    +0.000 C 
ATOM      8  C   UNL     1      -3.589  12.844  21.282  0.00  0.00    +0.000 A 
ATOM      9  C   UNL     1      -3.791  12.535  19.928  0.00  0.00    +0.000 A 
ATOM     10  C   UNL     1      -5.079  12.287  19.518  0.00  0.00    +0.000 A 
ATOM     11  C   UNL     1      -6.139  12.299  20.396  0.00  0.00    +0.000 A 
ATOM     12  C   UNL     1      -5.981  12.573  21.740  0.00  0.00    +0.000 A 
ATOM     13  C   UNL     1      -4.696  12.891  22.193  0.00  0.00    +0.000 A 
ATOM     14  N   UNL     1      -4.475  13.251  23.545  0.00  0.00    +0.000 N 
ATOM     15  O   UNL     1      -7.322  12.037  19.773  0.00  0.00    +0.000 OA
ATOM     16  C   UNL     1      -6.897  11.996  18.395  0.00  0.00    +0.000 C 
ATOM     17  O   UNL     1      -5.464  12.020  18.240  0.00  0.00    +0.000 OA
ATOM     18  H   UNL     1      -5.289  13.413  24.126  0.00  0.00    +0.000 HD
ENDROOT
BRANCH   7  19
ATOM     19  C   UNL     1      -1.365  11.823  21.898  0.00  0.00    +0.000 A 
ATOM     20  C   UNL     1      -1.355  11.080  23.088  0.00  0.00    +0.000 A 
ATOM     21  C   UNL     1      -0.608   9.901  23.180  0.00  0.00    +0.000 A 
ATOM     22  C   UNL     1       0.133   9.450  22.088  0.00  0.00    +0.000 A 
ATOM     23  C   UNL     1       0.125  10.176  20.900  0.00  0.00    +0.000 A 
ATOM     24 CL   UNL     1       1.029   9.624  19.546  0.00  0.00    +0.000 Cl
ATOM     25  C   UNL     1      -0.614  11.353  20.802  0.00  0.00    +0.000 A 
ENDBRANCH   7  19
TORSDOF 1
ENDMDL
MODEL 9
REMARK VINA RESULT:      -7.8      9.467     10.816
REMARK  Name = 
REMARK  1 active torsions:
REMARK  status: ('A' for Active; 'I' for Inactive)
REMARK    1  A    between atoms: C_7  and  C_8
REMARK                            x       y       z     vdW  Elec       q    Type
REMARK                         _______ _______ _______ _____ _____    ______ ____
ROOT
ATOM      1  O   UNL     1      -1.391  11.739  23.550  0.00  0.00    +0.000 OA
ATOM      2  C   UNL     1      -0.802  10.970  22.807  0.00  0.00    +0.000 C 
ATOM      3  C   UNL     1       0.009   9.783  23.248  0.00  0.00    +0.000 C 
ATOM      4  C   UNL     1       0.625   9.288  21.936  0.00  0.00    +0.000 C 
ATOM      5  C   UNL     1      -0.123  10.036  20.883  0.00  0.00    +0.000 C 
ATOM      6  C   UNL     1      -0.873  11.037  21.351  0.00  0.00    +0.000 C 
ATOM      7  C   UNL     1      -1.684  11.944  20.502  0.00  0.00    +0.000 C 
ATOM      8  C   UNL     1      -1.916  11.319  19.114  0.00  0.00    +0.000 A 
ATOM      9  C   UNL     1      -2.937  11.812  18.287  0.00  0.00    +0.000 A 
ATOM     10  C   UNL     1      -3.095  11.225  17.054  0.00  0.00    +0.000 A 
ATOM     11  C   UNL     1      -2.266  10.218  16.614  0.00  0.00    +0.000 A 
ATOM     12  C   UNL     1      -1.234   9.722  17.385  0.00  0.00    +0.000 A 
ATOM     13  C   UNL     1      -1.072  10.246  18.673  0.00  0.00    +0.000 A 
ATOM     14  N   UNL     1      -0.079   9.733  19.541  0.00  0.00    +0.000 N 
ATOM     15  O   UNL     1      -2.610   9.781  15.371  0.00  0.00    +0.000 OA
ATOM     16  C   UNL     1      -3.821  10.532  15.146  0.00  0.00    +0.000 C 
ATOM     17  O   UNL     1      -4.058  11.542  16.147  0.00  0.00    +0.000 OA
ATOM     18  H   UNL     1       0.403   8.888  19.256  0.00  0.00    +0.000 HD
ENDROOT
BRANCH   7  19
ATOM     19  C   UNL     1      -1.025  13.315  20.375  0.00  0.00    +0.000 A 
ATOM     20  C   UNL     1      -1.570  14.430  21.030  0.00  0.00    +0.000 A 
ATOM     21  C   UNL     1      -0.975  15.688  20.899  0.00  0.00    +0.000 A 
ATOM     22  C   UNL     1       0.171  15.848  20.120  0.00  0.00    +0.000 A 
ATOM     23  C   UNL     1       0.724  14.747  19.471  0.00  0.00    +0.000 A 
ATOM     24 CL   UNL     1       2.141  14.933  18.515  0.00  0.00    +0.000 Cl
ATOM     25  C   UNL     1       0.135  13.491  19.594  0.00  0.00    +0.000 A 
ENDBRANCH   7  19
TORSDOF 1
ENDMDL
