MODEL 1
REMARK VINA RESULT:      -7.4      0.000      0.000
REMARK  Name = 
REMARK  10 active torsions:
REMARK  status: ('A' for Active; 'I' for Inactive)
REMARK    1  A    between atoms: C_1  and  C_2
REMARK    2  A    between atoms: C_2  and  C_3
REMARK    3  A    between atoms: C_3  and  C_4
REMARK    4  A    between atoms: C_4  and  C_5
REMARK    5  A    between atoms: C_5  and  C_6
REMARK    6  A    between atoms: C_6  and  O_7
REMARK    7  A    between atoms: O_7  and  C_8
REMARK    8  A    between atoms: C_10  and  N_11
REMARK    9  A    between atoms: C_16  and  C_17
REMARK   10  A    between atoms: C_16  and  C_18
REMARK                            x       y       z     vdW  Elec       q    Type
REMARK                         _______ _______ _______ _____ _____    ______ ____
ROOT
ATOM      1  C   UNL     1       3.269   5.385  20.004  0.00  0.00    +0.000 A 
ATOM      2  C   UNL     1       4.224   5.102  19.018  0.00  0.00    +0.000 A 
ATOM      3  C   UNL     1       4.398   5.928  17.899  0.00  0.00    +0.000 A 
ATOM      4  C   UNL     1       3.548   7.026  17.770  0.00  0.00    +0.000 A 
ATOM      5  F   UNL     1       3.577   7.805  16.684  0.00  0.00    +0.000 F 
ATOM      6  C   UNL     1       2.577   7.316  18.718  0.00  0.00    +0.000 A 
ATOM      7  C   UNL     1       2.444   6.506  19.841  0.00  0.00    +0.000 A 
ATOM      8 CL   UNL     1       1.223   6.913  20.989  0.00  0.00    +0.000 Cl
ENDROOT
BRANCH   3   9
ATOM      9  N   UNL     1       5.452   5.670  16.986  0.00  0.00    +0.000 N 
ATOM     10  C   UNL     1       6.663   6.310  16.972  0.00  0.00    +0.000 C 
ATOM     11  O   UNL     1       7.137   7.014  17.853  0.00  0.00    +0.000 OA
ATOM     12  O   UNL     1       7.374   6.066  15.819  0.00  0.00    +0.000 OA
ATOM     13  C   UNL     1       6.578   5.151  15.146  0.00  0.00    +0.000 C 
ATOM     14  C   UNL     1       6.898   4.692  13.920  0.00  0.00    +0.000 C 
ATOM     15  C   UNL     1       8.076   5.242  13.151  0.00  0.00    +0.000 C 
ATOM     16  C   UNL     1       6.152   3.630  13.159  0.00  0.00    +0.000 C 
ATOM     17  C   UNL     1       5.348   4.847  15.897  0.00  0.00    +0.000 C 
ATOM     18  O   UNL     1       4.446   4.136  15.518  0.00  0.00    +0.000 OA
ENDBRANCH   3   9
BRANCH   1  19
ATOM     19  O   UNL     1       3.108   4.614  21.131  0.00  0.00    +0.000 OA
BRANCH  19  20
ATOM     20  C   UNL     1       2.680   3.265  20.907  0.00  0.00    +0.000 C 
BRANCH  20  21
ATOM     21  C   UNL     1       1.159   3.224  20.873  0.00  0.00    +0.000 C 
BRANCH  21  22
ATOM     22  C   UNL     1       0.637   3.110  19.440  0.00  0.00    +0.000 C 
BRANCH  22  23
ATOM     23  C   UNL     1       1.251   1.908  18.717  0.00  0.00    +0.000 C 
BRANCH  23  25
ATOM     24  C   UNL     1       3.622   1.605  17.919  0.00  0.00    +0.000 C 
ATOM     25  C   UNL     1       2.313   2.348  17.709  0.00  0.00    +0.000 C 
ENDBRANCH  23  25
ENDBRANCH  22  23
ENDBRANCH  21  22
ENDBRANCH  20  21
ENDBRANCH  19  20
ENDBRANCH   1  19
TORSDOF 7
ENDMDL
MODEL 2
REMARK VINA RESULT:      -7.4      2.486      4.341
REMARK  Name = 
REMARK  10 active torsions:
REMARK  status: ('A' for Active; 'I' for Inactive)
REMARK    1  A    between atoms: C_1  and  C_2
REMARK    2  A    between atoms: C_2  and  C_3
REMARK    3  A    between atoms: C_3  and  C_4
REMARK    4  A    between atoms: C_4  and  C_5
REMARK    5  A    between atoms: C_5  and  C_6
REMARK    6  A    between atoms: C_6  and  O_7
REMARK    7  A    between atoms: O_7  and  C_8
REMARK    8  A    between atoms: C_10  and  N_11
REMARK    9  A    between atoms: C_16  and  C_17
REMARK   10  A    between atoms: C_16  and  C_18
REMARK                            x       y       z     vdW  Elec       q    Type
REMARK                         _______ _______ _______ _____ _____    ______ ____
ROOT
ATOM      1  C   UNL     1       2.961   6.692  18.862  0.00  0.00    +0.000 A 
ATOM      2  C   UNL     1       4.017   6.563  17.949  0.00  0.00    +0.000 A 
ATOM      3  C   UNL     1       4.805   5.406  17.892  0.00  0.00    +0.000 A 
ATOM      4  C   UNL     1       4.536   4.395  18.813  0.00  0.00    +0.000 A 
ATOM      5  F   UNL     1       5.305   3.304  18.894  0.00  0.00    +0.000 F 
ATOM      6  C   UNL     1       3.513   4.505  19.743  0.00  0.00    +0.000 A 
ATOM      7  C   UNL     1       2.716   5.646  19.761  0.00  0.00    +0.000 A 
ATOM      8 CL   UNL     1       1.457   5.731  20.937  0.00  0.00    +0.000 Cl
ENDROOT
BRANCH   3   9
ATOM      9  N   UNL     1       5.789   5.271  16.878  0.00  0.00    +0.000 N 
ATOM     10  C   UNL     1       6.987   5.935  16.842  0.00  0.00    +0.000 C 
ATOM     11  O   UNL     1       7.518   6.550  17.756  0.00  0.00    +0.000 OA
ATOM     12  O   UNL     1       7.609   5.832  15.620  0.00  0.00    +0.000 OA
ATOM     13  C   UNL     1       6.775   4.977  14.913  0.00  0.00    +0.000 C 
ATOM     14  C   UNL     1       7.006   4.659  13.623  0.00  0.00    +0.000 C 
ATOM     15  C   UNL     1       8.112   5.314  12.832  0.00  0.00    +0.000 C 
ATOM     16  C   UNL     1       6.217   3.669  12.811  0.00  0.00    +0.000 C 
ATOM     17  C   UNL     1       5.612   4.567  15.718  0.00  0.00    +0.000 C 
ATOM     18  O   UNL     1       4.693   3.881  15.333  0.00  0.00    +0.000 OA
ENDBRANCH   3   9
BRANCH   1  19
ATOM     19  O   UNL     1       2.146   7.799  18.911  0.00  0.00    +0.000 OA
BRANCH  19  20
ATOM     20  C   UNL     1       2.155   8.630  17.745  0.00  0.00    +0.000 C 
BRANCH  20  21
ATOM     21  C   UNL     1       1.165   9.771  17.939  0.00  0.00    +0.000 C 
BRANCH  21  22
ATOM     22  C   UNL     1       0.654   9.825  19.379  0.00  0.00    +0.000 C 
BRANCH  22  23
ATOM     23  C   UNL     1      -0.838  10.162  19.429  0.00  0.00    +0.000 C 
BRANCH  23  25
ATOM     24  C   UNL     1      -2.676   9.847  17.732  0.00  0.00    +0.000 C 
ATOM     25  C   UNL     1      -1.367  10.553  18.048  0.00  0.00    +0.000 C 
ENDBRANCH  23  25
ENDBRANCH  22  23
ENDBRANCH  21  22
ENDBRANCH  20  21
ENDBRANCH  19  20
ENDBRANCH   1  19
TORSDOF 7
ENDMDL
MODEL 3
REMARK VINA RESULT:      -7.1      2.265      4.198
REMARK  Name = 
REMARK  10 active torsions:
REMARK  status: ('A' for Active; 'I' for Inactive)
REMARK    1  A    between atoms: C_1  and  C_2
REMARK    2  A    between atoms: C_2  and  C_3
REMARK    3  A    between atoms: C_3  and  C_4
REMARK    4  A    between atoms: C_4  and  C_5
REMARK    5  A    between atoms: C_5  and  C_6
REMARK    6  A    between atoms: C_6  and  O_7
REMARK    7  A    between atoms: O_7  and  C_8
REMARK    8  A    between atoms: C_10  and  N_11
REMARK    9  A    between atoms: C_16  and  C_17
REMARK   10  A    between atoms: C_16  and  C_18
REMARK                            x       y       z     vdW  Elec       q    Type
REMARK                         _______ _______ _______ _____ _____    ______ ____
ROOT
ATOM      1  C   UNL     1       3.051   6.689  18.968  0.00  0.00    +0.000 A 
ATOM      2  C   UNL     1       4.104   6.570  18.050  0.00  0.00    +0.000 A 
ATOM      3  C   UNL     1       4.830   5.380  17.909  0.00  0.00    +0.000 A 
ATOM      4  C   UNL     1       4.501   4.320  18.754  0.00  0.00    +0.000 A 
ATOM      5  F   UNL     1       5.210   3.187  18.757  0.00  0.00    +0.000 F 
ATOM      6  C   UNL     1       3.481   4.418  19.689  0.00  0.00    +0.000 A 
ATOM      7  C   UNL     1       2.746   5.595  19.788  0.00  0.00    +0.000 A 
ATOM      8 CL   UNL     1       1.487   5.662  20.965  0.00  0.00    +0.000 Cl
ENDROOT
BRANCH   3   9
ATOM      9  N   UNL     1       5.810   5.265  16.890  0.00  0.00    +0.000 N 
ATOM     10  C   UNL     1       6.997   5.949  16.852  0.00  0.00    +0.000 C 
ATOM     11  O   UNL     1       7.523   6.567  17.766  0.00  0.00    +0.000 OA
ATOM     12  O   UNL     1       7.615   5.862  15.626  0.00  0.00    +0.000 OA
ATOM     13  C   UNL     1       6.791   4.998  14.919  0.00  0.00    +0.000 C 
ATOM     14  C   UNL     1       7.020   4.691  13.626  0.00  0.00    +0.000 C 
ATOM     15  C   UNL     1       8.112   5.367  12.832  0.00  0.00    +0.000 C 
ATOM     16  C   UNL     1       6.242   3.693  12.812  0.00  0.00    +0.000 C 
ATOM     17  C   UNL     1       5.638   4.565  15.727  0.00  0.00    +0.000 C 
ATOM     18  O   UNL     1       4.729   3.867  15.343  0.00  0.00    +0.000 OA
ENDBRANCH   3   9
BRANCH   1  19
ATOM     19  O   UNL     1       2.297   7.832  19.096  0.00  0.00    +0.000 OA
BRANCH  19  20
ATOM     20  C   UNL     1       1.878   8.442  17.870  0.00  0.00    +0.000 C 
BRANCH  20  21
ATOM     21  C   UNL     1       1.445   9.874  18.148  0.00  0.00    +0.000 C 
BRANCH  21  22
ATOM     22  C   UNL     1      -0.067  10.040  17.987  0.00  0.00    +0.000 C 
BRANCH  22  23
ATOM     23  C   UNL     1      -0.771  10.084  19.345  0.00  0.00    +0.000 C 
BRANCH  23  25
ATOM     24  C   UNL     1       0.067   9.135  21.525  0.00  0.00    +0.000 C 
ATOM     25  C   UNL     1       0.233  10.235  20.489  0.00  0.00    +0.000 C 
ENDBRANCH  23  25
ENDBRANCH  22  23
ENDBRANCH  21  22
ENDBRANCH  20  21
ENDBRANCH  19  20
ENDBRANCH   1  19
TORSDOF 7
ENDMDL
MODEL 4
REMARK VINA RESULT:      -7.0      0.789      1.054
REMARK  Name = 
REMARK  10 active torsions:
REMARK  status: ('A' for Active; 'I' for Inactive)
REMARK    1  A    between atoms: C_1  and  C_2
REMARK    2  A    between atoms: C_2  and  C_3
REMARK    3  A    between atoms: C_3  and  C_4
REMARK    4  A    between atoms: C_4  and  C_5
REMARK    5  A    between atoms: C_5  and  C_6
REMARK    6  A    between atoms: C_6  and  O_7
REMARK    7  A    between atoms: O_7  and  C_8
REMARK    8  A    between atoms: C_10  and  N_11
REMARK    9  A    between atoms: C_16  and  C_17
REMARK   10  A    between atoms: C_16  and  C_18
REMARK                            x       y       z     vdW  Elec       q    Type
REMARK                         _______ _______ _______ _____ _____    ______ ____
ROOT
ATOM      1  C   UNL     1       3.554   5.157  19.827  0.00  0.00    +0.000 A 
ATOM      2  C   UNL     1       4.497   4.919  18.817  0.00  0.00    +0.000 A 
ATOM      3  C   UNL     1       4.643   5.784  17.724  0.00  0.00    +0.000 A 
ATOM      4  C   UNL     1       3.779   6.875  17.645  0.00  0.00    +0.000 A 
ATOM      5  F   UNL     1       3.781   7.690  16.585  0.00  0.00    +0.000 F 
ATOM      6  C   UNL     1       2.819   7.122  18.616  0.00  0.00    +0.000 A 
ATOM      7  C   UNL     1       2.714   6.273  19.714  0.00  0.00    +0.000 A 
ATOM      8 CL   UNL     1       1.507   6.627  20.894  0.00  0.00    +0.000 Cl
ENDROOT
BRANCH   3   9
ATOM      9  N   UNL     1       5.686   5.569  16.786  0.00  0.00    +0.000 N 
ATOM     10  C   UNL     1       6.893   6.218  16.781  0.00  0.00    +0.000 C 
ATOM     11  O   UNL     1       7.375   6.889  17.682  0.00  0.00    +0.000 OA
ATOM     12  O   UNL     1       7.589   6.024  15.610  0.00  0.00    +0.000 OA
ATOM     13  C   UNL     1       6.788   5.131  14.913  0.00  0.00    +0.000 C 
ATOM     14  C   UNL     1       7.094   4.722  13.664  0.00  0.00    +0.000 C 
ATOM     15  C   UNL     1       8.257   5.310  12.901  0.00  0.00    +0.000 C 
ATOM     16  C   UNL     1       6.343   3.686  12.873  0.00  0.00    +0.000 C 
ATOM     17  C   UNL     1       5.571   4.789  15.668  0.00  0.00    +0.000 C 
ATOM     18  O   UNL     1       4.669   4.087  15.274  0.00  0.00    +0.000 OA
ENDBRANCH   3   9
BRANCH   1  19
ATOM     19  O   UNL     1       3.420   4.348  20.930  0.00  0.00    +0.000 OA
BRANCH  19  20
ATOM     20  C   UNL     1       3.832   2.987  20.757  0.00  0.00    +0.000 C 
BRANCH  20  21
ATOM     21  C   UNL     1       2.605   2.123  20.499  0.00  0.00    +0.000 C 
BRANCH  21  22
ATOM     22  C   UNL     1       1.332   2.798  21.010  0.00  0.00    +0.000 C 
BRANCH  22  23
ATOM     23  C   UNL     1       0.443   3.261  19.853  0.00  0.00    +0.000 C 
BRANCH  23  25
ATOM     24  C   UNL     1       1.215   3.903  17.541  0.00  0.00    +0.000 C 
ATOM     25  C   UNL     1       0.971   2.757  18.509  0.00  0.00    +0.000 C 
ENDBRANCH  23  25
ENDBRANCH  22  23
ENDBRANCH  21  22
ENDBRANCH  20  21
ENDBRANCH  19  20
ENDBRANCH   1  19
TORSDOF 7
ENDMDL
MODEL 5
REMARK VINA RESULT:      -6.9      2.463      4.597
REMARK  Name = 
REMARK  10 active torsions:
REMARK  status: ('A' for Active; 'I' for Inactive)
REMARK    1  A    between atoms: C_1  and  C_2
REMARK    2  A    between atoms: C_2  and  C_3
REMARK    3  A    between atoms: C_3  and  C_4
REMARK    4  A    between atoms: C_4  and  C_5
REMARK    5  A    between atoms: C_5  and  C_6
REMARK    6  A    between atoms: C_6  and  O_7
REMARK    7  A    between atoms: O_7  and  C_8
REMARK    8  A    between atoms: C_10  and  N_11
REMARK    9  A    between atoms: C_16  and  C_17
REMARK   10  A    between atoms: C_16  and  C_18
REMARK                            x       y       z     vdW  Elec       q    Type
REMARK                         _______ _______ _______ _____ _____    ______ ____
ROOT
ATOM      1  C   UNL     1       2.976   6.597  18.895  0.00  0.00    +0.000 A 
ATOM      2  C   UNL     1       4.039   6.510  17.985  0.00  0.00    +0.000 A 
ATOM      3  C   UNL     1       4.849   5.369  17.903  0.00  0.00    +0.000 A 
ATOM      4  C   UNL     1       4.594   4.330  18.797  0.00  0.00    +0.000 A 
ATOM      5  F   UNL     1       5.383   3.253  18.855  0.00  0.00    +0.000 F 
ATOM      6  C   UNL     1       3.565   4.399  19.726  0.00  0.00    +0.000 A 
ATOM      7  C   UNL     1       2.747   5.524  19.768  0.00  0.00    +0.000 A 
ATOM      8 CL   UNL     1       1.481   5.557  20.939  0.00  0.00    +0.000 Cl
ENDROOT
BRANCH   3   9
ATOM      9  N   UNL     1       5.839   5.277  16.891  0.00  0.00    +0.000 N 
ATOM     10  C   UNL     1       7.016   5.978  16.868  0.00  0.00    +0.000 C 
ATOM     11  O   UNL     1       7.526   6.597  17.791  0.00  0.00    +0.000 OA
ATOM     12  O   UNL     1       7.645   5.910  15.646  0.00  0.00    +0.000 OA
ATOM     13  C   UNL     1       6.840   5.039  14.926  0.00  0.00    +0.000 C 
ATOM     14  C   UNL     1       7.084   4.744  13.633  0.00  0.00    +0.000 C 
ATOM     15  C   UNL     1       8.172   5.443  12.853  0.00  0.00    +0.000 C 
ATOM     16  C   UNL     1       6.328   3.741  12.805  0.00  0.00    +0.000 C 
ATOM     17  C   UNL     1       5.687   4.583  15.721  0.00  0.00    +0.000 C 
ATOM     18  O   UNL     1       4.791   3.874  15.325  0.00  0.00    +0.000 OA
ENDBRANCH   3   9
BRANCH   1  19
ATOM     19  O   UNL     1       2.141   7.687  18.968  0.00  0.00    +0.000 OA
BRANCH  19  20
ATOM     20  C   UNL     1       2.113   8.527  17.808  0.00  0.00    +0.000 C 
BRANCH  20  21
ATOM     21  C   UNL     1       1.089   9.634  18.020  0.00  0.00    +0.000 C 
BRANCH  21  22
ATOM     22  C   UNL     1       0.754   9.806  19.502  0.00  0.00    +0.000 C 
BRANCH  22  23
ATOM     23  C   UNL     1       0.733  11.283  19.902  0.00  0.00    +0.000 C 
BRANCH  23  25
ATOM     24  C   UNL     1       2.198  12.981  18.752  0.00  0.00    +0.000 C 
ATOM     25  C   UNL     1       0.901  12.191  18.684  0.00  0.00    +0.000 C 
ENDBRANCH  23  25
ENDBRANCH  22  23
ENDBRANCH  21  22
ENDBRANCH  20  21
ENDBRANCH  19  20
ENDBRANCH   1  19
TORSDOF 7
ENDMDL
MODEL 6
REMARK VINA RESULT:      -6.8      3.464      7.634
REMARK  Name = 
REMARK  10 active torsions:
REMARK  status: ('A' for Active; 'I' for Inactive)
REMARK    1  A    between atoms: C_1  and  C_2
REMARK    2  A    between atoms: C_2  and  C_3
REMARK    3  A    between atoms: C_3  and  C_4
REMARK    4  A    between atoms: C_4  and  C_5
REMARK    5  A    between atoms: C_5  and  C_6
REMARK    6  A    between atoms: C_6  and  O_7
REMARK    7  A    between atoms: O_7  and  C_8
REMARK    8  A    between atoms: C_10  and  N_11
REMARK    9  A    between atoms: C_16  and  C_17
REMARK   10  A    between atoms: C_16  and  C_18
REMARK                            x       y       z     vdW  Elec       q    Type
REMARK                         _______ _______ _______ _____ _____    ______ ____
ROOT
ATOM      1  C   UNL     1       5.461   5.319  17.317  0.00  0.00    +0.000 A 
ATOM      2  C   UNL     1       4.679   6.025  18.243  0.00  0.00    +0.000 A 
ATOM      3  C   UNL     1       3.345   5.681  18.497  0.00  0.00    +0.000 A 
ATOM      4  C   UNL     1       2.796   4.635  17.757  0.00  0.00    +0.000 A 
ATOM      5  F   UNL     1       1.503   4.311  17.863  0.00  0.00    +0.000 F 
ATOM      6  C   UNL     1       3.538   3.935  16.816  0.00  0.00    +0.000 A 
ATOM      7  C   UNL     1       4.873   4.266  16.604  0.00  0.00    +0.000 A 
ATOM      8 CL   UNL     1       5.750   3.362  15.425  0.00  0.00    +0.000 Cl
ENDROOT
BRANCH   3   9
ATOM      9  N   UNL     1       2.626   6.347  19.523  0.00  0.00    +0.000 N 
ATOM     10  C   UNL     1       2.116   5.751  20.647  0.00  0.00    +0.000 C 
ATOM     11  O   UNL     1       2.383   4.640  21.081  0.00  0.00    +0.000 OA
ATOM     12  O   UNL     1       1.233   6.565  21.318  0.00  0.00    +0.000 OA
ATOM     13  C   UNL     1       1.291   7.752  20.601  0.00  0.00    +0.000 C 
ATOM     14  C   UNL     1       0.514   8.810  20.908  0.00  0.00    +0.000 C 
ATOM     15  C   UNL     1      -0.558   8.725  21.967  0.00  0.00    +0.000 C 
ATOM     16  C   UNL     1       0.579  10.163  20.253  0.00  0.00    +0.000 C 
ATOM     17  C   UNL     1       2.216   7.650  19.459  0.00  0.00    +0.000 C 
ATOM     18  O   UNL     1       2.410   8.508  18.630  0.00  0.00    +0.000 OA
ENDBRANCH   3   9
BRANCH   1  19
ATOM     19  O   UNL     1       6.783   5.609  17.080  0.00  0.00    +0.000 OA
BRANCH  19  20
ATOM     20  C   UNL     1       7.077   6.980  16.788  0.00  0.00    +0.000 C 
BRANCH  20  21
ATOM     21  C   UNL     1       7.850   7.583  17.953  0.00  0.00    +0.000 C 
BRANCH  21  22
ATOM     22  C   UNL     1       8.083   9.081  17.750  0.00  0.00    +0.000 C 
BRANCH  22  23
ATOM     23  C   UNL     1       8.991   9.657  18.840  0.00  0.00    +0.000 C 
BRANCH  23  25
ATOM     24  C   UNL     1      10.548  11.381  17.862  0.00  0.00    +0.000 C 
ATOM     25  C   UNL     1       9.250  11.148  18.617  0.00  0.00    +0.000 C 
ENDBRANCH  23  25
ENDBRANCH  22  23
ENDBRANCH  21  22
ENDBRANCH  20  21
ENDBRANCH  19  20
ENDBRANCH   1  19
TORSDOF 7
ENDMDL
MODEL 7
REMARK VINA RESULT:      -6.7      2.802      4.215
REMARK  Name = 
REMARK  10 active torsions:
REMARK  status: ('A' for Active; 'I' for Inactive)
REMARK    1  A    between atoms: C_1  and  C_2
REMARK    2  A    between atoms: C_2  and  C_3
REMARK    3  A    between atoms: C_3  and  C_4
REMARK    4  A    between atoms: C_4  and  C_5
REMARK    5  A    between atoms: C_5  and  C_6
REMARK    6  A    between atoms: C_6  and  O_7
REMARK    7  A    between atoms: O_7  and  C_8
REMARK    8  A    between atoms: C_10  and  N_11
REMARK    9  A    between atoms: C_16  and  C_17
REMARK   10  A    between atoms: C_16  and  C_18
REMARK                            x       y       z     vdW  Elec       q    Type
REMARK                         _______ _______ _______ _____ _____    ______ ____
ROOT
ATOM      1  C   UNL     1       3.540   5.154  18.019  0.00  0.00    +0.000 A 
ATOM      2  C   UNL     1       4.660   5.933  18.342  0.00  0.00    +0.000 A 
ATOM      3  C   UNL     1       5.933   5.642  17.835  0.00  0.00    +0.000 A 
ATOM      4  C   UNL     1       6.064   4.513  17.028  0.00  0.00    +0.000 A 
ATOM      5  F   UNL     1       7.259   4.107  16.588  0.00  0.00    +0.000 F 
ATOM      6  C   UNL     1       4.978   3.709  16.711  0.00  0.00    +0.000 A 
ATOM      7  C   UNL     1       3.714   4.035  17.193  0.00  0.00    +0.000 A 
ATOM      8 CL   UNL     1       2.399   3.004  16.768  0.00  0.00    +0.000 Cl
ENDROOT
BRANCH   3   9
ATOM      9  N   UNL     1       7.015   6.522  18.094  0.00  0.00    +0.000 N 
ATOM     10  C   UNL     1       8.025   6.293  18.992  0.00  0.00    +0.000 C 
ATOM     11  O   UNL     1       8.308   5.232  19.531  0.00  0.00    +0.000 OA
ATOM     12  O   UNL     1       8.771   7.421  19.244  0.00  0.00    +0.000 OA
ATOM     13  C   UNL     1       8.230   8.357  18.374  0.00  0.00    +0.000 C 
ATOM     14  C   UNL     1       8.653   9.637  18.349  0.00  0.00    +0.000 C 
ATOM     15  C   UNL     1       9.650  10.161  19.354  0.00  0.00    +0.000 C 
ATOM     16  C   UNL     1       8.198  10.691  17.377  0.00  0.00    +0.000 C 
ATOM     17  C   UNL     1       7.120   7.790  17.590  0.00  0.00    +0.000 C 
ATOM     18  O   UNL     1       6.427   8.396  16.806  0.00  0.00    +0.000 OA
ENDBRANCH   3   9
BRANCH   1  19
ATOM     19  O   UNL     1       2.273   5.442  18.469  0.00  0.00    +0.000 OA
BRANCH  19  20
ATOM     20  C   UNL     1       2.200   6.110  19.734  0.00  0.00    +0.000 C 
BRANCH  20  21
ATOM     21  C   UNL     1       1.866   5.092  20.816  0.00  0.00    +0.000 C 
BRANCH  21  22
ATOM     22  C   UNL     1       0.945   3.994  20.282  0.00  0.00    +0.000 C 
BRANCH  22  23
ATOM     23  C   UNL     1       1.600   2.615  20.393  0.00  0.00    +0.000 C 
BRANCH  23  25
ATOM     24  C   UNL     1       4.078   2.211  20.174  0.00  0.00    +0.000 C 
ATOM     25  C   UNL     1       2.962   2.699  21.083  0.00  0.00    +0.000 C 
ENDBRANCH  23  25
ENDBRANCH  22  23
ENDBRANCH  21  22
ENDBRANCH  20  21
ENDBRANCH  19  20
ENDBRANCH   1  19
TORSDOF 7
ENDMDL
MODEL 8
REMARK VINA RESULT:      -6.5      3.245      6.584
REMARK  Name = 
REMARK  10 active torsions:
REMARK  status: ('A' for Active; 'I' for Inactive)
REMARK    1  A    between atoms: C_1  and  C_2
REMARK    2  A    between atoms: C_2  and  C_3
REMARK    3  A    between atoms: C_3  and  C_4
REMARK    4  A    between atoms: C_4  and  C_5
REMARK    5  A    between atoms: C_5  and  C_6
REMARK    6  A    between atoms: C_6  and  O_7
REMARK    7  A    between atoms: O_7  and  C_8
REMARK    8  A    between atoms: C_10  and  N_11
REMARK    9  A    between atoms: C_16  and  C_17
REMARK   10  A    between atoms: C_16  and  C_18
REMARK                            x       y       z     vdW  Elec       q    Type
REMARK                         _______ _______ _______ _____ _____    ______ ____
ROOT
ATOM      1  C   UNL     1       4.633   4.916  19.031  0.00  0.00    +0.000 A 
ATOM      2  C   UNL     1       3.968   6.133  19.238  0.00  0.00    +0.000 A 
ATOM      3  C   UNL     1       2.667   6.352  18.767  0.00  0.00    +0.000 A 
ATOM      4  C   UNL     1       2.065   5.330  18.034  0.00  0.00    +0.000 A 
ATOM      5  F   UNL     1       0.868   5.496  17.461  0.00  0.00    +0.000 F 
ATOM      6  C   UNL     1       2.708   4.125  17.791  0.00  0.00    +0.000 A 
ATOM      7  C   UNL     1       3.986   3.911  18.300  0.00  0.00    +0.000 A 
ATOM      8 CL   UNL     1       4.740   2.395  17.971  0.00  0.00    +0.000 Cl
ENDROOT
BRANCH   3   9
ATOM      9  N   UNL     1       1.988   7.553  19.097  0.00  0.00    +0.000 N 
ATOM     10  C   UNL     1       1.971   8.690  18.332  0.00  0.00    +0.000 C 
ATOM     11  O   UNL     1       2.311   8.799  17.163  0.00  0.00    +0.000 OA
ATOM     12  O   UNL     1       1.483   9.778  19.018  0.00  0.00    +0.000 OA
ATOM     13  C   UNL     1       1.099   9.236  20.236  0.00  0.00    +0.000 C 
ATOM     14  C   UNL     1       0.613   9.999  21.236  0.00  0.00    +0.000 C 
ATOM     15  C   UNL     1       0.576  11.505  21.137  0.00  0.00    +0.000 C 
ATOM     16  C   UNL     1       0.082   9.489  22.548  0.00  0.00    +0.000 C 
ATOM     17  C   UNL     1       1.378   7.791  20.299  0.00  0.00    +0.000 C 
ATOM     18  O   UNL     1       1.207   7.080  21.261  0.00  0.00    +0.000 OA
ENDBRANCH   3   9
BRANCH   1  19
ATOM     19  O   UNL     1       5.893   4.660  19.518  0.00  0.00    +0.000 OA
BRANCH  19  20
ATOM     20  C   UNL     1       6.955   5.415  18.925  0.00  0.00    +0.000 C 
BRANCH  20  21
ATOM     21  C   UNL     1       7.709   4.528  17.943  0.00  0.00    +0.000 C 
BRANCH  21  22
ATOM     22  C   UNL     1       7.455   4.958  16.497  0.00  0.00    +0.000 C 
BRANCH  22  23
ATOM     23  C   UNL     1       6.581   6.213  16.433  0.00  0.00    +0.000 C 
BRANCH  23  25
ATOM     24  C   UNL     1       5.366   4.615  14.908  0.00  0.00    +0.000 C 
ATOM     25  C   UNL     1       5.332   5.977  15.583  0.00  0.00    +0.000 C 
ENDBRANCH  23  25
ENDBRANCH  22  23
ENDBRANCH  21  22
ENDBRANCH  20  21
ENDBRANCH  19  20
ENDBRANCH   1  19
TORSDOF 7
ENDMDL
MODEL 9
REMARK VINA RESULT:      -6.4      3.447      7.044
REMARK  Name = 
REMARK  10 active torsions:
REMARK  status: ('A' for Active; 'I' for Inactive)
REMARK    1  A    between atoms: C_1  and  C_2
REMARK    2  A    between atoms: C_2  and  C_3
REMARK    3  A    between atoms: C_3  and  C_4
REMARK    4  A    between atoms: C_4  and  C_5
REMARK    5  A    between atoms: C_5  and  C_6
REMARK    6  A    between atoms: C_6  and  O_7
REMARK    7  A    between atoms: O_7  and  C_8
REMARK    8  A    between atoms: C_10  and  N_11
REMARK    9  A    between atoms: C_16  and  C_17
REMARK   10  A    between atoms: C_16  and  C_18
REMARK                            x       y       z     vdW  Elec       q    Type
REMARK                         _______ _______ _______ _____ _____    ______ ____
ROOT
ATOM      1  C   UNL     1       4.557   4.855  19.158  0.00  0.00    +0.000 A 
ATOM      2  C   UNL     1       3.922   6.090  19.347  0.00  0.00    +0.000 A 
ATOM      3  C   UNL     1       2.665   6.367  18.793  0.00  0.00    +0.000 A 
ATOM      4  C   UNL     1       2.080   5.384  17.997  0.00  0.00    +0.000 A 
ATOM      5  F   UNL     1       0.932   5.606  17.348  0.00  0.00    +0.000 F 
ATOM      6  C   UNL     1       2.696   4.161  17.772  0.00  0.00    +0.000 A 
ATOM      7  C   UNL     1       3.927   3.889  18.361  0.00  0.00    +0.000 A 
ATOM      8 CL   UNL     1       4.647   2.353  18.051  0.00  0.00    +0.000 Cl
ENDROOT
BRANCH   3   9
ATOM      9  N   UNL     1       2.008   7.586  19.104  0.00  0.00    +0.000 N 
ATOM     10  C   UNL     1       2.021   8.714  18.325  0.00  0.00    +0.000 C 
ATOM     11  O   UNL     1       2.372   8.802  17.158  0.00  0.00    +0.000 OA
ATOM     12  O   UNL     1       1.549   9.820  18.995  0.00  0.00    +0.000 OA
ATOM     13  C   UNL     1       1.145   9.300  20.216  0.00  0.00    +0.000 C 
ATOM     14  C   UNL     1       0.666  10.084  21.203  0.00  0.00    +0.000 C 
ATOM     15  C   UNL     1       0.660  11.589  21.085  0.00  0.00    +0.000 C 
ATOM     16  C   UNL     1       0.115   9.601  22.516  0.00  0.00    +0.000 C 
ATOM     17  C   UNL     1       1.394   7.850  20.297  0.00  0.00    +0.000 C 
ATOM     18  O   UNL     1       1.201   7.154  21.267  0.00  0.00    +0.000 OA
ENDBRANCH   3   9
BRANCH   1  19
ATOM     19  O   UNL     1       5.770   4.543  19.724  0.00  0.00    +0.000 OA
BRANCH  19  20
ATOM     20  C   UNL     1       6.833   5.468  19.468  0.00  0.00    +0.000 C 
BRANCH  20  21
ATOM     21  C   UNL     1       7.147   5.465  17.979  0.00  0.00    +0.000 C 
BRANCH  21  22
ATOM     22  C   UNL     1       7.288   6.889  17.438  0.00  0.00    +0.000 C 
BRANCH  22  23
ATOM     23  C   UNL     1       8.260   7.714  18.284  0.00  0.00    +0.000 C 
BRANCH  23  25
ATOM     24  C   UNL     1       8.982  10.048  18.904  0.00  0.00    +0.000 C 
ATOM     25  C   UNL     1       8.186   9.199  17.926  0.00  0.00    +0.000 C 
ENDBRANCH  23  25
ENDBRANCH  22  23
ENDBRANCH  21  22
ENDBRANCH  20  21
ENDBRANCH  19  20
ENDBRANCH   1  19
TORSDOF 7
ENDMDL
