MODEL 1
REMARK VINA RESULT:      -7.5      0.000      0.000
REMARK  Name = 
REMARK  5 active torsions:
REMARK  status: ('A' for Active; 'I' for Inactive)
REMARK    1  A    between atoms: C_1  and  C_2
REMARK    2  A    between atoms: C_5  and  C_6
REMARK    3  A    between atoms: C_10  and  C_11
REMARK    4  A    between atoms: C_12  and  O_13
REMARK    5  A    between atoms: C_12  and  C_14
REMARK                            x       y       z     vdW  Elec       q    Type
REMARK                         _______ _______ _______ _____ _____    ______ ____
ROOT
ATOM      1  C   UNL     1       5.369   4.056  19.077  0.00  0.00    +0.000 C 
ATOM      2  O   UNL     1       5.870   4.364  20.157  0.00  0.00    +0.000 OA
ATOM      3  N   UNL     1       5.963   4.430  17.881  0.00  0.00    +0.000 N 
ATOM      4  C   UNL     1       7.307   4.974  17.854  0.00  0.00    +0.000 C 
ATOM      5  C   UNL     1       7.310   5.997  16.720  0.00  0.00    +0.000 C 
ATOM      6  C   UNL     1       6.968   7.393  17.250  0.00  0.00    +0.000 C 
ATOM      7  C   UNL     1       6.279   5.428  15.711  0.00  0.00    +0.000 C 
ATOM      8  C   UNL     1       5.286   4.637  16.605  0.00  0.00    +0.000 C 
ENDROOT
BRANCH   1  13
ATOM      9  C   UNL     1       0.566   2.404  18.903  0.00  0.00    +0.000 C 
ATOM     10  C   UNL     1       2.043   2.552  18.926  0.00  0.00    +0.000 A 
ATOM     11  N   UNL     1       2.834   1.479  18.813  0.00  0.00    +0.000 NA
ATOM     12  N   UNL     1       4.074   1.999  18.799  0.00  0.00    +0.000 N 
ATOM     13  C   UNL     1       4.119   3.347  19.037  0.00  0.00    +0.000 A 
ATOM     14  C   UNL     1       2.799   3.746  19.038  0.00  0.00    +0.000 A 
ATOM     15 CL   UNL     1       2.143   5.312  19.066  0.00  0.00    +0.000 Cl
ATOM     16  H   UNL     1       4.861   1.382  18.627  0.00  0.00    +0.000 HD
ENDBRANCH   1  13
BRANCH   7  17
ATOM     17  C   UNL     1       6.942   4.507  14.699  0.00  0.00    +0.000 C 
ATOM     18  C   UNL     1       7.219   4.951  13.280  0.00  0.00    +0.000 C 
ATOM     19  C   UNL     1       6.159   3.921  13.540  0.00  0.00    +0.000 C 
ENDBRANCH   7  17
BRANCH   7  20
ATOM     20  O   UNL     1       5.607   6.478  15.015  0.00  0.00    +0.000 OA
ATOM     21  H   UNL     1       4.896   6.091  14.479  0.00  0.00    +0.000 HD
ENDBRANCH   7  20
TORSDOF 3
ENDMDL
MODEL 2
REMARK VINA RESULT:      -7.2      1.508      1.508
REMARK  Name = 
REMARK  5 active torsions:
REMARK  status: ('A' for Active; 'I' for Inactive)
REMARK    1  A    between atoms: C_1  and  C_2
REMARK    2  A    between atoms: C_5  and  C_6
REMARK    3  A    between atoms: C_10  and  C_11
REMARK    4  A    between atoms: C_12  and  O_13
REMARK    5  A    between atoms: C_12  and  C_14
REMARK                            x       y       z     vdW  Elec       q    Type
REMARK                         _______ _______ _______ _____ _____    ______ ____
ROOT
ATOM      1  C   UNL     1       5.113   4.334  19.153  0.00  0.00    +0.000 C 
ATOM      2  O   UNL     1       5.750   4.549  20.183  0.00  0.00    +0.000 OA
ATOM      3  N   UNL     1       5.697   4.495  17.906  0.00  0.00    +0.000 N 
ATOM      4  C   UNL     1       7.128   4.680  17.771  0.00  0.00    +0.000 C 
ATOM      5  C   UNL     1       7.306   5.622  16.581  0.00  0.00    +0.000 C 
ATOM      6  C   UNL     1       7.362   7.079  17.048  0.00  0.00    +0.000 C 
ATOM      7  C   UNL     1       6.098   5.291  15.668  0.00  0.00    +0.000 C 
ATOM      8  C   UNL     1       5.004   4.814  16.661  0.00  0.00    +0.000 C 
ENDROOT
BRANCH   1  13
ATOM      9  C   UNL     1       0.504   2.194  19.082  0.00  0.00    +0.000 C 
ATOM     10  C   UNL     1       1.684   3.077  19.257  0.00  0.00    +0.000 A 
ATOM     11  N   UNL     1       1.559   4.263  19.865  0.00  0.00    +0.000 NA
ATOM     12  N   UNL     1       2.819   4.732  19.906  0.00  0.00    +0.000 N 
ATOM     13  C   UNL     1       3.726   3.963  19.226  0.00  0.00    +0.000 A 
ATOM     14  C   UNL     1       3.024   2.831  18.867  0.00  0.00    +0.000 A 
ATOM     15 CL   UNL     1       3.588   1.380  18.189  0.00  0.00    +0.000 Cl
ATOM     16  H   UNL     1       3.003   5.593  20.410  0.00  0.00    +0.000 HD
ENDBRANCH   1  13
BRANCH   7  17
ATOM     17  C   UNL     1       6.437   4.190  14.673  0.00  0.00    +0.000 C 
ATOM     18  C   UNL     1       6.919   4.502  13.275  0.00  0.00    +0.000 C 
ATOM     19  C   UNL     1       5.552   3.915  13.474  0.00  0.00    +0.000 C 
ENDBRANCH   7  17
BRANCH   7  20
ATOM     20  O   UNL     1       5.663   6.446  14.951  0.00  0.00    +0.000 OA
ATOM     21  H   UNL     1       6.433   6.858  14.527  0.00  0.00    +0.000 HD
ENDBRANCH   7  20
TORSDOF 3
ENDMDL
MODEL 3
REMARK VINA RESULT:      -7.0      1.816      3.205
REMARK  Name = 
REMARK  5 active torsions:
REMARK  status: ('A' for Active; 'I' for Inactive)
REMARK    1  A    between atoms: C_1  and  C_2
REMARK    2  A    between atoms: C_5  and  C_6
REMARK    3  A    between atoms: C_10  and  C_11
REMARK    4  A    between atoms: C_12  and  O_13
REMARK    5  A    between atoms: C_12  and  C_14
REMARK                            x       y       z     vdW  Elec       q    Type
REMARK                         _______ _______ _______ _____ _____    ______ ____
ROOT
ATOM      1  C   UNL     1       3.077   3.773  17.320  0.00  0.00    +0.000 C 
ATOM      2  O   UNL     1       2.461   3.594  16.272  0.00  0.00    +0.000 OA
ATOM      3  N   UNL     1       4.270   4.479  17.336  0.00  0.00    +0.000 N 
ATOM      4  C   UNL     1       4.705   5.233  16.178  0.00  0.00    +0.000 C 
ATOM      5  C   UNL     1       6.229   5.123  16.169  0.00  0.00    +0.000 C 
ATOM      6  C   UNL     1       6.681   3.934  15.316  0.00  0.00    +0.000 C 
ATOM      7  C   UNL     1       6.597   5.007  17.670  0.00  0.00    +0.000 C 
ATOM      8  C   UNL     1       5.353   4.328  18.303  0.00  0.00    +0.000 C 
ENDROOT
BRANCH   1  13
ATOM      9  C   UNL     1       1.300   2.642  21.946  0.00  0.00    +0.000 C 
ATOM     10  C   UNL     1       1.784   2.635  20.542  0.00  0.00    +0.000 A 
ATOM     11  N   UNL     1       1.818   1.494  19.843  0.00  0.00    +0.000 NA
ATOM     12  N   UNL     1       2.230   1.883  18.623  0.00  0.00    +0.000 N 
ATOM     13  C   UNL     1       2.594   3.201  18.548  0.00  0.00    +0.000 A 
ATOM     14  C   UNL     1       2.231   3.734  19.767  0.00  0.00    +0.000 A 
ATOM     15 CL   UNL     1       2.203   5.354  20.273  0.00  0.00    +0.000 Cl
ATOM     16  H   UNL     1       2.249   1.199  17.873  0.00  0.00    +0.000 HD
ENDBRANCH   1  13
BRANCH   7  17
ATOM     17  C   UNL     1       6.836   6.375  18.292  0.00  0.00    +0.000 C 
ATOM     18  C   UNL     1       7.571   7.469  17.550  0.00  0.00    +0.000 C 
ATOM     19  C   UNL     1       8.221   6.808  18.730  0.00  0.00    +0.000 C 
ENDBRANCH   7  17
BRANCH   7  20
ATOM     20  O   UNL     1       7.762   4.203  17.854  0.00  0.00    +0.000 OA
ATOM     21  H   UNL     1       8.512   4.784  18.062  0.00  0.00    +0.000 HD
ENDBRANCH   7  20
TORSDOF 3
ENDMDL
MODEL 4
REMARK VINA RESULT:      -6.9      2.432      3.439
REMARK  Name = 
REMARK  5 active torsions:
REMARK  status: ('A' for Active; 'I' for Inactive)
REMARK    1  A    between atoms: C_1  and  C_2
REMARK    2  A    between atoms: C_5  and  C_6
REMARK    3  A    between atoms: C_10  and  C_11
REMARK    4  A    between atoms: C_12  and  O_13
REMARK    5  A    between atoms: C_12  and  C_14
REMARK                            x       y       z     vdW  Elec       q    Type
REMARK                         _______ _______ _______ _____ _____    ______ ____
ROOT
ATOM      1  C   UNL     1       3.060   6.057  18.324  0.00  0.00    +0.000 C 
ATOM      2  O   UNL     1       2.302   6.834  17.746  0.00  0.00    +0.000 OA
ATOM      3  N   UNL     1       4.382   5.924  17.929  0.00  0.00    +0.000 N 
ATOM      4  C   UNL     1       4.980   6.860  16.997  0.00  0.00    +0.000 C 
ATOM      5  C   UNL     1       5.966   6.037  16.169  0.00  0.00    +0.000 C 
ATOM      6  C   UNL     1       5.296   5.506  14.899  0.00  0.00    +0.000 C 
ATOM      7  C   UNL     1       6.436   4.934  17.151  0.00  0.00    +0.000 C 
ATOM      8  C   UNL     1       5.224   4.744  18.101  0.00  0.00    +0.000 C 
ENDROOT
BRANCH   1  13
ATOM      9  C   UNL     1       1.177   2.491  21.417  0.00  0.00    +0.000 C 
ATOM     10  C   UNL     1       1.789   3.699  20.808  0.00  0.00    +0.000 A 
ATOM     11  N   UNL     1       2.246   4.691  21.582  0.00  0.00    +0.000 NA
ATOM     12  N   UNL     1       2.784   5.555  20.703  0.00  0.00    +0.000 N 
ATOM     13  C   UNL     1       2.569   5.228  19.390  0.00  0.00    +0.000 A 
ATOM     14  C   UNL     1       1.996   3.974  19.433  0.00  0.00    +0.000 A 
ATOM     15 CL   UNL     1       1.667   2.892  18.166  0.00  0.00    +0.000 Cl
ATOM     16  H   UNL     1       3.285   6.364  21.057  0.00  0.00    +0.000 HD
ENDBRANCH   1  13
BRANCH   7  17
ATOM     17  C   UNL     1       7.667   5.371  17.932  0.00  0.00    +0.000 C 
ATOM     18  C   UNL     1       7.589   5.743  19.396  0.00  0.00    +0.000 C 
ATOM     19  C   UNL     1       7.847   6.810  18.372  0.00  0.00    +0.000 C 
ENDBRANCH   7  17
BRANCH   7  20
ATOM     20  O   UNL     1       6.732   3.721  16.459  0.00  0.00    +0.000 OA
ATOM     21  H   UNL     1       7.622   3.790  16.076  0.00  0.00    +0.000 HD
ENDBRANCH   7  20
TORSDOF 3
ENDMDL
MODEL 5
REMARK VINA RESULT:      -6.7      2.526      6.180
REMARK  Name = 
REMARK  5 active torsions:
REMARK  status: ('A' for Active; 'I' for Inactive)
REMARK    1  A    between atoms: C_1  and  C_2
REMARK    2  A    between atoms: C_5  and  C_6
REMARK    3  A    between atoms: C_10  and  C_11
REMARK    4  A    between atoms: C_12  and  O_13
REMARK    5  A    between atoms: C_12  and  C_14
REMARK                            x       y       z     vdW  Elec       q    Type
REMARK                         _______ _______ _______ _____ _____    ______ ____
ROOT
ATOM      1  C   UNL     1       5.199   4.058  17.147  0.00  0.00    +0.000 C 
ATOM      2  O   UNL     1       5.193   3.733  15.961  0.00  0.00    +0.000 OA
ATOM      3  N   UNL     1       4.166   3.688  17.994  0.00  0.00    +0.000 N 
ATOM      4  C   UNL     1       3.179   2.709  17.584  0.00  0.00    +0.000 C 
ATOM      5  C   UNL     1       1.871   3.151  18.236  0.00  0.00    +0.000 C 
ATOM      6  C   UNL     1       1.075   4.057  17.292  0.00  0.00    +0.000 C 
ATOM      7  C   UNL     1       2.330   3.842  19.546  0.00  0.00    +0.000 C 
ATOM      8  C   UNL     1       3.738   4.394  19.198  0.00  0.00    +0.000 C 
ENDROOT
BRANCH   1  13
ATOM      9  C   UNL     1       8.431   7.683  18.644  0.00  0.00    +0.000 C 
ATOM     10  C   UNL     1       7.700   6.418  18.381  0.00  0.00    +0.000 A 
ATOM     11  N   UNL     1       8.138   5.262  18.894  0.00  0.00    +0.000 NA
ATOM     12  N   UNL     1       7.203   4.373  18.514  0.00  0.00    +0.000 N 
ATOM     13  C   UNL     1       6.258   4.881  17.663  0.00  0.00    +0.000 A 
ATOM     14  C   UNL     1       6.512   6.237  17.630  0.00  0.00    +0.000 A 
ATOM     15 CL   UNL     1       5.596   7.491  16.942  0.00  0.00    +0.000 Cl
ATOM     16  H   UNL     1       7.264   3.422  18.863  0.00  0.00    +0.000 HD
ENDBRANCH   1  13
BRANCH   7  17
ATOM     17  C   UNL     1       2.411   2.851  20.698  0.00  0.00    +0.000 C 
ATOM     18  C   UNL     1       1.195   2.485  21.519  0.00  0.00    +0.000 C 
ATOM     19  C   UNL     1       2.286   3.309  22.138  0.00  0.00    +0.000 C 
ENDBRANCH   7  17
BRANCH   7  20
ATOM     20  O   UNL     1       1.445   4.903  19.906  0.00  0.00    +0.000 OA
ATOM     21  H   UNL     1       0.551   4.680  19.599  0.00  0.00    +0.000 HD
ENDBRANCH   7  20
TORSDOF 3
ENDMDL
MODEL 6
REMARK VINA RESULT:      -6.6      2.731      6.288
REMARK  Name = 
REMARK  5 active torsions:
REMARK  status: ('A' for Active; 'I' for Inactive)
REMARK    1  A    between atoms: C_1  and  C_2
REMARK    2  A    between atoms: C_5  and  C_6
REMARK    3  A    between atoms: C_10  and  C_11
REMARK    4  A    between atoms: C_12  and  O_13
REMARK    5  A    between atoms: C_12  and  C_14
REMARK                            x       y       z     vdW  Elec       q    Type
REMARK                         _______ _______ _______ _____ _____    ______ ____
ROOT
ATOM      1  C   UNL     1       5.895   4.695  17.285  0.00  0.00    +0.000 C 
ATOM      2  O   UNL     1       6.195   3.983  16.328  0.00  0.00    +0.000 OA
ATOM      3  N   UNL     1       4.874   4.336  18.151  0.00  0.00    +0.000 N 
ATOM      4  C   UNL     1       4.294   3.008  18.109  0.00  0.00    +0.000 C 
ATOM      5  C   UNL     1       2.819   3.197  18.457  0.00  0.00    +0.000 C 
ATOM      6  C   UNL     1       1.983   3.386  17.188  0.00  0.00    +0.000 C 
ATOM      7  C   UNL     1       2.820   4.422  19.407  0.00  0.00    +0.000 C 
ATOM      8  C   UNL     1       4.055   5.244  18.948  0.00  0.00    +0.000 C 
ENDROOT
BRANCH   1  13
ATOM      9  C   UNL     1       8.728   8.675  18.690  0.00  0.00    +0.000 C 
ATOM     10  C   UNL     1       7.801   7.723  18.027  0.00  0.00    +0.000 A 
ATOM     11  N   UNL     1       7.147   8.078  16.915  0.00  0.00    +0.000 NA
ATOM     12  N   UNL     1       6.480   6.962  16.571  0.00  0.00    +0.000 N 
ATOM     13  C   UNL     1       6.568   5.949  17.489  0.00  0.00    +0.000 A 
ATOM     14  C   UNL     1       7.496   6.393  18.408  0.00  0.00    +0.000 A 
ATOM     15 CL   UNL     1       8.234   5.555  19.688  0.00  0.00    +0.000 Cl
ATOM     16  H   UNL     1       5.970   6.948  15.693  0.00  0.00    +0.000 HD
ENDBRANCH   1  13
BRANCH   7  17
ATOM     17  C   UNL     1       2.968   3.998  20.861  0.00  0.00    +0.000 C 
ATOM     18  C   UNL     1       2.958   2.543  21.270  0.00  0.00    +0.000 C 
ATOM     19  C   UNL     1       1.798   3.423  21.634  0.00  0.00    +0.000 C 
ENDBRANCH   7  17
BRANCH   7  20
ATOM     20  O   UNL     1       1.622   5.185  19.265  0.00  0.00    +0.000 OA
ATOM     21  H   UNL     1       1.153   4.883  18.470  0.00  0.00    +0.000 HD
ENDBRANCH   7  20
TORSDOF 3
ENDMDL
MODEL 7
REMARK VINA RESULT:      -6.6      5.171      7.105
REMARK  Name = 
REMARK  5 active torsions:
REMARK  status: ('A' for Active; 'I' for Inactive)
REMARK    1  A    between atoms: C_1  and  C_2
REMARK    2  A    between atoms: C_5  and  C_6
REMARK    3  A    between atoms: C_10  and  C_11
REMARK    4  A    between atoms: C_12  and  O_13
REMARK    5  A    between atoms: C_12  and  C_14
REMARK                            x       y       z     vdW  Elec       q    Type
REMARK                         _______ _______ _______ _____ _____    ______ ____
ROOT
ATOM      1  C   UNL     1       2.001   8.015  19.663  0.00  0.00    +0.000 C 
ATOM      2  O   UNL     1       2.381   8.558  18.627  0.00  0.00    +0.000 OA
ATOM      3  N   UNL     1       2.148   6.649  19.849  0.00  0.00    +0.000 N 
ATOM      4  C   UNL     1       2.965   5.858  18.951  0.00  0.00    +0.000 C 
ATOM      5  C   UNL     1       2.275   4.499  18.863  0.00  0.00    +0.000 C 
ATOM      6  C   UNL     1       1.298   4.463  17.685  0.00  0.00    +0.000 C 
ATOM      7  C   UNL     1       1.605   4.337  20.252  0.00  0.00    +0.000 C 
ATOM      8  C   UNL     1       1.318   5.796  20.695  0.00  0.00    +0.000 C 
ENDROOT
BRANCH   1  13
ATOM      9  C   UNL     1      -0.941  10.951  22.589  0.00  0.00    +0.000 C 
ATOM     10  C   UNL     1       0.080  10.028  22.031  0.00  0.00    +0.000 A 
ATOM     11  N   UNL     1       0.981   9.449  22.833  0.00  0.00    +0.000 NA
ATOM     12  N   UNL     1       1.671   8.645  22.004  0.00  0.00    +0.000 N 
ATOM     13  C   UNL     1       1.343   8.786  20.682  0.00  0.00    +0.000 A 
ATOM     14  C   UNL     1       0.246   9.622  20.683  0.00  0.00    +0.000 A 
ATOM     15 CL   UNL     1      -0.791  10.045  19.406  0.00  0.00    +0.000 Cl
ATOM     16  H   UNL     1       2.366   8.019  22.398  0.00  0.00    +0.000 HD
ENDBRANCH   1  13
BRANCH   7  17
ATOM     17  C   UNL     1       2.534   3.648  21.241  0.00  0.00    +0.000 C 
ATOM     18  C   UNL     1       3.402   2.478  20.835  0.00  0.00    +0.000 C 
ATOM     19  C   UNL     1       2.239   2.254  21.756  0.00  0.00    +0.000 C 
ENDBRANCH   7  17
BRANCH   7  20
ATOM     20  O   UNL     1       0.393   3.589  20.155  0.00  0.00    +0.000 OA
ATOM     21  H   UNL     1       0.605   2.643  20.214  0.00  0.00    +0.000 HD
ENDBRANCH   7  20
TORSDOF 3
ENDMDL
MODEL 8
REMARK VINA RESULT:      -6.5      2.284      3.507
REMARK  Name = 
REMARK  5 active torsions:
REMARK  status: ('A' for Active; 'I' for Inactive)
REMARK    1  A    between atoms: C_1  and  C_2
REMARK    2  A    between atoms: C_5  and  C_6
REMARK    3  A    between atoms: C_10  and  C_11
REMARK    4  A    between atoms: C_12  and  O_13
REMARK    5  A    between atoms: C_12  and  C_14
REMARK                            x       y       z     vdW  Elec       q    Type
REMARK                         _______ _______ _______ _____ _____    ______ ____
ROOT
ATOM      1  C   UNL     1       2.957   4.026  17.466  0.00  0.00    +0.000 C 
ATOM      2  O   UNL     1       2.373   3.686  16.438  0.00  0.00    +0.000 OA
ATOM      3  N   UNL     1       4.177   4.680  17.410  0.00  0.00    +0.000 N 
ATOM      4  C   UNL     1       4.687   5.203  16.158  0.00  0.00    +0.000 C 
ATOM      5  C   UNL     1       6.204   5.039  16.235  0.00  0.00    +0.000 C 
ATOM      6  C   UNL     1       6.635   3.702  15.624  0.00  0.00    +0.000 C 
ATOM      7  C   UNL     1       6.511   5.177  17.748  0.00  0.00    +0.000 C 
ATOM      8  C   UNL     1       5.217   4.664  18.435  0.00  0.00    +0.000 C 
ENDROOT
BRANCH   1  13
ATOM      9  C   UNL     1       1.763   2.319  22.102  0.00  0.00    +0.000 C 
ATOM     10  C   UNL     1       1.838   3.021  20.795  0.00  0.00    +0.000 A 
ATOM     11  N   UNL     1       0.960   3.983  20.491  0.00  0.00    +0.000 NA
ATOM     12  N   UNL     1       1.379   4.427  19.293  0.00  0.00    +0.000 N 
ATOM     13  C   UNL     1       2.405   3.698  18.752  0.00  0.00    +0.000 A 
ATOM     14  C   UNL     1       2.779   2.827  19.753  0.00  0.00    +0.000 A 
ATOM     15 CL   UNL     1       4.119   1.786  19.836  0.00  0.00    +0.000 Cl
ATOM     16  H   UNL     1       0.920   5.234  18.883  0.00  0.00    +0.000 HD
ENDBRANCH   1  13
BRANCH   7  17
ATOM     17  C   UNL     1       6.785   6.624  18.130  0.00  0.00    +0.000 C 
ATOM     18  C   UNL     1       7.605   7.538  17.249  0.00  0.00    +0.000 C 
ATOM     19  C   UNL     1       8.166   7.074  18.561  0.00  0.00    +0.000 C 
ENDBRANCH   7  17
BRANCH   7  20
ATOM     20  O   UNL     1       7.633   4.377  18.121  0.00  0.00    +0.000 OA
ATOM     21  H   UNL     1       8.048   4.027  17.315  0.00  0.00    +0.000 HD
ENDBRANCH   7  20
TORSDOF 3
ENDMDL
MODEL 9
REMARK VINA RESULT:      -6.5      3.411      4.076
REMARK  Name = 
REMARK  5 active torsions:
REMARK  status: ('A' for Active; 'I' for Inactive)
REMARK    1  A    between atoms: C_1  and  C_2
REMARK    2  A    between atoms: C_5  and  C_6
REMARK    3  A    between atoms: C_10  and  C_11
REMARK    4  A    between atoms: C_12  and  O_13
REMARK    5  A    between atoms: C_12  and  C_14
REMARK                            x       y       z     vdW  Elec       q    Type
REMARK                         _______ _______ _______ _____ _____    ______ ____
ROOT
ATOM      1  C   UNL     1       3.423   6.155  18.884  0.00  0.00    +0.000 C 
ATOM      2  O   UNL     1       3.278   5.508  19.919  0.00  0.00    +0.000 OA
ATOM      3  N   UNL     1       4.343   5.768  17.922  0.00  0.00    +0.000 N 
ATOM      4  C   UNL     1       4.984   4.470  17.983  0.00  0.00    +0.000 C 
ATOM      5  C   UNL     1       6.394   4.686  17.437  0.00  0.00    +0.000 C 
ATOM      6  C   UNL     1       7.372   5.002  18.572  0.00  0.00    +0.000 C 
ATOM      7  C   UNL     1       6.218   5.834  16.410  0.00  0.00    +0.000 C 
ATOM      8  C   UNL     1       5.014   6.642  16.964  0.00  0.00    +0.000 C 
ENDROOT
BRANCH   1  13
ATOM      9  C   UNL     1       0.547  10.342  19.064  0.00  0.00    +0.000 C 
ATOM     10  C   UNL     1       1.459   9.230  18.694  0.00  0.00    +0.000 A 
ATOM     11  N   UNL     1       2.056   9.213  17.497  0.00  0.00    +0.000 NA
ATOM     12  N   UNL     1       2.844   8.125  17.552  0.00  0.00    +0.000 N 
ATOM     13  C   UNL     1       2.673   7.364  18.679  0.00  0.00    +0.000 A 
ATOM     14  C   UNL     1       1.836   8.112  19.480  0.00  0.00    +0.000 A 
ATOM     15 CL   UNL     1       1.383   7.865  21.098  0.00  0.00    +0.000 Cl
ATOM     16  H   UNL     1       3.480   7.942  16.782  0.00  0.00    +0.000 HD
ENDBRANCH   1  13
BRANCH   7  17
ATOM     17  C   UNL     1       5.909   5.295  15.021  0.00  0.00    +0.000 C 
ATOM     18  C   UNL     1       6.082   3.833  14.678  0.00  0.00    +0.000 C 
ATOM     19  C   UNL     1       7.017   4.848  14.088  0.00  0.00    +0.000 C 
ENDBRANCH   7  17
BRANCH   7  20
ATOM     20  O   UNL     1       7.388   6.649  16.343  0.00  0.00    +0.000 OA
ATOM     21  H   UNL     1       8.097   6.219  16.849  0.00  0.00    +0.000 HD
ENDBRANCH   7  20
TORSDOF 3
ENDMDL
