MODEL 1
REMARK VINA RESULT:      -8.6      0.000      0.000
REMARK  Name = 
REMARK  10 active torsions:
REMARK  status: ('A' for Active; 'I' for Inactive)
REMARK    1  A    between atoms: C_1  and  O_2
REMARK    2  A    between atoms: O_2  and  C_3
REMARK    3  A    between atoms: C_7  and  C_8
REMARK    4  A    between atoms: C_8  and  N_9
REMARK    5  A    between atoms: N_9  and  C_10
REMARK    6  A    between atoms: C_10  and  C_11
REMARK    7  A    between atoms: C_11  and  C_12
REMARK    8  A    between atoms: C_21  and  O_22
REMARK    9  A    between atoms: O_22  and  C_23
REMARK   10  A    between atoms: C_23  and  C_24
REMARK                            x       y       z     vdW  Elec       q    Type
REMARK                         _______ _______ _______ _____ _____    ______ ____
ROOT
ATOM      1  C   UNL     1       2.443   3.381  18.934  0.00  0.00    +0.000 A 
ATOM      2  C   UNL     1       1.818   3.251  20.184  0.00  0.00    +0.000 A 
ATOM      3  C   UNL     1       1.522   4.383  20.941  0.00  0.00    +0.000 A 
ATOM      4  C   UNL     1       1.845   5.663  20.468  0.00  0.00    +0.000 A 
ATOM      5  C   UNL     1       2.490   5.846  19.228  0.00  0.00    +0.000 A 
ATOM      6  C   UNL     1       2.787   4.692  18.463  0.00  0.00    +0.000 A 
ENDROOT
BRANCH   1   8
ATOM      7  C   UNL     1       3.665   1.296  18.408  0.00  0.00    +0.000 C 
ATOM      8  O   UNL     1       2.713   2.279  18.172  0.00  0.00    +0.000 OA
ENDBRANCH   1   8
BRANCH   5   9
ATOM      9  C   UNL     1       2.921   7.262  18.755  0.00  0.00    +0.000 C 
BRANCH   9  10
ATOM     10  N   UNL     1       1.946   7.892  17.840  0.00  0.00    +0.000 NA
ATOM     11  H   UNL     1       1.044   7.364  17.950  0.00  0.00    +0.000 HD
BRANCH  10  12
ATOM     12  C   UNL     1       1.640   9.347  18.051  0.00  0.00    +0.000 C 
BRANCH  12  13
ATOM     13  C   UNL     1       0.811   9.762  19.352  0.00  0.00    +0.000 C 
BRANCH  13  14
ATOM     14  C   UNL     1      -0.528  10.481  19.078  0.00  0.00    +0.000 A 
ATOM     15  C   UNL     1      -0.986  11.445  19.966  0.00  0.00    +0.000 A 
ATOM     16  N   UNL     1      -2.179  11.920  19.609  0.00  0.00    +0.000 N 
ATOM     17  C   UNL     1      -2.526  11.307  18.485  0.00  0.00    +0.000 A 
ATOM     18  C   UNL     1      -3.725  11.534  17.820  0.00  0.00    +0.000 A 
ATOM     19  C   UNL     1      -3.966  10.860  16.638  0.00  0.00    +0.000 A 
ATOM     20  C   UNL     1      -3.000   9.974  16.129  0.00  0.00    +0.000 A 
ATOM     21  C   UNL     1      -1.777   9.732  16.831  0.00  0.00    +0.000 A 
ATOM     22  C   UNL     1      -1.545  10.423  18.057  0.00  0.00    +0.000 A 
ATOM     23  H   UNL     1      -2.733  12.634  20.114  0.00  0.00    +0.000 HD
ENDBRANCH  13  14
ENDBRANCH  12  13
ENDBRANCH  10  12
ENDBRANCH   9  10
ENDBRANCH   5   9
BRANCH   6  24
ATOM     24  O   UNL     1       3.398   4.909  17.278  0.00  0.00    +0.000 OA
BRANCH  24  25
ATOM     25  C   UNL     1       4.629   4.453  16.865  0.00  0.00    +0.000 C 
BRANCH  25  26
ATOM     26  C   UNL     1       5.754   5.347  17.301  0.00  0.00    +0.000 A 
ATOM     27  C   UNL     1       6.613   4.853  18.291  0.00  0.00    +0.000 A 
ATOM     28  C   UNL     1       7.657   5.631  18.783  0.00  0.00    +0.000 A 
ATOM     29  C   UNL     1       7.860   6.924  18.297  0.00  0.00    +0.000 A 
ATOM     30  C   UNL     1       7.020   7.438  17.305  0.00  0.00    +0.000 A 
ATOM     31  C   UNL     1       5.976   6.656  16.806  0.00  0.00    +0.000 A 
ATOM     32  F   UNL     1       5.168   7.205  15.845  0.00  0.00    +0.000 F 
ENDBRANCH  25  26
ENDBRANCH  24  25
ENDBRANCH   6  24
TORSDOF 9
ENDMDL
MODEL 2
REMARK VINA RESULT:      -8.4      1.555      2.515
REMARK  Name = 
REMARK  10 active torsions:
REMARK  status: ('A' for Active; 'I' for Inactive)
REMARK    1  A    between atoms: C_1  and  O_2
REMARK    2  A    between atoms: O_2  and  C_3
REMARK    3  A    between atoms: C_7  and  C_8
REMARK    4  A    between atoms: C_8  and  N_9
REMARK    5  A    between atoms: N_9  and  C_10
REMARK    6  A    between atoms: C_10  and  C_11
REMARK    7  A    between atoms: C_11  and  C_12
REMARK    8  A    between atoms: C_21  and  O_22
REMARK    9  A    between atoms: O_22  and  C_23
REMARK   10  A    between atoms: C_23  and  C_24
REMARK                            x       y       z     vdW  Elec       q    Type
REMARK                         _______ _______ _______ _____ _____    ______ ____
ROOT
ATOM      1  C   UNL     1       3.323   3.526  19.462  0.00  0.00    +0.000 A 
ATOM      2  C   UNL     1       2.807   3.729  20.751  0.00  0.00    +0.000 A 
ATOM      3  C   UNL     1       2.105   4.895  21.050  0.00  0.00    +0.000 A 
ATOM      4  C   UNL     1       1.905   5.880  20.071  0.00  0.00    +0.000 A 
ATOM      5  C   UNL     1       2.417   5.732  18.767  0.00  0.00    +0.000 A 
ATOM      6  C   UNL     1       3.129   4.544  18.469  0.00  0.00    +0.000 A 
ENDROOT
BRANCH   1   8
ATOM      7  C   UNL     1       3.495   1.261  18.485  0.00  0.00    +0.000 C 
ATOM      8  O   UNL     1       3.989   2.374  19.152  0.00  0.00    +0.000 OA
ENDBRANCH   1   8
BRANCH   5   9
ATOM      9  C   UNL     1       2.264   6.867  17.717  0.00  0.00    +0.000 C 
BRANCH   9  10
ATOM     10  N   UNL     1       2.992   8.101  18.081  0.00  0.00    +0.000 NA
ATOM     11  H   UNL     1       3.860   8.125  17.490  0.00  0.00    +0.000 HD
BRANCH  10  12
ATOM     12  C   UNL     1       2.280   9.408  17.882  0.00  0.00    +0.000 C 
BRANCH  12  13
ATOM     13  C   UNL     1       0.683   9.407  17.898  0.00  0.00    +0.000 C 
BRANCH  13  14
ATOM     14  C   UNL     1       0.036  10.193  19.059  0.00  0.00    +0.000 A 
ATOM     15  C   UNL     1      -0.511  11.447  18.820  0.00  0.00    +0.000 A 
ATOM     16  N   UNL     1      -0.973  12.006  19.938  0.00  0.00    +0.000 N 
ATOM     17  C   UNL     1      -0.764  11.144  20.925  0.00  0.00    +0.000 A 
ATOM     18  C   UNL     1      -1.101  11.391  22.250  0.00  0.00    +0.000 A 
ATOM     19  C   UNL     1      -0.866  10.405  23.189  0.00  0.00    +0.000 A 
ATOM     20  C   UNL     1      -0.304   9.179  22.790  0.00  0.00    +0.000 A 
ATOM     21  C   UNL     1       0.059   8.942  21.426  0.00  0.00    +0.000 A 
ATOM     22  C   UNL     1      -0.177   9.972  20.469  0.00  0.00    +0.000 A 
ATOM     23  H   UNL     1      -1.412  12.939  20.023  0.00  0.00    +0.000 HD
ENDBRANCH  13  14
ENDBRANCH  12  13
ENDBRANCH  10  12
ENDBRANCH   9  10
ENDBRANCH   5   9
BRANCH   6  24
ATOM     24  O   UNL     1       3.598   4.436  17.207  0.00  0.00    +0.000 OA
BRANCH  24  25
ATOM     25  C   UNL     1       4.878   4.133  16.803  0.00  0.00    +0.000 C 
BRANCH  25  26
ATOM     26  C   UNL     1       5.885   5.153  17.251  0.00  0.00    +0.000 A 
ATOM     27  C   UNL     1       6.791   4.761  18.244  0.00  0.00    +0.000 A 
ATOM     28  C   UNL     1       7.730   5.656  18.747  0.00  0.00    +0.000 A 
ATOM     29  C   UNL     1       7.779   6.967  18.269  0.00  0.00    +0.000 A 
ATOM     30  C   UNL     1       6.889   7.382  17.274  0.00  0.00    +0.000 A 
ATOM     31  C   UNL     1       5.950   6.482  16.764  0.00  0.00    +0.000 A 
ATOM     32  F   UNL     1       5.088   6.935  15.800  0.00  0.00    +0.000 F 
ENDBRANCH  25  26
ENDBRANCH  24  25
ENDBRANCH   6  24
TORSDOF 9
ENDMDL
MODEL 3
REMARK VINA RESULT:      -8.1      2.054      3.068
REMARK  Name = 
REMARK  10 active torsions:
REMARK  status: ('A' for Active; 'I' for Inactive)
REMARK    1  A    between atoms: C_1  and  O_2
REMARK    2  A    between atoms: O_2  and  C_3
REMARK    3  A    between atoms: C_7  and  C_8
REMARK    4  A    between atoms: C_8  and  N_9
REMARK    5  A    between atoms: N_9  and  C_10
REMARK    6  A    between atoms: C_10  and  C_11
REMARK    7  A    between atoms: C_11  and  C_12
REMARK    8  A    between atoms: C_21  and  O_22
REMARK    9  A    between atoms: O_22  and  C_23
REMARK   10  A    between atoms: C_23  and  C_24
REMARK                            x       y       z     vdW  Elec       q    Type
REMARK                         _______ _______ _______ _____ _____    ______ ____
ROOT
ATOM      1  C   UNL     1       3.368   3.120  20.082  0.00  0.00    +0.000 A 
ATOM      2  C   UNL     1       2.159   2.547  20.505  0.00  0.00    +0.000 A 
ATOM      3  C   UNL     1       1.029   3.344  20.680  0.00  0.00    +0.000 A 
ATOM      4  C   UNL     1       1.083   4.725  20.438  0.00  0.00    +0.000 A 
ATOM      5  C   UNL     1       2.278   5.351  20.029  0.00  0.00    +0.000 A 
ATOM      6  C   UNL     1       3.422   4.536  19.852  0.00  0.00    +0.000 A 
ENDROOT
BRANCH   1   8
ATOM      7  C   UNL     1       5.071   1.469  20.779  0.00  0.00    +0.000 C 
ATOM      8  O   UNL     1       4.474   2.344  19.881  0.00  0.00    +0.000 OA
ENDBRANCH   1   8
BRANCH   5   9
ATOM      9  C   UNL     1       2.348   6.893  19.848  0.00  0.00    +0.000 C 
BRANCH   9  10
ATOM     10  N   UNL     1       2.368   7.312  18.431  0.00  0.00    +0.000 NA
ATOM     11  H   UNL     1       1.568   6.823  17.959  0.00  0.00    +0.000 HD
BRANCH  10  12
ATOM     12  C   UNL     1       2.226   8.780  18.142  0.00  0.00    +0.000 C 
BRANCH  12  13
ATOM     13  C   UNL     1       0.763   9.354  17.862  0.00  0.00    +0.000 C 
BRANCH  13  14
ATOM     14  C   UNL     1       0.151  10.186  19.010  0.00  0.00    +0.000 A 
ATOM     15  C   UNL     1      -0.266  11.489  18.770  0.00  0.00    +0.000 A 
ATOM     16  N   UNL     1      -0.714  12.077  19.879  0.00  0.00    +0.000 N 
ATOM     17  C   UNL     1      -0.624  11.189  20.860  0.00  0.00    +0.000 A 
ATOM     18  C   UNL     1      -0.984  11.452  22.176  0.00  0.00    +0.000 A 
ATOM     19  C   UNL     1      -0.878  10.439  23.108  0.00  0.00    +0.000 A 
ATOM     20  C   UNL     1      -0.420   9.169  22.712  0.00  0.00    +0.000 A 
ATOM     21  C   UNL     1      -0.031   8.914  21.359  0.00  0.00    +0.000 A 
ATOM     22  C   UNL     1      -0.134   9.972  20.408  0.00  0.00    +0.000 A 
ATOM     23  H   UNL     1      -1.065  13.047  19.961  0.00  0.00    +0.000 HD
ENDBRANCH  13  14
ENDBRANCH  12  13
ENDBRANCH  10  12
ENDBRANCH   9  10
ENDBRANCH   5   9
BRANCH   6  24
ATOM     24  O   UNL     1       4.545   5.172  19.453  0.00  0.00    +0.000 OA
BRANCH  24  25
ATOM     25  C   UNL     1       5.737   4.613  19.051  0.00  0.00    +0.000 C 
BRANCH  25  26
ATOM     26  C   UNL     1       5.957   4.719  17.569  0.00  0.00    +0.000 A 
ATOM     27  C   UNL     1       5.083   4.001  16.742  0.00  0.00    +0.000 A 
ATOM     28  C   UNL     1       5.241   4.009  15.360  0.00  0.00    +0.000 A 
ATOM     29  C   UNL     1       6.280   4.735  14.775  0.00  0.00    +0.000 A 
ATOM     30  C   UNL     1       7.161   5.465  15.577  0.00  0.00    +0.000 A 
ATOM     31  C   UNL     1       7.001   5.461  16.965  0.00  0.00    +0.000 A 
ATOM     32  F   UNL     1       7.897   6.178  17.714  0.00  0.00    +0.000 F 
ENDBRANCH  25  26
ENDBRANCH  24  25
ENDBRANCH   6  24
TORSDOF 9
ENDMDL
MODEL 4
REMARK VINA RESULT:      -8.1      2.197      2.930
REMARK  Name = 
REMARK  10 active torsions:
REMARK  status: ('A' for Active; 'I' for Inactive)
REMARK    1  A    between atoms: C_1  and  O_2
REMARK    2  A    between atoms: O_2  and  C_3
REMARK    3  A    between atoms: C_7  and  C_8
REMARK    4  A    between atoms: C_8  and  N_9
REMARK    5  A    between atoms: N_9  and  C_10
REMARK    6  A    between atoms: C_10  and  C_11
REMARK    7  A    between atoms: C_11  and  C_12
REMARK    8  A    between atoms: C_21  and  O_22
REMARK    9  A    between atoms: O_22  and  C_23
REMARK   10  A    between atoms: C_23  and  C_24
REMARK                            x       y       z     vdW  Elec       q    Type
REMARK                         _______ _______ _______ _____ _____    ______ ____
ROOT
ATOM      1  C   UNL     1       2.303   3.524  18.738  0.00  0.00    +0.000 A 
ATOM      2  C   UNL     1       1.652   3.309  19.963  0.00  0.00    +0.000 A 
ATOM      3  C   UNL     1       1.356   4.385  20.798  0.00  0.00    +0.000 A 
ATOM      4  C   UNL     1       1.706   5.693  20.429  0.00  0.00    +0.000 A 
ATOM      5  C   UNL     1       2.376   5.959  19.219  0.00  0.00    +0.000 A 
ATOM      6  C   UNL     1       2.672   4.862  18.374  0.00  0.00    +0.000 A 
ENDROOT
BRANCH   1   8
ATOM      7  C   UNL     1       3.521   1.479  18.067  0.00  0.00    +0.000 C 
ATOM      8  O   UNL     1       2.572   2.479  17.900  0.00  0.00    +0.000 OA
ENDBRANCH   1   8
BRANCH   5   9
ATOM      9  C   UNL     1       2.834   7.401  18.862  0.00  0.00    +0.000 C 
BRANCH   9  10
ATOM     10  N   UNL     1       2.116   7.969  17.702  0.00  0.00    +0.000 NA
ATOM     11  H   UNL     1       1.660   7.164  17.205  0.00  0.00    +0.000 HD
BRANCH  10  12
ATOM     12  C   UNL     1       1.046   8.985  17.982  0.00  0.00    +0.000 C 
BRANCH  12  13
ATOM     13  C   UNL     1       1.411  10.226  18.918  0.00  0.00    +0.000 C 
BRANCH  13  14
ATOM     14  C   UNL     1       0.762  10.206  20.320  0.00  0.00    +0.000 A 
ATOM     15  C   UNL     1       1.134   9.231  21.237  0.00  0.00    +0.000 A 
ATOM     16  N   UNL     1       0.438   9.325  22.369  0.00  0.00    +0.000 N 
ATOM     17  C   UNL     1      -0.384  10.359  22.241  0.00  0.00    +0.000 A 
ATOM     18  C   UNL     1      -1.285  10.755  23.222  0.00  0.00    +0.000 A 
ATOM     19  C   UNL     1      -2.070  11.868  22.991  0.00  0.00    +0.000 A 
ATOM     20  C   UNL     1      -1.939  12.579  21.784  0.00  0.00    +0.000 A 
ATOM     21  C   UNL     1      -1.023  12.150  20.771  0.00  0.00    +0.000 A 
ATOM     22  C   UNL     1      -0.227  10.992  21.016  0.00  0.00    +0.000 A 
ATOM     23  H   UNL     1       0.521   8.708  23.195  0.00  0.00    +0.000 HD
ENDBRANCH  13  14
ENDBRANCH  12  13
ENDBRANCH  10  12
ENDBRANCH   9  10
ENDBRANCH   5   9
BRANCH   6  24
ATOM     24  O   UNL     1       3.308   5.159  17.220  0.00  0.00    +0.000 OA
BRANCH  24  25
ATOM     25  C   UNL     1       4.532   4.701  16.786  0.00  0.00    +0.000 C 
BRANCH  25  26
ATOM     26  C   UNL     1       5.681   5.356  17.498  0.00  0.00    +0.000 A 
ATOM     27  C   UNL     1       6.344   6.388  16.822  0.00  0.00    +0.000 A 
ATOM     28  C   UNL     1       7.445   7.021  17.391  0.00  0.00    +0.000 A 
ATOM     29  C   UNL     1       7.910   6.630  18.648  0.00  0.00    +0.000 A 
ATOM     30  C   UNL     1       7.262   5.606  19.345  0.00  0.00    +0.000 A 
ATOM     31  C   UNL     1       6.153   4.974  18.778  0.00  0.00    +0.000 A 
ATOM     32  F   UNL     1       5.558   3.966  19.490  0.00  0.00    +0.000 F 
ENDBRANCH  25  26
ENDBRANCH  24  25
ENDBRANCH   6  24
TORSDOF 9
ENDMDL
MODEL 5
REMARK VINA RESULT:      -8.1      2.342      4.762
REMARK  Name = 
REMARK  10 active torsions:
REMARK  status: ('A' for Active; 'I' for Inactive)
REMARK    1  A    between atoms: C_1  and  O_2
REMARK    2  A    between atoms: O_2  and  C_3
REMARK    3  A    between atoms: C_7  and  C_8
REMARK    4  A    between atoms: C_8  and  N_9
REMARK    5  A    between atoms: N_9  and  C_10
REMARK    6  A    between atoms: C_10  and  C_11
REMARK    7  A    between atoms: C_11  and  C_12
REMARK    8  A    between atoms: C_21  and  O_22
REMARK    9  A    between atoms: O_22  and  C_23
REMARK   10  A    between atoms: C_23  and  C_24
REMARK                            x       y       z     vdW  Elec       q    Type
REMARK                         _______ _______ _______ _____ _____    ______ ____
ROOT
ATOM      1  C   UNL     1       5.664   4.829  16.166  0.00  0.00    +0.000 A 
ATOM      2  C   UNL     1       6.582   5.890  16.204  0.00  0.00    +0.000 A 
ATOM      3  C   UNL     1       6.335   7.002  17.006  0.00  0.00    +0.000 A 
ATOM      4  C   UNL     1       5.170   7.079  17.784  0.00  0.00    +0.000 A 
ATOM      5  C   UNL     1       4.209   6.048  17.768  0.00  0.00    +0.000 A 
ATOM      6  C   UNL     1       4.467   4.920  16.951  0.00  0.00    +0.000 A 
ENDROOT
BRANCH   1   8
ATOM      7  C   UNL     1       6.250   3.676  14.058  0.00  0.00    +0.000 C 
ATOM      8  O   UNL     1       5.910   3.722  15.404  0.00  0.00    +0.000 OA
ENDBRANCH   1   8
BRANCH   5   9
ATOM      9  C   UNL     1       2.883   6.182  18.567  0.00  0.00    +0.000 C 
BRANCH   9  10
ATOM     10  N   UNL     1       2.562   7.578  18.932  0.00  0.00    +0.000 NA
ATOM     11  H   UNL     1       3.478   8.068  19.087  0.00  0.00    +0.000 HD
BRANCH  10  12
ATOM     12  C   UNL     1       1.784   8.392  17.938  0.00  0.00    +0.000 C 
BRANCH  12  13
ATOM     13  C   UNL     1       1.777   9.980  18.104  0.00  0.00    +0.000 C 
BRANCH  13  14
ATOM     14  C   UNL     1       0.789  10.526  19.159  0.00  0.00    +0.000 A 
ATOM     15  C   UNL     1      -0.018  11.613  18.850  0.00  0.00    +0.000 A 
ATOM     16  N   UNL     1      -0.763  11.987  19.888  0.00  0.00    +0.000 N 
ATOM     17  C   UNL     1      -0.489  11.160  20.889  0.00  0.00    +0.000 A 
ATOM     18  C   UNL     1      -1.067  11.254  22.149  0.00  0.00    +0.000 A 
ATOM     19  C   UNL     1      -0.728  10.316  23.105  0.00  0.00    +0.000 A 
ATOM     20  C   UNL     1       0.178   9.288  22.787  0.00  0.00    +0.000 A 
ATOM     21  C   UNL     1       0.784   9.213  21.493  0.00  0.00    +0.000 A 
ATOM     22  C   UNL     1       0.436  10.194  20.518  0.00  0.00    +0.000 A 
ATOM     23  H   UNL     1      -1.432  12.776  19.912  0.00  0.00    +0.000 HD
ENDBRANCH  13  14
ENDBRANCH  12  13
ENDBRANCH  10  12
ENDBRANCH   9  10
ENDBRANCH   5   9
BRANCH   6  24
ATOM     24  O   UNL     1       3.526   3.950  16.969  0.00  0.00    +0.000 OA
BRANCH  24  25
ATOM     25  C   UNL     1       3.546   2.764  17.666  0.00  0.00    +0.000 C 
BRANCH  25  26
ATOM     26  C   UNL     1       2.783   2.837  18.957  0.00  0.00    +0.000 A 
ATOM     27  C   UNL     1       3.495   2.572  20.134  0.00  0.00    +0.000 A 
ATOM     28  C   UNL     1       2.857   2.577  21.371  0.00  0.00    +0.000 A 
ATOM     29  C   UNL     1       1.489   2.844  21.455  0.00  0.00    +0.000 A 
ATOM     30  C   UNL     1       0.757   3.117  20.296  0.00  0.00    +0.000 A 
ATOM     31  C   UNL     1       1.398   3.118  19.055  0.00  0.00    +0.000 A 
ATOM     32  F   UNL     1       0.639   3.375  17.943  0.00  0.00    +0.000 F 
ENDBRANCH  25  26
ENDBRANCH  24  25
ENDBRANCH   6  24
TORSDOF 9
ENDMDL
MODEL 6
REMARK VINA RESULT:      -7.9      2.364      4.823
REMARK  Name = 
REMARK  10 active torsions:
REMARK  status: ('A' for Active; 'I' for Inactive)
REMARK    1  A    between atoms: C_1  and  O_2
REMARK    2  A    between atoms: O_2  and  C_3
REMARK    3  A    between atoms: C_7  and  C_8
REMARK    4  A    between atoms: C_8  and  N_9
REMARK    5  A    between atoms: N_9  and  C_10
REMARK    6  A    between atoms: C_10  and  C_11
REMARK    7  A    between atoms: C_11  and  C_12
REMARK    8  A    between atoms: C_21  and  O_22
REMARK    9  A    between atoms: O_22  and  C_23
REMARK   10  A    between atoms: C_23  and  C_24
REMARK                            x       y       z     vdW  Elec       q    Type
REMARK                         _______ _______ _______ _____ _____    ______ ____
ROOT
ATOM      1  C   UNL     1       5.897   4.652  15.942  0.00  0.00    +0.000 A 
ATOM      2  C   UNL     1       7.041   5.464  15.951  0.00  0.00    +0.000 A 
ATOM      3  C   UNL     1       7.216   6.419  16.951  0.00  0.00    +0.000 A 
ATOM      4  C   UNL     1       6.253   6.584  17.958  0.00  0.00    +0.000 A 
ATOM      5  C   UNL     1       5.078   5.806  17.984  0.00  0.00    +0.000 A 
ATOM      6  C   UNL     1       4.908   4.836  16.966  0.00  0.00    +0.000 A 
ENDROOT
BRANCH   1   8
ATOM      7  C   UNL     1       6.146   3.738  13.658  0.00  0.00    +0.000 C 
ATOM      8  O   UNL     1       5.730   3.694  14.982  0.00  0.00    +0.000 OA
ENDBRANCH   1   8
BRANCH   5   9
ATOM      9  C   UNL     1       3.980   6.056  19.054  0.00  0.00    +0.000 C 
BRANCH   9  10
ATOM     10  N   UNL     1       2.705   6.535  18.479  0.00  0.00    +0.000 NA
ATOM     11  H   UNL     1       1.985   5.800  18.687  0.00  0.00    +0.000 HD
BRANCH  10  12
ATOM     12  C   UNL     1       2.167   7.843  18.986  0.00  0.00    +0.000 C 
BRANCH  12  13
ATOM     13  C   UNL     1       2.054   9.060  17.959  0.00  0.00    +0.000 C 
BRANCH  13  14
ATOM     14  C   UNL     1       1.318  10.308  18.496  0.00  0.00    +0.000 A 
ATOM     15  C   UNL     1       0.091  10.164  19.130  0.00  0.00    +0.000 A 
ATOM     16  N   UNL     1      -0.427  11.342  19.477  0.00  0.00    +0.000 N 
ATOM     17  C   UNL     1       0.437  12.278  19.106  0.00  0.00    +0.000 A 
ATOM     18  C   UNL     1       0.227  13.638  19.289  0.00  0.00    +0.000 A 
ATOM     19  C   UNL     1       1.213  14.521  18.891  0.00  0.00    +0.000 A 
ATOM     20  C   UNL     1       2.403  14.031  18.323  0.00  0.00    +0.000 A 
ATOM     21  C   UNL     1       2.600  12.628  18.119  0.00  0.00    +0.000 A 
ATOM     22  C   UNL     1       1.570  11.728  18.522  0.00  0.00    +0.000 A 
ATOM     23  H   UNL     1      -1.335  11.499  19.948  0.00  0.00    +0.000 HD
ENDBRANCH  13  14
ENDBRANCH  12  13
ENDBRANCH  10  12
ENDBRANCH   9  10
ENDBRANCH   5   9
BRANCH   6  24
ATOM     24  O   UNL     1       3.773   4.106  17.029  0.00  0.00    +0.000 OA
BRANCH  24  25
ATOM     25  C   UNL     1       3.594   2.869  17.605  0.00  0.00    +0.000 C 
BRANCH  25  26
ATOM     26  C   UNL     1       2.803   2.932  18.880  0.00  0.00    +0.000 A 
ATOM     27  C   UNL     1       3.448   2.513  20.051  0.00  0.00    +0.000 A 
ATOM     28  C   UNL     1       2.776   2.500  21.269  0.00  0.00    +0.000 A 
ATOM     29  C   UNL     1       1.441   2.902  21.341  0.00  0.00    +0.000 A 
ATOM     30  C   UNL     1       0.777   3.330  20.188  0.00  0.00    +0.000 A 
ATOM     31  C   UNL     1       1.452   3.350  18.966  0.00  0.00    +0.000 A 
ATOM     32  F   UNL     1       0.759   3.762  17.858  0.00  0.00    +0.000 F 
ENDBRANCH  25  26
ENDBRANCH  24  25
ENDBRANCH   6  24
TORSDOF 9
ENDMDL
MODEL 7
REMARK VINA RESULT:      -7.9      4.896      8.626
REMARK  Name = 
REMARK  10 active torsions:
REMARK  status: ('A' for Active; 'I' for Inactive)
REMARK    1  A    between atoms: C_1  and  O_2
REMARK    2  A    between atoms: O_2  and  C_3
REMARK    3  A    between atoms: C_7  and  C_8
REMARK    4  A    between atoms: C_8  and  N_9
REMARK    5  A    between atoms: N_9  and  C_10
REMARK    6  A    between atoms: C_10  and  C_11
REMARK    7  A    between atoms: C_11  and  C_12
REMARK    8  A    between atoms: C_21  and  O_22
REMARK    9  A    between atoms: O_22  and  C_23
REMARK   10  A    between atoms: C_23  and  C_24
REMARK                            x       y       z     vdW  Elec       q    Type
REMARK                         _______ _______ _______ _____ _____    ______ ____
ROOT
ATOM      1  C   UNL     1       4.750   4.286  16.362  0.00  0.00    +0.000 A 
ATOM      2  C   UNL     1       5.418   3.898  15.190  0.00  0.00    +0.000 A 
ATOM      3  C   UNL     1       6.673   4.425  14.890  0.00  0.00    +0.000 A 
ATOM      4  C   UNL     1       7.284   5.349  15.751  0.00  0.00    +0.000 A 
ATOM      5  C   UNL     1       6.648   5.784  16.931  0.00  0.00    +0.000 A 
ATOM      6  C   UNL     1       5.373   5.243  17.230  0.00  0.00    +0.000 A 
ENDROOT
BRANCH   1   8
ATOM      7  C   UNL     1       3.265   2.501  17.214  0.00  0.00    +0.000 C 
ATOM      8  O   UNL     1       3.532   3.754  16.677  0.00  0.00    +0.000 OA
ENDBRANCH   1   8
BRANCH   5   9
ATOM      9  C   UNL     1       7.297   6.871  17.832  0.00  0.00    +0.000 C 
BRANCH   9  10
ATOM     10  N   UNL     1       7.085   8.245  17.331  0.00  0.00    +0.000 NA
ATOM     11  H   UNL     1       6.193   8.591  17.763  0.00  0.00    +0.000 HD
BRANCH  10  12
ATOM     12  C   UNL     1       8.149   9.262  17.632  0.00  0.00    +0.000 C 
BRANCH  12  13
ATOM     13  C   UNL     1       8.856   9.212  19.064  0.00  0.00    +0.000 C 
BRANCH  13  14
ATOM     14  C   UNL     1       9.554  10.519  19.499  0.00  0.00    +0.000 A 
ATOM     15  C   UNL     1       9.396  10.985  20.798  0.00  0.00    +0.000 A 
ATOM     16  N   UNL     1      10.017  12.148  20.985  0.00  0.00    +0.000 N 
ATOM     17  C   UNL     1      10.609  12.468  19.841  0.00  0.00    +0.000 A 
ATOM     18  C   UNL     1      11.341  13.632  19.649  0.00  0.00    +0.000 A 
ATOM     19  C   UNL     1      11.941  13.844  18.422  0.00  0.00    +0.000 A 
ATOM     20  C   UNL     1      11.808  12.884  17.403  0.00  0.00    +0.000 A 
ATOM     21  C   UNL     1      11.034  11.697  17.604  0.00  0.00    +0.000 A 
ATOM     22  C   UNL     1      10.410  11.496  18.870  0.00  0.00    +0.000 A 
ATOM     23  H   UNL     1      10.035  12.702  21.859  0.00  0.00    +0.000 HD
ENDBRANCH  13  14
ENDBRANCH  12  13
ENDBRANCH  10  12
ENDBRANCH   9  10
ENDBRANCH   5   9
BRANCH   6  24
ATOM     24  O   UNL     1       4.799   5.679  18.373  0.00  0.00    +0.000 OA
BRANCH  24  25
ATOM     25  C   UNL     1       4.878   5.117  19.627  0.00  0.00    +0.000 C 
BRANCH  25  26
ATOM     26  C   UNL     1       3.598   4.453  20.046  0.00  0.00    +0.000 A 
ATOM     27  C   UNL     1       2.436   5.234  20.017  0.00  0.00    +0.000 A 
ATOM     28  C   UNL     1       1.214   4.711  20.429  0.00  0.00    +0.000 A 
ATOM     29  C   UNL     1       1.130   3.393  20.882  0.00  0.00    +0.000 A 
ATOM     30  C   UNL     1       2.274   2.590  20.915  0.00  0.00    +0.000 A 
ATOM     31  C   UNL     1       3.500   3.113  20.497  0.00  0.00    +0.000 A 
ATOM     32  F   UNL     1       4.599   2.297  20.560  0.00  0.00    +0.000 F 
ENDBRANCH  25  26
ENDBRANCH  24  25
ENDBRANCH   6  24
TORSDOF 9
ENDMDL
MODEL 8
REMARK VINA RESULT:      -7.8      1.093      1.383
REMARK  Name = 
REMARK  10 active torsions:
REMARK  status: ('A' for Active; 'I' for Inactive)
REMARK    1  A    between atoms: C_1  and  O_2
REMARK    2  A    between atoms: O_2  and  C_3
REMARK    3  A    between atoms: C_7  and  C_8
REMARK    4  A    between atoms: C_8  and  N_9
REMARK    5  A    between atoms: N_9  and  C_10
REMARK    6  A    between atoms: C_10  and  C_11
REMARK    7  A    between atoms: C_11  and  C_12
REMARK    8  A    between atoms: C_21  and  O_22
REMARK    9  A    between atoms: O_22  and  C_23
REMARK   10  A    between atoms: C_23  and  C_24
REMARK                            x       y       z     vdW  Elec       q    Type
REMARK                         _______ _______ _______ _____ _____    ______ ____
ROOT
ATOM      1  C   UNL     1       2.693   3.744  19.378  0.00  0.00    +0.000 A 
ATOM      2  C   UNL     1       2.157   4.005  20.649  0.00  0.00    +0.000 A 
ATOM      3  C   UNL     1       1.785   5.301  21.000  0.00  0.00    +0.000 A 
ATOM      4  C   UNL     1       1.941   6.360  20.094  0.00  0.00    +0.000 A 
ATOM      5  C   UNL     1       2.491   6.154  18.812  0.00  0.00    +0.000 A 
ATOM      6  C   UNL     1       2.865   4.834  18.461  0.00  0.00    +0.000 A 
ENDROOT
BRANCH   1   8
ATOM      7  C   UNL     1       4.096   1.710  19.487  0.00  0.00    +0.000 C 
ATOM      8  O   UNL     1       3.035   2.472  19.014  0.00  0.00    +0.000 OA
ENDBRANCH   1   8
BRANCH   5   9
ATOM      9  C   UNL     1       2.739   7.348  17.849  0.00  0.00    +0.000 C 
BRANCH   9  10
ATOM     10  N   UNL     1       2.495   8.663  18.478  0.00  0.00    +0.000 NA
ATOM     11  H   UNL     1       3.279   9.292  18.176  0.00  0.00    +0.000 HD
BRANCH  10  12
ATOM     12  C   UNL     1       1.208   9.362  18.142  0.00  0.00    +0.000 C 
BRANCH  12  13
ATOM     13  C   UNL     1       0.408  10.079  19.324  0.00  0.00    +0.000 C 
BRANCH  13  14
ATOM     14  C   UNL     1      -0.911  10.763  18.904  0.00  0.00    +0.000 A 
ATOM     15  C   UNL     1      -1.416  11.811  19.664  0.00  0.00    +0.000 A 
ATOM     16  N   UNL     1      -2.585  12.245  19.195  0.00  0.00    +0.000 N 
ATOM     17  C   UNL     1      -2.870  11.522  18.120  0.00  0.00    +0.000 A 
ATOM     18  C   UNL     1      -4.029  11.678  17.370  0.00  0.00    +0.000 A 
ATOM     19  C   UNL     1      -4.205  10.889  16.249  0.00  0.00    +0.000 A 
ATOM     20  C   UNL     1      -3.216   9.958  15.886  0.00  0.00    +0.000 A 
ATOM     21  C   UNL     1      -2.035   9.790  16.677  0.00  0.00    +0.000 A 
ATOM     22  C   UNL     1      -1.870  10.601  17.838  0.00  0.00    +0.000 A 
ATOM     23  H   UNL     1      -3.164  13.004  19.594  0.00  0.00    +0.000 HD
ENDBRANCH  13  14
ENDBRANCH  12  13
ENDBRANCH  10  12
ENDBRANCH   9  10
ENDBRANCH   5   9
BRANCH   6  24
ATOM     24  O   UNL     1       3.381   4.675  17.222  0.00  0.00    +0.000 OA
BRANCH  24  25
ATOM     25  C   UNL     1       4.642   4.245  16.879  0.00  0.00    +0.000 C 
BRANCH  25  26
ATOM     26  C   UNL     1       5.724   5.140  17.411  0.00  0.00    +0.000 A 
ATOM     27  C   UNL     1       6.207   6.136  16.552  0.00  0.00    +0.000 A 
ATOM     28  C   UNL     1       7.238   6.982  16.949  0.00  0.00    +0.000 A 
ATOM     29  C   UNL     1       7.812   6.846  18.214  0.00  0.00    +0.000 A 
ATOM     30  C   UNL     1       7.344   5.864  19.092  0.00  0.00    +0.000 A 
ATOM     31  C   UNL     1       6.306   5.018  18.697  0.00  0.00    +0.000 A 
ATOM     32  F   UNL     1       5.889   4.060  19.583  0.00  0.00    +0.000 F 
ENDBRANCH  25  26
ENDBRANCH  24  25
ENDBRANCH   6  24
TORSDOF 9
ENDMDL
MODEL 9
REMARK VINA RESULT:      -7.8      1.395      1.831
REMARK  Name = 
REMARK  10 active torsions:
REMARK  status: ('A' for Active; 'I' for Inactive)
REMARK    1  A    between atoms: C_1  and  O_2
REMARK    2  A    between atoms: O_2  and  C_3
REMARK    3  A    between atoms: C_7  and  C_8
REMARK    4  A    between atoms: C_8  and  N_9
REMARK    5  A    between atoms: N_9  and  C_10
REMARK    6  A    between atoms: C_10  and  C_11
REMARK    7  A    between atoms: C_11  and  C_12
REMARK    8  A    between atoms: C_21  and  O_22
REMARK    9  A    between atoms: O_22  and  C_23
REMARK   10  A    between atoms: C_23  and  C_24
REMARK                            x       y       z     vdW  Elec       q    Type
REMARK                         _______ _______ _______ _____ _____    ______ ____
ROOT
ATOM      1  C   UNL     1       3.095   3.342  19.581  0.00  0.00    +0.000 A 
ATOM      2  C   UNL     1       2.007   2.875  20.335  0.00  0.00    +0.000 A 
ATOM      3  C   UNL     1       1.060   3.771  20.829  0.00  0.00    +0.000 A 
ATOM      4  C   UNL     1       1.180   5.146  20.583  0.00  0.00    +0.000 A 
ATOM      5  C   UNL     1       2.263   5.668  19.847  0.00  0.00    +0.000 A 
ATOM      6  C   UNL     1       3.221   4.752  19.346  0.00  0.00    +0.000 A 
ENDROOT
BRANCH   1   8
ATOM      7  C   UNL     1       3.771   1.309  18.347  0.00  0.00    +0.000 C 
ATOM      8  O   UNL     1       4.013   2.470  19.070  0.00  0.00    +0.000 OA
ENDBRANCH   1   8
BRANCH   5   9
ATOM      9  C   UNL     1       2.432   7.200  19.653  0.00  0.00    +0.000 C 
BRANCH   9  10
ATOM     10  N   UNL     1       2.475   7.607  18.233  0.00  0.00    +0.000 NA
ATOM     11  H   UNL     1       2.281   6.744  17.666  0.00  0.00    +0.000 HD
BRANCH  10  12
ATOM     12  C   UNL     1       1.503   8.661  17.786  0.00  0.00    +0.000 C 
BRANCH  12  13
ATOM     13  C   UNL     1       1.462  10.039  18.593  0.00  0.00    +0.000 C 
BRANCH  13  14
ATOM     14  C   UNL     1       0.065  10.685  18.722  0.00  0.00    +0.000 A 
ATOM     15  C   UNL     1      -0.156  11.663  19.683  0.00  0.00    +0.000 A 
ATOM     16  N   UNL     1      -1.425  12.068  19.695  0.00  0.00    +0.000 N 
ATOM     17  C   UNL     1      -2.062  11.395  18.746  0.00  0.00    +0.000 A 
ATOM     18  C   UNL     1      -3.417  11.539  18.473  0.00  0.00    +0.000 A 
ATOM     19  C   UNL     1      -3.966  10.808  17.437  0.00  0.00    +0.000 A 
ATOM     20  C   UNL     1      -3.153   9.946  16.680  0.00  0.00    +0.000 A 
ATOM     21  C   UNL     1      -1.763   9.788  16.983  0.00  0.00    +0.000 A 
ATOM     22  C   UNL     1      -1.210  10.539  18.062  0.00  0.00    +0.000 A 
ATOM     23  H   UNL     1      -1.839  12.776  20.326  0.00  0.00    +0.000 HD
ENDBRANCH  13  14
ENDBRANCH  12  13
ENDBRANCH  10  12
ENDBRANCH   9  10
ENDBRANCH   5   9
BRANCH   6  24
ATOM     24  O   UNL     1       4.240   5.289  18.640  0.00  0.00    +0.000 OA
BRANCH  24  25
ATOM     25  C   UNL     1       5.499   4.770  18.442  0.00  0.00    +0.000 C 
BRANCH  25  26
ATOM     26  C   UNL     1       5.855   4.653  16.988  0.00  0.00    +0.000 A 
ATOM     27  C   UNL     1       7.151   5.036  16.617  0.00  0.00    +0.000 A 
ATOM     28  C   UNL     1       7.551   4.999  15.285  0.00  0.00    +0.000 A 
ATOM     29  C   UNL     1       6.662   4.580  14.294  0.00  0.00    +0.000 A 
ATOM     30  C   UNL     1       5.365   4.187  14.639  0.00  0.00    +0.000 A 
ATOM     31  C   UNL     1       4.964   4.218  15.976  0.00  0.00    +0.000 A 
ATOM     32  F   UNL     1       3.680   3.839  16.268  0.00  0.00    +0.000 F 
ENDBRANCH  25  26
ENDBRANCH  24  25
ENDBRANCH   6  24
TORSDOF 9
ENDMDL
