MODEL 1
REMARK VINA RESULT:      -7.5      0.000      0.000
REMARK  Name = 
REMARK  3 active torsions:
REMARK  status: ('A' for Active; 'I' for Inactive)
REMARK    1  A    between atoms: C_1  and  O_2
REMARK    2  A    between atoms: O_2  and  C_3
REMARK    3  A    between atoms: C_3  and  C_5
REMARK                            x       y       z     vdW  Elec       q    Type
REMARK                         _______ _______ _______ _____ _____    ______ ____
ROOT
ATOM      1  C   UNL     1       2.734   4.577  20.280  0.00  0.00    +0.000 C 
ATOM      2  C   UNL     1       2.093   5.928  20.675  0.00  0.00    +0.000 C 
ATOM      3  C   UNL     1       2.227   6.942  19.590  0.00  0.00    +0.000 A 
ATOM      4  C   UNL     1       3.121   6.780  18.546  0.00  0.00    +0.000 A 
ATOM      5  N   UNL     1       3.086   7.916  17.784  0.00  0.00    +0.000 N 
ATOM      6  C   UNL     1       2.217   8.831  18.338  0.00  0.00    +0.000 A 
ATOM      7  C   UNL     1       1.924  10.143  17.949  0.00  0.00    +0.000 A 
ATOM      8  C   UNL     1       1.006  10.859  18.722  0.00  0.00    +0.000 A 
ATOM      9  C   UNL     1       0.402  10.281  19.838  0.00  0.00    +0.000 A 
ATOM     10  C   UNL     1       0.711   8.970  20.220  0.00  0.00    +0.000 A 
ATOM     11  C   UNL     1       1.639   8.231  19.460  0.00  0.00    +0.000 A 
ATOM     12  C   UNL     1       4.080   5.673  18.370  0.00  0.00    +0.000 C 
ATOM     13  C   UNL     1       4.012   4.821  17.126  0.00  0.00    +0.000 C 
ATOM     14  C   UNL     1       4.820   3.590  17.563  0.00  0.00    +0.000 C 
ATOM     15  C   UNL     1       4.579   3.521  19.061  0.00  0.00    +0.000 C 
ATOM     16  O   UNL     1       4.798   2.561  19.780  0.00  0.00    +0.000 OA
ATOM     17  N   UNL     1       3.961   4.713  19.450  0.00  0.00    +0.000 N 
ATOM     18  H   UNL     1       3.669   8.102  16.977  0.00  0.00    +0.000 HD
ENDROOT
BRANCH   1  19
ATOM     19  C   UNL     1       1.663   3.693  19.593  0.00  0.00    +0.000 C 
ATOM     20  O   UNL     1       1.095   3.950  18.541  0.00  0.00    +0.000 OA
BRANCH  19  22
ATOM     21  C   UNL     1       1.738   2.634  21.715  0.00  0.00    +0.000 C 
ATOM     22  O   UNL     1       1.463   2.550  20.313  0.00  0.00    +0.000 OA
ENDBRANCH  19  22
ENDBRANCH   1  19
TORSDOF 2
ENDMDL
MODEL 2
REMARK VINA RESULT:      -7.2      3.348      5.414
REMARK  Name = 
REMARK  3 active torsions:
REMARK  status: ('A' for Active; 'I' for Inactive)
REMARK    1  A    between atoms: C_1  and  O_2
REMARK    2  A    between atoms: O_2  and  C_3
REMARK    3  A    between atoms: C_3  and  C_5
REMARK                            x       y       z     vdW  Elec       q    Type
REMARK                         _______ _______ _______ _____ _____    ______ ____
ROOT
ATOM      1  C   UNL     1       5.633   6.547  16.401  0.00  0.00    +0.000 C 
ATOM      2  C   UNL     1       4.515   6.807  17.438  0.00  0.00    +0.000 C 
ATOM      3  C   UNL     1       3.849   5.543  17.864  0.00  0.00    +0.000 A 
ATOM      4  C   UNL     1       3.986   4.368  17.145  0.00  0.00    +0.000 A 
ATOM      5  N   UNL     1       3.178   3.427  17.722  0.00  0.00    +0.000 N 
ATOM      6  C   UNL     1       2.485   3.981  18.778  0.00  0.00    +0.000 A 
ATOM      7  C   UNL     1       1.502   3.421  19.600  0.00  0.00    +0.000 A 
ATOM      8  C   UNL     1       0.946   4.234  20.592  0.00  0.00    +0.000 A 
ATOM      9  C   UNL     1       1.364   5.554  20.755  0.00  0.00    +0.000 A 
ATOM     10  C   UNL     1       2.343   6.103  19.919  0.00  0.00    +0.000 A 
ATOM     11  C   UNL     1       2.913   5.304  18.908  0.00  0.00    +0.000 A 
ATOM     12  C   UNL     1       4.719   4.190  15.877  0.00  0.00    +0.000 C 
ATOM     13  C   UNL     1       5.851   3.194  15.805  0.00  0.00    +0.000 C 
ATOM     14  C   UNL     1       6.578   3.659  14.536  0.00  0.00    +0.000 C 
ATOM     15  C   UNL     1       6.312   5.154  14.502  0.00  0.00    +0.000 C 
ATOM     16  O   UNL     1       6.912   5.975  13.829  0.00  0.00    +0.000 OA
ATOM     17  N   UNL     1       5.332   5.435  15.458  0.00  0.00    +0.000 N 
ATOM     18  H   UNL     1       3.037   2.483  17.383  0.00  0.00    +0.000 HD
ENDROOT
BRANCH   1  19
ATOM     19  C   UNL     1       6.972   6.326  17.149  0.00  0.00    +0.000 C 
ATOM     20  O   UNL     1       7.225   5.394  17.900  0.00  0.00    +0.000 OA
BRANCH  19  22
ATOM     21  C   UNL     1       7.920   8.427  17.713  0.00  0.00    +0.000 C 
ATOM     22  O   UNL     1       7.862   7.309  16.821  0.00  0.00    +0.000 OA
ENDBRANCH  19  22
ENDBRANCH   1  19
TORSDOF 2
ENDMDL
MODEL 3
REMARK VINA RESULT:      -7.2      3.757      5.327
REMARK  Name = 
REMARK  3 active torsions:
REMARK  status: ('A' for Active; 'I' for Inactive)
REMARK    1  A    between atoms: C_1  and  O_2
REMARK    2  A    between atoms: O_2  and  C_3
REMARK    3  A    between atoms: C_3  and  C_5
REMARK                            x       y       z     vdW  Elec       q    Type
REMARK                         _______ _______ _______ _____ _____    ______ ____
ROOT
ATOM      1  C   UNL     1       6.183   5.748  17.335  0.00  0.00    +0.000 C 
ATOM      2  C   UNL     1       5.058   5.831  18.393  0.00  0.00    +0.000 C 
ATOM      3  C   UNL     1       4.032   4.768  18.196  0.00  0.00    +0.000 A 
ATOM      4  C   UNL     1       3.936   4.057  17.012  0.00  0.00    +0.000 A 
ATOM      5  N   UNL     1       2.842   3.240  17.101  0.00  0.00    +0.000 N 
ATOM      6  C   UNL     1       2.200   3.438  18.305  0.00  0.00    +0.000 A 
ATOM      7  C   UNL     1       1.010   2.885  18.791  0.00  0.00    +0.000 A 
ATOM      8  C   UNL     1       0.576   3.291  20.056  0.00  0.00    +0.000 A 
ATOM      9  C   UNL     1       1.308   4.211  20.805  0.00  0.00    +0.000 A 
ATOM     10  C   UNL     1       2.493   4.762  20.302  0.00  0.00    +0.000 A 
ATOM     11  C   UNL     1       2.946   4.373  19.026  0.00  0.00    +0.000 A 
ATOM     12  C   UNL     1       4.743   4.259  15.794  0.00  0.00    +0.000 C 
ATOM     13  C   UNL     1       5.567   3.118  15.249  0.00  0.00    +0.000 C 
ATOM     14  C   UNL     1       6.542   3.866  14.328  0.00  0.00    +0.000 C 
ATOM     15  C   UNL     1       6.691   5.222  14.996  0.00  0.00    +0.000 C 
ATOM     16  O   UNL     1       7.565   6.041  14.770  0.00  0.00    +0.000 OA
ATOM     17  N   UNL     1       5.713   5.319  15.989  0.00  0.00    +0.000 N 
ATOM     18  H   UNL     1       2.496   2.635  16.366  0.00  0.00    +0.000 HD
ENDROOT
BRANCH   1  19
ATOM     19  C   UNL     1       7.313   4.834  17.873  0.00  0.00    +0.000 C 
ATOM     20  O   UNL     1       8.134   4.237  17.190  0.00  0.00    +0.000 OA
BRANCH  19  22
ATOM     21  C   UNL     1       8.256   5.648  19.893  0.00  0.00    +0.000 C 
ATOM     22  O   UNL     1       7.293   4.815  19.238  0.00  0.00    +0.000 OA
ENDBRANCH  19  22
ENDBRANCH   1  19
TORSDOF 2
ENDMDL
MODEL 4
REMARK VINA RESULT:      -7.1      1.615      3.260
REMARK  Name = 
REMARK  3 active torsions:
REMARK  status: ('A' for Active; 'I' for Inactive)
REMARK    1  A    between atoms: C_1  and  O_2
REMARK    2  A    between atoms: O_2  and  C_3
REMARK    3  A    between atoms: C_3  and  C_5
REMARK                            x       y       z     vdW  Elec       q    Type
REMARK                         _______ _______ _______ _____ _____    ______ ____
ROOT
ATOM      1  C   UNL     1       3.601   4.684  18.102  0.00  0.00    +0.000 C 
ATOM      2  C   UNL     1       3.147   6.102  17.683  0.00  0.00    +0.000 C 
ATOM      3  C   UNL     1       2.492   6.829  18.809  0.00  0.00    +0.000 A 
ATOM      4  C   UNL     1       2.043   6.169  19.940  0.00  0.00    +0.000 A 
ATOM      5  N   UNL     1       1.400   7.083  20.730  0.00  0.00    +0.000 N 
ATOM      6  C   UNL     1       1.386   8.316  20.113  0.00  0.00    +0.000 A 
ATOM      7  C   UNL     1       0.781   9.513  20.510  0.00  0.00    +0.000 A 
ATOM      8  C   UNL     1       0.912  10.618  19.664  0.00  0.00    +0.000 A 
ATOM      9  C   UNL     1       1.626  10.526  18.470  0.00  0.00    +0.000 A 
ATOM     10  C   UNL     1       2.219   9.319  18.082  0.00  0.00    +0.000 A 
ATOM     11  C   UNL     1       2.094   8.190  18.916  0.00  0.00    +0.000 A 
ATOM     12  C   UNL     1       2.076   4.715  20.185  0.00  0.00    +0.000 C 
ATOM     13  C   UNL     1       2.818   4.179  21.385  0.00  0.00    +0.000 C 
ATOM     14  C   UNL     1       2.982   2.702  21.001  0.00  0.00    +0.000 C 
ATOM     15  C   UNL     1       3.050   2.736  19.484  0.00  0.00    +0.000 C 
ATOM     16  O   UNL     1       3.444   1.835  18.762  0.00  0.00    +0.000 OA
ATOM     17  N   UNL     1       2.684   4.019  19.068  0.00  0.00    +0.000 N 
ATOM     18  H   UNL     1       0.927   6.879  21.603  0.00  0.00    +0.000 HD
ENDROOT
BRANCH   1  19
ATOM     19  C   UNL     1       5.053   4.758  18.638  0.00  0.00    +0.000 C 
ATOM     20  O   UNL     1       5.403   5.294  19.680  0.00  0.00    +0.000 OA
BRANCH  19  22
ATOM     21  C   UNL     1       7.222   4.634  17.685  0.00  0.00    +0.000 C 
ATOM     22  O   UNL     1       5.900   4.098  17.794  0.00  0.00    +0.000 OA
ENDBRANCH  19  22
ENDBRANCH   1  19
TORSDOF 2
ENDMDL
MODEL 5
REMARK VINA RESULT:      -7.0      2.299      5.159
REMARK  Name = 
REMARK  3 active torsions:
REMARK  status: ('A' for Active; 'I' for Inactive)
REMARK    1  A    between atoms: C_1  and  O_2
REMARK    2  A    between atoms: O_2  and  C_3
REMARK    3  A    between atoms: C_3  and  C_5
REMARK                            x       y       z     vdW  Elec       q    Type
REMARK                         _______ _______ _______ _____ _____    ______ ____
ROOT
ATOM      1  C   UNL     1       3.481   4.981  20.177  0.00  0.00    +0.000 C 
ATOM      2  C   UNL     1       4.664   5.482  19.316  0.00  0.00    +0.000 C 
ATOM      3  C   UNL     1       4.791   4.709  18.047  0.00  0.00    +0.000 A 
ATOM      4  C   UNL     1       4.157   3.491  17.868  0.00  0.00    +0.000 A 
ATOM      5  N   UNL     1       4.552   2.988  16.658  0.00  0.00    +0.000 N 
ATOM      6  C   UNL     1       5.463   3.836  16.066  0.00  0.00    +0.000 A 
ATOM      7  C   UNL     1       6.183   3.693  14.875  0.00  0.00    +0.000 A 
ATOM      8  C   UNL     1       7.070   4.716  14.526  0.00  0.00    +0.000 A 
ATOM      9  C   UNL     1       7.224   5.839  15.337  0.00  0.00    +0.000 A 
ATOM     10  C   UNL     1       6.502   5.965  16.530  0.00  0.00    +0.000 A 
ATOM     11  C   UNL     1       5.608   4.944  16.906  0.00  0.00    +0.000 A 
ATOM     12  C   UNL     1       3.348   2.764  18.863  0.00  0.00    +0.000 C 
ATOM     13  C   UNL     1       1.910   2.426  18.550  0.00  0.00    +0.000 C 
ATOM     14  C   UNL     1       1.363   2.123  19.952  0.00  0.00    +0.000 C 
ATOM     15  C   UNL     1       2.202   3.005  20.859  0.00  0.00    +0.000 C 
ATOM     16  O   UNL     1       1.945   3.297  22.016  0.00  0.00    +0.000 OA
ATOM     17  N   UNL     1       3.263   3.511  20.102  0.00  0.00    +0.000 N 
ATOM     18  H   UNL     1       4.285   2.087  16.279  0.00  0.00    +0.000 HD
ENDROOT
BRANCH   1  19
ATOM     19  C   UNL     1       2.208   5.778  19.797  0.00  0.00    +0.000 C 
ATOM     20  O   UNL     1       1.707   5.832  18.683  0.00  0.00    +0.000 OA
BRANCH  19  22
ATOM     21  C   UNL     1       1.492   7.806  20.800  0.00  0.00    +0.000 C 
ATOM     22  O   UNL     1       1.690   6.392  20.901  0.00  0.00    +0.000 OA
ENDBRANCH  19  22
ENDBRANCH   1  19
TORSDOF 2
ENDMDL
MODEL 6
REMARK VINA RESULT:      -6.9      2.238      5.234
REMARK  Name = 
REMARK  3 active torsions:
REMARK  status: ('A' for Active; 'I' for Inactive)
REMARK    1  A    between atoms: C_1  and  O_2
REMARK    2  A    between atoms: O_2  and  C_3
REMARK    3  A    between atoms: C_3  and  C_5
REMARK                            x       y       z     vdW  Elec       q    Type
REMARK                         _______ _______ _______ _____ _____    ______ ____
ROOT
ATOM      1  C   UNL     1       3.381   4.947  20.143  0.00  0.00    +0.000 C 
ATOM      2  C   UNL     1       4.681   5.301  19.383  0.00  0.00    +0.000 C 
ATOM      3  C   UNL     1       4.686   4.740  18.002  0.00  0.00    +0.000 A 
ATOM      4  C   UNL     1       3.805   3.744  17.616  0.00  0.00    +0.000 A 
ATOM      5  N   UNL     1       4.128   3.371  16.339  0.00  0.00    +0.000 N 
ATOM      6  C   UNL     1       5.230   4.075  15.905  0.00  0.00    +0.000 A 
ATOM      7  C   UNL     1       5.951   3.970  14.710  0.00  0.00    +0.000 A 
ATOM      8  C   UNL     1       7.057   4.808  14.544  0.00  0.00    +0.000 A 
ATOM      9  C   UNL     1       7.423   5.718  15.535  0.00  0.00    +0.000 A 
ATOM     10  C   UNL     1       6.698   5.805  16.729  0.00  0.00    +0.000 A 
ATOM     11  C   UNL     1       5.583   4.967  16.921  0.00  0.00    +0.000 A 
ATOM     12  C   UNL     1       2.811   3.066  18.469  0.00  0.00    +0.000 C 
ATOM     13  C   UNL     1       1.349   3.121  18.097  0.00  0.00    +0.000 C 
ATOM     14  C   UNL     1       0.688   2.723  19.425  0.00  0.00    +0.000 C 
ATOM     15  C   UNL     1       1.664   3.229  20.473  0.00  0.00    +0.000 C 
ATOM     16  O   UNL     1       1.430   3.377  21.661  0.00  0.00    +0.000 OA
ATOM     17  N   UNL     1       2.842   3.598  19.817  0.00  0.00    +0.000 N 
ATOM     18  H   UNL     1       3.683   2.629  15.812  0.00  0.00    +0.000 HD
ENDROOT
BRANCH   1  19
ATOM     19  C   UNL     1       2.335   6.064  19.898  0.00  0.00    +0.000 C 
ATOM     20  O   UNL     1       1.588   6.540  20.741  0.00  0.00    +0.000 OA
BRANCH  19  22
ATOM     21  C   UNL     1       2.317   7.895  18.389  0.00  0.00    +0.000 C 
ATOM     22  O   UNL     1       2.388   6.481  18.598  0.00  0.00    +0.000 OA
ENDBRANCH  19  22
ENDBRANCH   1  19
TORSDOF 2
ENDMDL
MODEL 7
REMARK VINA RESULT:      -6.8      3.224      4.275
REMARK  Name = 
REMARK  3 active torsions:
REMARK  status: ('A' for Active; 'I' for Inactive)
REMARK    1  A    between atoms: C_1  and  O_2
REMARK    2  A    between atoms: O_2  and  C_3
REMARK    3  A    between atoms: C_3  and  C_5
REMARK                            x       y       z     vdW  Elec       q    Type
REMARK                         _______ _______ _______ _____ _____    ______ ____
ROOT
ATOM      1  C   UNL     1       3.714   2.885  19.741  0.00  0.00    +0.000 C 
ATOM      2  C   UNL     1       5.131   3.503  19.685  0.00  0.00    +0.000 C 
ATOM      3  C   UNL     1       5.175   4.710  18.810  0.00  0.00    +0.000 A 
ATOM      4  C   UNL     1       4.165   4.993  17.906  0.00  0.00    +0.000 A 
ATOM      5  N   UNL     1       4.545   6.092  17.185  0.00  0.00    +0.000 N 
ATOM      6  C   UNL     1       5.801   6.504  17.575  0.00  0.00    +0.000 A 
ATOM      7  C   UNL     1       6.611   7.526  17.068  0.00  0.00    +0.000 A 
ATOM      8  C   UNL     1       7.868   7.708  17.650  0.00  0.00    +0.000 A 
ATOM      9  C   UNL     1       8.294   6.899  18.703  0.00  0.00    +0.000 A 
ATOM     10  C   UNL     1       7.477   5.875  19.195  0.00  0.00    +0.000 A 
ATOM     11  C   UNL     1       6.208   5.669  18.619  0.00  0.00    +0.000 A 
ATOM     12  C   UNL     1       2.976   4.167  17.625  0.00  0.00    +0.000 C 
ATOM     13  C   UNL     1       1.599   4.754  17.822  0.00  0.00    +0.000 C 
ATOM     14  C   UNL     1       0.738   3.484  17.872  0.00  0.00    +0.000 C 
ATOM     15  C   UNL     1       1.676   2.441  18.455  0.00  0.00    +0.000 C 
ATOM     16  O   UNL     1       1.349   1.364  18.923  0.00  0.00    +0.000 OA
ATOM     17  N   UNL     1       2.965   2.980  18.458  0.00  0.00    +0.000 N 
ATOM     18  H   UNL     1       4.025   6.503  16.419  0.00  0.00    +0.000 HD
ENDROOT
BRANCH   1  19
ATOM     19  C   UNL     1       2.933   3.523  20.917  0.00  0.00    +0.000 C 
ATOM     20  O   UNL     1       2.570   4.689  20.984  0.00  0.00    +0.000 OA
BRANCH  19  22
ATOM     21  C   UNL     1       1.286   2.400  22.204  0.00  0.00    +0.000 C 
ATOM     22  O   UNL     1       2.666   2.581  21.870  0.00  0.00    +0.000 OA
ENDBRANCH  19  22
ENDBRANCH   1  19
TORSDOF 2
ENDMDL
MODEL 8
REMARK VINA RESULT:      -6.7      3.714      7.058
REMARK  Name = 
REMARK  3 active torsions:
REMARK  status: ('A' for Active; 'I' for Inactive)
REMARK    1  A    between atoms: C_1  and  O_2
REMARK    2  A    between atoms: O_2  and  C_3
REMARK    3  A    between atoms: C_3  and  C_5
REMARK                            x       y       z     vdW  Elec       q    Type
REMARK                         _______ _______ _______ _____ _____    ______ ____
ROOT
ATOM      1  C   UNL     1       0.560  11.104  19.669  0.00  0.00    +0.000 C 
ATOM      2  C   UNL     1       1.523  10.234  18.828  0.00  0.00    +0.000 C 
ATOM      3  C   UNL     1       1.694   8.873  19.413  0.00  0.00    +0.000 A 
ATOM      4  C   UNL     1       1.321   8.587  20.715  0.00  0.00    +0.000 A 
ATOM      5  N   UNL     1       1.701   7.300  20.986  0.00  0.00    +0.000 N 
ATOM      6  C   UNL     1       2.351   6.759  19.898  0.00  0.00    +0.000 A 
ATOM      7  C   UNL     1       2.972   5.514  19.748  0.00  0.00    +0.000 A 
ATOM      8  C   UNL     1       3.584   5.237  18.522  0.00  0.00    +0.000 A 
ATOM      9  C   UNL     1       3.568   6.170  17.486  0.00  0.00    +0.000 A 
ATOM     10  C   UNL     1       2.950   7.414  17.653  0.00  0.00    +0.000 A 
ATOM     11  C   UNL     1       2.333   7.719  18.882  0.00  0.00    +0.000 A 
ATOM     12  C   UNL     1       0.782   9.535  21.707  0.00  0.00    +0.000 C 
ATOM     13  C   UNL     1      -0.573   9.280  22.321  0.00  0.00    +0.000 C 
ATOM     14  C   UNL     1      -0.912  10.667  22.887  0.00  0.00    +0.000 C 
ATOM     15  C   UNL     1      -0.200  11.619  21.942  0.00  0.00    +0.000 C 
ATOM     16  O   UNL     1      -0.404  12.817  21.840  0.00  0.00    +0.000 OA
ATOM     17  N   UNL     1       0.654  10.861  21.135  0.00  0.00    +0.000 N 
ATOM     18  H   UNL     1       1.598   6.831  21.878  0.00  0.00    +0.000 HD
ENDROOT
BRANCH   1  19
ATOM     19  C   UNL     1      -0.884  10.912  19.140  0.00  0.00    +0.000 C 
ATOM     20  O   UNL     1      -1.468   9.843  19.034  0.00  0.00    +0.000 OA
BRANCH  19  22
ATOM     21  C   UNL     1      -0.539  13.127  18.361  0.00  0.00    +0.000 C 
ATOM     22  O   UNL     1      -1.440  12.122  18.839  0.00  0.00    +0.000 OA
ENDBRANCH  19  22
ENDBRANCH   1  19
TORSDOF 2
ENDMDL
MODEL 9
REMARK VINA RESULT:      -6.7      1.820      2.387
REMARK  Name = 
REMARK  3 active torsions:
REMARK  status: ('A' for Active; 'I' for Inactive)
REMARK    1  A    between atoms: C_1  and  O_2
REMARK    2  A    between atoms: O_2  and  C_3
REMARK    3  A    between atoms: C_3  and  C_5
REMARK                            x       y       z     vdW  Elec       q    Type
REMARK                         _______ _______ _______ _____ _____    ______ ____
ROOT
ATOM      1  C   UNL     1       4.912   4.862  18.780  0.00  0.00    +0.000 C 
ATOM      2  C   UNL     1       3.949   5.609  19.733  0.00  0.00    +0.000 C 
ATOM      3  C   UNL     1       3.275   6.752  19.054  0.00  0.00    +0.000 A 
ATOM      4  C   UNL     1       3.740   7.267  17.855  0.00  0.00    +0.000 A 
ATOM      5  N   UNL     1       2.983   8.365  17.549  0.00  0.00    +0.000 N 
ATOM      6  C   UNL     1       2.061   8.597  18.547  0.00  0.00    +0.000 A 
ATOM      7  C   UNL     1       1.140   9.641  18.695  0.00  0.00    +0.000 A 
ATOM      8  C   UNL     1       0.334   9.637  19.837  0.00  0.00    +0.000 A 
ATOM      9  C   UNL     1       0.443   8.624  20.789  0.00  0.00    +0.000 A 
ATOM     10  C   UNL     1       1.374   7.591  20.631  0.00  0.00    +0.000 A 
ATOM     11  C   UNL     1       2.203   7.578  19.492  0.00  0.00    +0.000 A 
ATOM     12  C   UNL     1       4.945   6.840  17.121  0.00  0.00    +0.000 C 
ATOM     13  C   UNL     1       4.815   6.336  15.704  0.00  0.00    +0.000 C 
ATOM     14  C   UNL     1       6.153   5.606  15.522  0.00  0.00    +0.000 C 
ATOM     15  C   UNL     1       6.489   5.126  16.923  0.00  0.00    +0.000 C 
ATOM     16  O   UNL     1       7.316   4.278  17.212  0.00  0.00    +0.000 OA
ATOM     17  N   UNL     1       5.610   5.751  17.811  0.00  0.00    +0.000 N 
ATOM     18  H   UNL     1       3.122   8.973  16.751  0.00  0.00    +0.000 HD
ENDROOT
BRANCH   1  19
ATOM     19  C   UNL     1       4.136   3.725  18.070  0.00  0.00    +0.000 C 
ATOM     20  O   UNL     1       3.426   3.854  17.082  0.00  0.00    +0.000 OA
BRANCH  19  22
ATOM     21  C   UNL     1       3.419   1.498  18.469  0.00  0.00    +0.000 C 
ATOM     22  O   UNL     1       4.388   2.530  18.681  0.00  0.00    +0.000 OA
ENDBRANCH  19  22
ENDBRANCH   1  19
TORSDOF 2
ENDMDL
