MODEL 1
REMARK VINA RESULT:      -8.5      0.000      0.000
REMARK  Name = 
REMARK  7 active torsions:
REMARK  status: ('A' for Active; 'I' for Inactive)
REMARK    1  A    between atoms: C_1  and  C_2
REMARK    2  A    between atoms: C_4  and  C_5
REMARK    3  A    between atoms: C_5  and  O_6
REMARK    4  A    between atoms: C_5  and  C_7
REMARK    5  A    between atoms: C_5  and  C_27
REMARK    6  A    between atoms: C_8  and  C_9
REMARK    7  A    between atoms: C_21  and  C_22
REMARK                            x       y       z     vdW  Elec       q    Type
REMARK                         _______ _______ _______ _____ _____    ______ ____
ROOT
ATOM      1  C   UNL     1       2.151   7.442  19.405  0.00  0.00    +0.000 A 
ATOM      2  C   UNL     1       3.000   6.825  18.482  0.00  0.00    +0.000 A 
ATOM      3  C   UNL     1       3.388   5.471  18.620  0.00  0.00    +0.000 A 
ATOM      4  C   UNL     1       2.911   4.742  19.724  0.00  0.00    +0.000 A 
ATOM      5  C   UNL     1       2.098   5.386  20.671  0.00  0.00    +0.000 A 
ATOM      6  C   UNL     1       1.715   6.713  20.504  0.00  0.00    +0.000 A 
ATOM      7  F   UNL     1       0.896   7.262  21.414  0.00  0.00    +0.000 F 
ATOM      8  O   UNL     1       3.102   3.432  20.056  0.00  0.00    +0.000 OA
ATOM      9  C   UNL     1       3.646   2.457  19.171  0.00  0.00    +0.000 C 
ATOM     10  C   UNL     1       3.302   2.621  17.704  0.00  0.00    +0.000 C 
ATOM     11  N   UNL     1       4.171   3.623  17.128  0.00  0.00    +0.000 N 
ATOM     12  C   UNL     1       5.078   3.436  16.131  0.00  0.00    +0.000 A 
ATOM     13  C   UNL     1       5.694   4.660  15.967  0.00  0.00    +0.000 A 
ATOM     14  N   UNL     1       5.149   5.579  16.858  0.00  0.00    +0.000 NA
ATOM     15  C   UNL     1       4.246   4.919  17.568  0.00  0.00    +0.000 A 
ENDROOT
BRANCH  13  16
ATOM     16  C   UNL     1       6.760   4.971  15.019  0.00  0.00    +0.000 C 
ATOM     17  N   UNL     1       6.625   4.346  13.811  0.00  0.00    +0.000 N 
ATOM     18  O   UNL     1       7.697   5.726  15.255  0.00  0.00    +0.000 OA
ATOM     19  H   UNL     1       5.822   3.754  13.649  0.00  0.00    +0.000 HD
ATOM     20  H   UNL     1       7.302   4.522  13.087  0.00  0.00    +0.000 HD
ENDBRANCH  13  16
BRANCH   1  22
ATOM     21  C   UNL     1       1.352   9.929  19.055  0.00  0.00    +0.000 C 
ATOM     22  C   UNL     1       1.721   8.792  19.203  0.00  0.00    +0.000 C 
BRANCH  21  23
ATOM     23  C   UNL     1       0.889  11.327  18.896  0.00  0.00    +0.000 C 
BRANCH  23  27
ATOM     24  C   UNL     1      -3.648  10.187  17.177  0.00  0.00    +0.000 C 
ATOM     25  C   UNL     1      -2.464  10.768  17.833  0.00  0.00    +0.000 A 
ATOM     26  N   UNL     1      -1.211  10.375  17.818  0.00  0.00    +0.000 NA
ATOM     27  C   UNL     1      -0.594  11.331  18.604  0.00  0.00    +0.000 A 
ATOM     28  N   UNL     1      -1.431  12.269  19.080  0.00  0.00    +0.000 NA
ATOM     29  O   UNL     1      -2.670  11.897  18.567  0.00  0.00    +0.000 OA
ENDBRANCH  23  27
BRANCH  23  30
ATOM     30  O   UNL     1       1.633  11.935  17.820  0.00  0.00    +0.000 OA
ATOM     31  H   UNL     1       2.561  11.942  18.115  0.00  0.00    +0.000 HD
ENDBRANCH  23  30
BRANCH  23  32
ATOM     32  C   UNL     1       1.191  12.127  20.176  0.00  0.00    +0.000 C 
ATOM     33  F   UNL     1       0.950  11.344  21.274  0.00  0.00    +0.000 F 
ENDBRANCH  23  32
ENDBRANCH  21  23
ENDBRANCH   1  22
TORSDOF 6
ENDMDL
MODEL 2
REMARK VINA RESULT:      -8.5      1.802      2.173
REMARK  Name = 
REMARK  7 active torsions:
REMARK  status: ('A' for Active; 'I' for Inactive)
REMARK    1  A    between atoms: C_1  and  C_2
REMARK    2  A    between atoms: C_4  and  C_5
REMARK    3  A    between atoms: C_5  and  O_6
REMARK    4  A    between atoms: C_5  and  C_7
REMARK    5  A    between atoms: C_5  and  C_27
REMARK    6  A    between atoms: C_8  and  C_9
REMARK    7  A    between atoms: C_21  and  C_22
REMARK                            x       y       z     vdW  Elec       q    Type
REMARK                         _______ _______ _______ _____ _____    ______ ____
ROOT
ATOM      1  C   UNL     1       2.006   7.451  19.503  0.00  0.00    +0.000 A 
ATOM      2  C   UNL     1       2.870   6.848  18.585  0.00  0.00    +0.000 A 
ATOM      3  C   UNL     1       3.258   5.493  18.710  0.00  0.00    +0.000 A 
ATOM      4  C   UNL     1       2.764   4.747  19.794  0.00  0.00    +0.000 A 
ATOM      5  C   UNL     1       1.935   5.376  20.737  0.00  0.00    +0.000 A 
ATOM      6  C   UNL     1       1.553   6.705  20.585  0.00  0.00    +0.000 A 
ATOM      7  F   UNL     1       0.720   7.239  21.489  0.00  0.00    +0.000 F 
ATOM      8  O   UNL     1       2.950   3.433  20.110  0.00  0.00    +0.000 OA
ATOM      9  C   UNL     1       3.510   2.471  19.219  0.00  0.00    +0.000 C 
ATOM     10  C   UNL     1       3.190   2.657  17.749  0.00  0.00    +0.000 C 
ATOM     11  N   UNL     1       4.067   3.668  17.203  0.00  0.00    +0.000 N 
ATOM     12  C   UNL     1       4.990   3.497  16.217  0.00  0.00    +0.000 A 
ATOM     13  C   UNL     1       5.608   4.724  16.082  0.00  0.00    +0.000 A 
ATOM     14  N   UNL     1       5.047   5.629  16.978  0.00  0.00    +0.000 NA
ATOM     15  C   UNL     1       4.133   4.958  17.663  0.00  0.00    +0.000 A 
ENDROOT
BRANCH  13  16
ATOM     16  C   UNL     1       6.689   5.050  15.156  0.00  0.00    +0.000 C 
ATOM     17  N   UNL     1       7.600   5.935  15.661  0.00  0.00    +0.000 N 
ATOM     18  O   UNL     1       6.797   4.582  14.028  0.00  0.00    +0.000 OA
ATOM     19  H   UNL     1       7.487   6.275  16.605  0.00  0.00    +0.000 HD
ATOM     20  H   UNL     1       8.394   6.198  15.099  0.00  0.00    +0.000 HD
ENDBRANCH  13  16
BRANCH   1  22
ATOM     21  C   UNL     1       1.225   9.947  19.178  0.00  0.00    +0.000 C 
ATOM     22  C   UNL     1       1.578   8.804  19.314  0.00  0.00    +0.000 C 
BRANCH  21  23
ATOM     23  C   UNL     1       0.798  11.358  19.032  0.00  0.00    +0.000 C 
BRANCH  23  27
ATOM     24  C   UNL     1      -2.175  12.312  22.917  0.00  0.00    +0.000 C 
ATOM     25  C   UNL     1      -1.077  12.197  21.943  0.00  0.00    +0.000 A 
ATOM     26  N   UNL     1      -1.038  11.584  20.781  0.00  0.00    +0.000 NA
ATOM     27  C   UNL     1       0.250  11.851  20.353  0.00  0.00    +0.000 A 
ATOM     28  N   UNL     1       0.969  12.594  21.212  0.00  0.00    +0.000 NA
ATOM     29  O   UNL     1       0.088  12.825  22.265  0.00  0.00    +0.000 OA
ENDBRANCH  23  27
BRANCH  23  30
ATOM     30  O   UNL     1      -0.202  11.428  17.995  0.00  0.00    +0.000 OA
ATOM     31  H   UNL     1      -0.884  12.036  18.331  0.00  0.00    +0.000 HD
ENDBRANCH  23  30
BRANCH  23  32
ATOM     32  C   UNL     1       1.990  12.223  18.585  0.00  0.00    +0.000 C 
ATOM     33  F   UNL     1       2.706  11.556  17.626  0.00  0.00    +0.000 F 
ENDBRANCH  23  32
ENDBRANCH  21  23
ENDBRANCH   1  22
TORSDOF 6
ENDMDL
MODEL 3
REMARK VINA RESULT:      -8.4      0.838      1.023
REMARK  Name = 
REMARK  7 active torsions:
REMARK  status: ('A' for Active; 'I' for Inactive)
REMARK    1  A    between atoms: C_1  and  C_2
REMARK    2  A    between atoms: C_4  and  C_5
REMARK    3  A    between atoms: C_5  and  O_6
REMARK    4  A    between atoms: C_5  and  C_7
REMARK    5  A    between atoms: C_5  and  C_27
REMARK    6  A    between atoms: C_8  and  C_9
REMARK    7  A    between atoms: C_21  and  C_22
REMARK                            x       y       z     vdW  Elec       q    Type
REMARK                         _______ _______ _______ _____ _____    ______ ____
ROOT
ATOM      1  C   UNL     1       2.118   7.290  19.454  0.00  0.00    +0.000 A 
ATOM      2  C   UNL     1       2.956   6.688  18.511  0.00  0.00    +0.000 A 
ATOM      3  C   UNL     1       3.398   5.351  18.657  0.00  0.00    +0.000 A 
ATOM      4  C   UNL     1       2.985   4.624  19.788  0.00  0.00    +0.000 A 
ATOM      5  C   UNL     1       2.182   5.255  20.753  0.00  0.00    +0.000 A 
ATOM      6  C   UNL     1       1.746   6.564  20.579  0.00  0.00    +0.000 A 
ATOM      7  F   UNL     1       0.940   7.099  21.508  0.00  0.00    +0.000 F 
ATOM      8  O   UNL     1       3.234   3.328  20.133  0.00  0.00    +0.000 OA
ATOM      9  C   UNL     1       3.782   2.357  19.245  0.00  0.00    +0.000 C 
ATOM     10  C   UNL     1       3.382   2.485  17.788  0.00  0.00    +0.000 C 
ATOM     11  N   UNL     1       4.195   3.507  17.167  0.00  0.00    +0.000 N 
ATOM     12  C   UNL     1       5.073   3.336  16.142  0.00  0.00    +0.000 A 
ATOM     13  C   UNL     1       5.639   4.578  15.938  0.00  0.00    +0.000 A 
ATOM     14  N   UNL     1       5.092   5.492  16.833  0.00  0.00    +0.000 NA
ATOM     15  C   UNL     1       4.238   4.813  17.585  0.00  0.00    +0.000 A 
ENDROOT
BRANCH  13  16
ATOM     16  C   UNL     1       6.660   4.911  14.948  0.00  0.00    +0.000 C 
ATOM     17  N   UNL     1       7.602   5.792  15.402  0.00  0.00    +0.000 N 
ATOM     18  O   UNL     1       6.697   4.452  13.812  0.00  0.00    +0.000 OA
ATOM     19  H   UNL     1       7.549   6.124  16.354  0.00  0.00    +0.000 HD
ATOM     20  H   UNL     1       8.359   6.058  14.793  0.00  0.00    +0.000 HD
ENDBRANCH  13  16
BRANCH   1  22
ATOM     21  C   UNL     1       1.204   9.733  19.077  0.00  0.00    +0.000 C 
ATOM     22  C   UNL     1       1.633   8.621  19.246  0.00  0.00    +0.000 C 
BRANCH  21  23
ATOM     23  C   UNL     1       0.653  11.094  18.875  0.00  0.00    +0.000 C 
BRANCH  23  27
ATOM     24  C   UNL     1      -4.243  11.825  18.303  0.00  0.00    +0.000 C 
ATOM     25  C   UNL     1      -2.843  11.373  18.251  0.00  0.00    +0.000 A 
ATOM     26  N   UNL     1      -1.785  11.826  18.886  0.00  0.00    +0.000 NA
ATOM     27  C   UNL     1      -0.787  10.986  18.426  0.00  0.00    +0.000 A 
ATOM     28  N   UNL     1      -1.212  10.060  17.549  0.00  0.00    +0.000 NA
ATOM     29  O   UNL     1      -2.576  10.316  17.435  0.00  0.00    +0.000 OA
ENDBRANCH  23  27
BRANCH  23  30
ATOM     30  O   UNL     1       1.458  11.770  17.887  0.00  0.00    +0.000 OA
ATOM     31  H   UNL     1       1.898  12.497  18.362  0.00  0.00    +0.000 HD
ENDBRANCH  23  30
BRANCH  23  32
ATOM     32  C   UNL     1       0.754  11.898  20.183  0.00  0.00    +0.000 C 
ATOM     33  F   UNL     1       0.350  11.118  21.234  0.00  0.00    +0.000 F 
ENDBRANCH  23  32
ENDBRANCH  21  23
ENDBRANCH   1  22
TORSDOF 6
ENDMDL
MODEL 4
REMARK VINA RESULT:      -7.9      1.204      1.370
REMARK  Name = 
REMARK  7 active torsions:
REMARK  status: ('A' for Active; 'I' for Inactive)
REMARK    1  A    between atoms: C_1  and  C_2
REMARK    2  A    between atoms: C_4  and  C_5
REMARK    3  A    between atoms: C_5  and  O_6
REMARK    4  A    between atoms: C_5  and  C_7
REMARK    5  A    between atoms: C_5  and  C_27
REMARK    6  A    between atoms: C_8  and  C_9
REMARK    7  A    between atoms: C_21  and  C_22
REMARK                            x       y       z     vdW  Elec       q    Type
REMARK                         _______ _______ _______ _____ _____    ______ ____
ROOT
ATOM      1  C   UNL     1       1.871   7.747  19.558  0.00  0.00    +0.000 A 
ATOM      2  C   UNL     1       2.740   7.126  18.656  0.00  0.00    +0.000 A 
ATOM      3  C   UNL     1       3.080   5.758  18.776  0.00  0.00    +0.000 A 
ATOM      4  C   UNL     1       2.534   5.018  19.840  0.00  0.00    +0.000 A 
ATOM      5  C   UNL     1       1.701   5.664  20.768  0.00  0.00    +0.000 A 
ATOM      6  C   UNL     1       1.367   7.005  20.619  0.00  0.00    +0.000 A 
ATOM      7  F   UNL     1       0.527   7.558  21.507  0.00  0.00    +0.000 F 
ATOM      8  O   UNL     1       2.670   3.695  20.146  0.00  0.00    +0.000 OA
ATOM      9  C   UNL     1       3.222   2.724  19.260  0.00  0.00    +0.000 C 
ATOM     10  C   UNL     1       2.946   2.934  17.784  0.00  0.00    +0.000 C 
ATOM     11  N   UNL     1       3.870   3.922  17.271  0.00  0.00    +0.000 N 
ATOM     12  C   UNL     1       4.812   3.731  16.309  0.00  0.00    +0.000 A 
ATOM     13  C   UNL     1       5.472   4.938  16.203  0.00  0.00    +0.000 A 
ATOM     14  N   UNL     1       4.917   5.852  17.092  0.00  0.00    +0.000 NA
ATOM     15  C   UNL     1       3.965   5.205  17.747  0.00  0.00    +0.000 A 
ENDROOT
BRANCH  13  16
ATOM     16  C   UNL     1       6.587   5.238  15.308  0.00  0.00    +0.000 C 
ATOM     17  N   UNL     1       7.535   6.052  15.861  0.00  0.00    +0.000 N 
ATOM     18  O   UNL     1       6.691   4.808  14.165  0.00  0.00    +0.000 OA
ATOM     19  H   UNL     1       7.423   6.362  16.817  0.00  0.00    +0.000 HD
ATOM     20  H   UNL     1       8.353   6.292  15.324  0.00  0.00    +0.000 HD
ENDBRANCH  13  16
BRANCH   1  22
ATOM     21  C   UNL     1       1.194  10.272  19.226  0.00  0.00    +0.000 C 
ATOM     22  C   UNL     1       1.492   9.115  19.372  0.00  0.00    +0.000 C 
BRANCH  21  23
ATOM     23  C   UNL     1       0.848  11.703  19.057  0.00  0.00    +0.000 C 
BRANCH  23  27
ATOM     24  C   UNL     1      -3.902  12.670  20.215  0.00  0.00    +0.000 C 
ATOM     25  C   UNL     1      -2.625  12.291  19.587  0.00  0.00    +0.000 A 
ATOM     26  N   UNL     1      -1.400  12.355  20.058  0.00  0.00    +0.000 NA
ATOM     27  C   UNL     1      -0.656  11.849  19.007  0.00  0.00    +0.000 A 
ATOM     28  N   UNL     1      -1.391  11.490  17.941  0.00  0.00    +0.000 NA
ATOM     29  O   UNL     1      -2.696  11.782  18.326  0.00  0.00    +0.000 OA
ENDBRANCH  23  27
BRANCH  23  30
ATOM     30  O   UNL     1       1.457  12.179  17.839  0.00  0.00    +0.000 OA
ATOM     31  H   UNL     1       2.364  11.824  17.845  0.00  0.00    +0.000 HD
ENDBRANCH  23  30
BRANCH  23  32
ATOM     32  C   UNL     1       1.434  12.525  20.219  0.00  0.00    +0.000 C 
ATOM     33  F   UNL     1       2.193  13.549  19.719  0.00  0.00    +0.000 F 
ENDBRANCH  23  32
ENDBRANCH  21  23
ENDBRANCH   1  22
TORSDOF 6
ENDMDL
MODEL 5
REMARK VINA RESULT:      -7.9      1.801      2.344
REMARK  Name = 
REMARK  7 active torsions:
REMARK  status: ('A' for Active; 'I' for Inactive)
REMARK    1  A    between atoms: C_1  and  C_2
REMARK    2  A    between atoms: C_4  and  C_5
REMARK    3  A    between atoms: C_5  and  O_6
REMARK    4  A    between atoms: C_5  and  C_7
REMARK    5  A    between atoms: C_5  and  C_27
REMARK    6  A    between atoms: C_8  and  C_9
REMARK    7  A    between atoms: C_21  and  C_22
REMARK                            x       y       z     vdW  Elec       q    Type
REMARK                         _______ _______ _______ _____ _____    ______ ____
ROOT
ATOM      1  C   UNL     1       1.837   8.028  19.557  0.00  0.00    +0.000 A 
ATOM      2  C   UNL     1       2.716   7.374  18.690  0.00  0.00    +0.000 A 
ATOM      3  C   UNL     1       3.043   6.007  18.856  0.00  0.00    +0.000 A 
ATOM      4  C   UNL     1       2.470   5.303  19.929  0.00  0.00    +0.000 A 
ATOM      5  C   UNL     1       1.625   5.982  20.822  0.00  0.00    +0.000 A 
ATOM      6  C   UNL     1       1.305   7.321  20.629  0.00  0.00    +0.000 A 
ATOM      7  F   UNL     1       0.454   7.906  21.484  0.00  0.00    +0.000 F 
ATOM      8  O   UNL     1       2.589   3.988  20.275  0.00  0.00    +0.000 OA
ATOM      9  C   UNL     1       3.149   2.988  19.428  0.00  0.00    +0.000 C 
ATOM     10  C   UNL     1       2.903   3.158  17.942  0.00  0.00    +0.000 C 
ATOM     11  N   UNL     1       3.844   4.123  17.419  0.00  0.00    +0.000 N 
ATOM     12  C   UNL     1       4.804   3.896  16.481  0.00  0.00    +0.000 A 
ATOM     13  C   UNL     1       5.475   5.095  16.353  0.00  0.00    +0.000 A 
ATOM     14  N   UNL     1       4.912   6.038  17.205  0.00  0.00    +0.000 NA
ATOM     15  C   UNL     1       3.942   5.418  17.860  0.00  0.00    +0.000 A 
ENDROOT
BRANCH  13  16
ATOM     16  C   UNL     1       6.609   5.360  15.471  0.00  0.00    +0.000 C 
ATOM     17  N   UNL     1       6.538   4.713  14.269  0.00  0.00    +0.000 N 
ATOM     18  O   UNL     1       7.548   6.096  15.755  0.00  0.00    +0.000 OA
ATOM     19  H   UNL     1       5.733   4.137  14.066  0.00  0.00    +0.000 HD
ATOM     20  H   UNL     1       7.266   4.857  13.589  0.00  0.00    +0.000 HD
ENDBRANCH  13  16
BRANCH   1  22
ATOM     21  C   UNL     1       1.184  10.543  19.114  0.00  0.00    +0.000 C 
ATOM     22  C   UNL     1       1.473   9.393  19.325  0.00  0.00    +0.000 C 
BRANCH  21  23
ATOM     23  C   UNL     1       0.846  11.958  18.836  0.00  0.00    +0.000 C 
BRANCH  23  27
ATOM     24  C   UNL     1      -1.651  14.592  22.251  0.00  0.00    +0.000 C 
ATOM     25  C   UNL     1      -0.708  13.758  21.489  0.00  0.00    +0.000 A 
ATOM     26  N   UNL     1      -0.745  13.371  20.233  0.00  0.00    +0.000 NA
ATOM     27  C   UNL     1       0.417  12.629  20.121  0.00  0.00    +0.000 A 
ATOM     28  N   UNL     1       1.135  12.564  21.255  0.00  0.00    +0.000 NA
ATOM     29  O   UNL     1       0.390  13.314  22.161  0.00  0.00    +0.000 OA
ENDBRANCH  23  27
BRANCH  23  30
ATOM     30  O   UNL     1      -0.210  11.991  17.854  0.00  0.00    +0.000 OA
ATOM     31  H   UNL     1      -0.899  11.391  18.191  0.00  0.00    +0.000 HD
ENDBRANCH  23  30
BRANCH  23  32
ATOM     32  C   UNL     1       2.064  12.678  18.230  0.00  0.00    +0.000 C 
ATOM     33  F   UNL     1       2.967  11.753  17.779  0.00  0.00    +0.000 F 
ENDBRANCH  23  32
ENDBRANCH  21  23
ENDBRANCH   1  22
TORSDOF 6
ENDMDL
MODEL 6
REMARK VINA RESULT:      -7.7      1.545      1.897
REMARK  Name = 
REMARK  7 active torsions:
REMARK  status: ('A' for Active; 'I' for Inactive)
REMARK    1  A    between atoms: C_1  and  C_2
REMARK    2  A    between atoms: C_4  and  C_5
REMARK    3  A    between atoms: C_5  and  O_6
REMARK    4  A    between atoms: C_5  and  C_7
REMARK    5  A    between atoms: C_5  and  C_27
REMARK    6  A    between atoms: C_8  and  C_9
REMARK    7  A    between atoms: C_21  and  C_22
REMARK                            x       y       z     vdW  Elec       q    Type
REMARK                         _______ _______ _______ _____ _____    ______ ____
ROOT
ATOM      1  C   UNL     1       1.823   7.626  19.689  0.00  0.00    +0.000 A 
ATOM      2  C   UNL     1       2.758   7.090  18.800  0.00  0.00    +0.000 A 
ATOM      3  C   UNL     1       3.157   5.734  18.870  0.00  0.00    +0.000 A 
ATOM      4  C   UNL     1       2.600   4.918  19.870  0.00  0.00    +0.000 A 
ATOM      5  C   UNL     1       1.697   5.479  20.788  0.00  0.00    +0.000 A 
ATOM      6  C   UNL     1       1.307   6.810  20.689  0.00  0.00    +0.000 A 
ATOM      7  F   UNL     1       0.404   7.279  21.562  0.00  0.00    +0.000 F 
ATOM      8  O   UNL     1       2.784   3.589  20.118  0.00  0.00    +0.000 OA
ATOM      9  C   UNL     1       3.419   2.690  19.213  0.00  0.00    +0.000 C 
ATOM     10  C   UNL     1       3.200   2.961  17.738  0.00  0.00    +0.000 C 
ATOM     11  N   UNL     1       4.097   4.014  17.317  0.00  0.00    +0.000 N 
ATOM     12  C   UNL     1       5.090   3.913  16.391  0.00  0.00    +0.000 A 
ATOM     13  C   UNL     1       5.696   5.153  16.374  0.00  0.00    +0.000 A 
ATOM     14  N   UNL     1       5.061   5.995  17.280  0.00  0.00    +0.000 NA
ATOM     15  C   UNL     1       4.111   5.274  17.858  0.00  0.00    +0.000 A 
ENDROOT
BRANCH  13  16
ATOM     16  C   UNL     1       6.834   5.547  15.547  0.00  0.00    +0.000 C 
ATOM     17  N   UNL     1       6.801   5.034  14.281  0.00  0.00    +0.000 N 
ATOM     18  O   UNL     1       7.745   6.275  15.927  0.00  0.00    +0.000 OA
ATOM     19  H   UNL     1       6.017   4.461  14.001  0.00  0.00    +0.000 HD
ATOM     20  H   UNL     1       7.534   5.275  13.633  0.00  0.00    +0.000 HD
ENDBRANCH  13  16
BRANCH   1  22
ATOM     21  C   UNL     1       1.027  10.123  19.414  0.00  0.00    +0.000 C 
ATOM     22  C   UNL     1       1.389   8.983  19.552  0.00  0.00    +0.000 C 
BRANCH  21  23
ATOM     23  C   UNL     1       0.585  11.524  19.219  0.00  0.00    +0.000 C 
BRANCH  23  27
ATOM     24  C   UNL     1      -2.202  11.767  23.344  0.00  0.00    +0.000 C 
ATOM     25  C   UNL     1      -1.611  11.889  22.001  0.00  0.00    +0.000 A 
ATOM     26  N   UNL     1      -0.495  11.386  21.520  0.00  0.00    +0.000 NA
ATOM     27  C   UNL     1      -0.507  11.844  20.215  0.00  0.00    +0.000 A 
ATOM     28  N   UNL     1      -1.581  12.591  19.907  0.00  0.00    +0.000 NA
ATOM     29  O   UNL     1      -2.313  12.619  21.092  0.00  0.00    +0.000 OA
ENDBRANCH  23  27
BRANCH  23  30
ATOM     30  O   UNL     1       0.112  11.669  17.864  0.00  0.00    +0.000 OA
ATOM     31  H   UNL     1       0.545  12.470  17.521  0.00  0.00    +0.000 HD
ENDBRANCH  23  30
BRANCH  23  32
ATOM     32  C   UNL     1       1.778  12.480  19.398  0.00  0.00    +0.000 C 
ATOM     33  F   UNL     1       1.368  13.769  19.187  0.00  0.00    +0.000 F 
ENDBRANCH  23  32
ENDBRANCH  21  23
ENDBRANCH   1  22
TORSDOF 6
ENDMDL
MODEL 7
REMARK VINA RESULT:      -7.6      1.900      2.856
REMARK  Name = 
REMARK  7 active torsions:
REMARK  status: ('A' for Active; 'I' for Inactive)
REMARK    1  A    between atoms: C_1  and  C_2
REMARK    2  A    between atoms: C_4  and  C_5
REMARK    3  A    between atoms: C_5  and  O_6
REMARK    4  A    between atoms: C_5  and  C_7
REMARK    5  A    between atoms: C_5  and  C_27
REMARK    6  A    between atoms: C_8  and  C_9
REMARK    7  A    between atoms: C_21  and  C_22
REMARK                            x       y       z     vdW  Elec       q    Type
REMARK                         _______ _______ _______ _____ _____    ______ ____
ROOT
ATOM      1  C   UNL     1       1.703   7.815  19.826  0.00  0.00    +0.000 A 
ATOM      2  C   UNL     1       2.725   7.309  19.019  0.00  0.00    +0.000 A 
ATOM      3  C   UNL     1       3.164   5.968  19.130  0.00  0.00    +0.000 A 
ATOM      4  C   UNL     1       2.556   5.137  20.088  0.00  0.00    +0.000 A 
ATOM      5  C   UNL     1       1.563   5.669  20.926  0.00  0.00    +0.000 A 
ATOM      6  C   UNL     1       1.136   6.985  20.786  0.00  0.00    +0.000 A 
ATOM      7  F   UNL     1       0.150   7.425  21.581  0.00  0.00    +0.000 F 
ATOM      8  O   UNL     1       2.766   3.816  20.359  0.00  0.00    +0.000 OA
ATOM      9  C   UNL     1       3.504   2.936  19.514  0.00  0.00    +0.000 C 
ATOM     10  C   UNL     1       3.395   3.194  18.025  0.00  0.00    +0.000 C 
ATOM     11  N   UNL     1       4.287   4.276  17.670  0.00  0.00    +0.000 N 
ATOM     12  C   UNL     1       5.354   4.206  16.828  0.00  0.00    +0.000 A 
ATOM     13  C   UNL     1       5.916   5.466  16.852  0.00  0.00    +0.000 A 
ATOM     14  N   UNL     1       5.180   6.290  17.698  0.00  0.00    +0.000 NA
ATOM     15  C   UNL     1       4.213   5.537  18.202  0.00  0.00    +0.000 A 
ENDROOT
BRANCH  13  16
ATOM     16  C   UNL     1       7.103   5.897  16.118  0.00  0.00    +0.000 C 
ATOM     17  N   UNL     1       7.395   5.117  15.034  0.00  0.00    +0.000 N 
ATOM     18  O   UNL     1       7.787   6.869  16.419  0.00  0.00    +0.000 OA
ATOM     19  H   UNL     1       6.789   4.342  14.806  0.00  0.00    +0.000 HD
ATOM     20  H   UNL     1       8.184   5.356  14.455  0.00  0.00    +0.000 HD
ENDBRANCH  13  16
BRANCH   1  22
ATOM     21  C   UNL     1       0.819  10.276  19.502  0.00  0.00    +0.000 C 
ATOM     22  C   UNL     1       1.234   9.155  19.645  0.00  0.00    +0.000 C 
BRANCH  21  23
ATOM     23  C   UNL     1       0.286  11.649  19.335  0.00  0.00    +0.000 C 
BRANCH  23  27
ATOM     24  C   UNL     1       3.004  15.622  18.044  0.00  0.00    +0.000 C 
ATOM     25  C   UNL     1       2.454  14.281  18.304  0.00  0.00    +0.000 A 
ATOM     26  N   UNL     1       1.321  13.928  18.869  0.00  0.00    +0.000 NA
ATOM     27  C   UNL     1       1.383  12.547  18.809  0.00  0.00    +0.000 A 
ATOM     28  N   UNL     1       2.502  12.075  18.233  0.00  0.00    +0.000 NA
ATOM     29  O   UNL     1       3.211  13.225  17.897  0.00  0.00    +0.000 OA
ENDBRANCH  23  27
BRANCH  23  30
ATOM     30  O   UNL     1      -0.196  12.110  20.614  0.00  0.00    +0.000 OA
ATOM     31  H   UNL     1      -0.158  11.335  21.202  0.00  0.00    +0.000 HD
ENDBRANCH  23  30
BRANCH  23  32
ATOM     32  C   UNL     1      -0.911  11.632  18.368  0.00  0.00    +0.000 C 
ATOM     33  F   UNL     1      -1.222  10.338  18.046  0.00  0.00    +0.000 F 
ENDBRANCH  23  32
ENDBRANCH  21  23
ENDBRANCH   1  22
TORSDOF 6
ENDMDL
MODEL 8
REMARK VINA RESULT:      -7.6      1.520      1.589
REMARK  Name = 
REMARK  7 active torsions:
REMARK  status: ('A' for Active; 'I' for Inactive)
REMARK    1  A    between atoms: C_1  and  C_2
REMARK    2  A    between atoms: C_4  and  C_5
REMARK    3  A    between atoms: C_5  and  O_6
REMARK    4  A    between atoms: C_5  and  C_7
REMARK    5  A    between atoms: C_5  and  C_27
REMARK    6  A    between atoms: C_8  and  C_9
REMARK    7  A    between atoms: C_21  and  C_22
REMARK                            x       y       z     vdW  Elec       q    Type
REMARK                         _______ _______ _______ _____ _____    ______ ____
ROOT
ATOM      1  C   UNL     1       1.752   7.919  19.716  0.00  0.00    +0.000 A 
ATOM      2  C   UNL     1       2.676   7.341  18.841  0.00  0.00    +0.000 A 
ATOM      3  C   UNL     1       3.025   5.972  18.929  0.00  0.00    +0.000 A 
ATOM      4  C   UNL     1       2.429   5.187  19.933  0.00  0.00    +0.000 A 
ATOM      5  C   UNL     1       1.538   5.790  20.836  0.00  0.00    +0.000 A 
ATOM      6  C   UNL     1       1.198   7.134  20.719  0.00  0.00    +0.000 A 
ATOM      7  F   UNL     1       0.304   7.644  21.579  0.00  0.00    +0.000 F 
ATOM      8  O   UNL     1       2.562   3.855  20.196  0.00  0.00    +0.000 OA
ATOM      9  C   UNL     1       3.173   2.924  19.307  0.00  0.00    +0.000 C 
ATOM     10  C   UNL     1       2.977   3.187  17.827  0.00  0.00    +0.000 C 
ATOM     11  N   UNL     1       3.917   4.202  17.404  0.00  0.00    +0.000 N 
ATOM     12  C   UNL     1       4.914   4.055  16.489  0.00  0.00    +0.000 A 
ATOM     13  C   UNL     1       5.565   5.272  16.465  0.00  0.00    +0.000 A 
ATOM     14  N   UNL     1       4.951   6.147  17.356  0.00  0.00    +0.000 NA
ATOM     15  C   UNL     1       3.971   5.466  17.932  0.00  0.00    +0.000 A 
ENDROOT
BRANCH  13  16
ATOM     16  C   UNL     1       6.724   5.616  15.646  0.00  0.00    +0.000 C 
ATOM     17  N   UNL     1       6.677   5.103  14.380  0.00  0.00    +0.000 N 
ATOM     18  O   UNL     1       7.662   6.305  16.030  0.00  0.00    +0.000 OA
ATOM     19  H   UNL     1       5.872   4.562  14.095  0.00  0.00    +0.000 HD
ATOM     20  H   UNL     1       7.425   5.310  13.737  0.00  0.00    +0.000 HD
ENDBRANCH  13  16
BRANCH   1  22
ATOM     21  C   UNL     1       1.050  10.446  19.453  0.00  0.00    +0.000 C 
ATOM     22  C   UNL     1       1.369   9.290  19.561  0.00  0.00    +0.000 C 
BRANCH  21  23
ATOM     23  C   UNL     1       0.662  11.872  19.345  0.00  0.00    +0.000 C 
BRANCH  23  27
ATOM     24  C   UNL     1      -4.136  12.852  20.274  0.00  0.00    +0.000 C 
ATOM     25  C   UNL     1      -2.705  12.507  20.321  0.00  0.00    +0.000 A 
ATOM     26  N   UNL     1      -1.821  12.433  19.351  0.00  0.00    +0.000 NA
ATOM     27  C   UNL     1      -0.670  12.078  20.031  0.00  0.00    +0.000 A 
ATOM     28  N   UNL     1      -0.839  11.942  21.357  0.00  0.00    +0.000 NA
ATOM     29  O   UNL     1      -2.188  12.227  21.549  0.00  0.00    +0.000 OA
ENDBRANCH  23  27
BRANCH  23  30
ATOM     30  O   UNL     1       0.587  12.220  17.948  0.00  0.00    +0.000 OA
ATOM     31  H   UNL     1       1.297  11.714  17.514  0.00  0.00    +0.000 HD
ENDBRANCH  23  30
BRANCH  23  32
ATOM     32  C   UNL     1       1.744  12.759  19.986  0.00  0.00    +0.000 C 
ATOM     33  F   UNL     1       1.784  13.968  19.345  0.00  0.00    +0.000 F 
ENDBRANCH  23  32
ENDBRANCH  21  23
ENDBRANCH   1  22
TORSDOF 6
ENDMDL
