MODEL 1
REMARK VINA RESULT:      -6.6      0.000      0.000
REMARK  Name = 
REMARK  3 active torsions:
REMARK  status: ('A' for Active; 'I' for Inactive)
REMARK    1  A    between atoms: C_1  and  C_2
REMARK    2  A    between atoms: C_2  and  C_3
REMARK    3  A    between atoms: C_11  and  C_13
REMARK                            x       y       z     vdW  Elec       q    Type
REMARK                         _______ _______ _______ _____ _____    ______ ____
ROOT
ATOM      1  C   UNL     1      -3.533   9.678  17.922  0.00  0.00    +0.000 C 
ATOM      2  C   UNL     1      -2.397  10.296  17.095  0.00  0.00    +0.000 C 
ATOM      3  C   UNL     1      -2.667  10.001  15.617  0.00  0.00    +0.000 C 
ATOM      4  O   UNL     1      -2.346  11.718  17.217  0.00  0.00    +0.000 OA
ATOM      5  C   UNL     1      -1.969  12.163  18.519  0.00  0.00    +0.000 C 
ATOM      6  C   UNL     1      -0.654  11.518  18.936  0.00  0.00    +0.000 C 
ATOM      7  C   UNL     1      -0.668  10.017  18.715  0.00  0.00    +0.000 C 
ATOM      8  O   UNL     1      -1.126   9.715  17.399  0.00  0.00    +0.000 OA
ATOM      9  C   UNL     1      -0.187  11.929  20.351  0.00  0.00    +0.000 C 
ATOM     10  N   UNL     1       0.663  12.906  19.692  0.00  0.00    +0.000 N 
ATOM     11  C   UNL     1       1.109  14.111  20.188  0.00  0.00    +0.000 C 
ATOM     12  O   UNL     1       0.920  14.410  21.363  0.00  0.00    +0.000 OA
ATOM     13  C   UNL     1       0.592  12.253  18.396  0.00  0.00    +0.000 C 
ENDROOT
BRANCH  11  14
ATOM     14  C   UNL     1       1.844  15.047  19.271  0.00  0.00    +0.000 A 
ATOM     15  C   UNL     1       3.238  14.904  19.160  0.00  0.00    +0.000 A 
ATOM     16  C   UNL     1       3.975  15.731  18.323  0.00  0.00    +0.000 A 
ATOM     17  C   UNL     1       3.339  16.755  17.631  0.00  0.00    +0.000 A 
ATOM     18  C   UNL     1       1.963  16.963  17.759  0.00  0.00    +0.000 A 
ATOM     19  C   UNL     1       1.370  18.035  17.074  0.00  0.00    +0.000 A 
ATOM     20  C   UNL     1       0.003  18.291  17.174  0.00  0.00    +0.000 A 
ATOM     21  C   UNL     1      -0.791  17.459  17.945  0.00  0.00    +0.000 A 
ATOM     22  C   UNL     1      -0.217  16.379  18.627  0.00  0.00    +0.000 A 
ATOM     23  C   UNL     1       1.175  16.103  18.575  0.00  0.00    +0.000 A 
ENDBRANCH  11  14
TORSDOF 1
ENDMDL
MODEL 2
REMARK VINA RESULT:      -6.4      4.280      6.505
REMARK  Name = 
REMARK  3 active torsions:
REMARK  status: ('A' for Active; 'I' for Inactive)
REMARK    1  A    between atoms: C_1  and  C_2
REMARK    2  A    between atoms: C_2  and  C_3
REMARK    3  A    between atoms: C_11  and  C_13
REMARK                            x       y       z     vdW  Elec       q    Type
REMARK                         _______ _______ _______ _____ _____    ______ ____
ROOT
ATOM      1  C   UNL     1      -7.804  13.644  23.657  0.00  0.00    +0.000 C 
ATOM      2  C   UNL     1      -6.966  12.394  23.349  0.00  0.00    +0.000 C 
ATOM      3  C   UNL     1      -7.861  11.165  23.526  0.00  0.00    +0.000 C 
ATOM      4  O   UNL     1      -6.507  12.366  21.997  0.00  0.00    +0.000 OA
ATOM      5  C   UNL     1      -5.549  13.380  21.700  0.00  0.00    +0.000 C 
ATOM      6  C   UNL     1      -4.390  13.313  22.685  0.00  0.00    +0.000 C 
ATOM      7  C   UNL     1      -4.875  13.244  24.122  0.00  0.00    +0.000 C 
ATOM      8  O   UNL     1      -5.873  12.236  24.259  0.00  0.00    +0.000 OA
ATOM      9  C   UNL     1      -3.317  14.400  22.448  0.00  0.00    +0.000 C 
ATOM     10  N   UNL     1      -2.574  13.384  21.722  0.00  0.00    +0.000 N 
ATOM     11  C   UNL     1      -1.675  13.566  20.694  0.00  0.00    +0.000 C 
ATOM     12  O   UNL     1      -1.305  14.694  20.382  0.00  0.00    +0.000 OA
ATOM     13  C   UNL     1      -3.313  12.276  22.301  0.00  0.00    +0.000 C 
ENDROOT
BRANCH  11  14
ATOM     14  C   UNL     1      -1.146  12.361  19.970  0.00  0.00    +0.000 A 
ATOM     15  C   UNL     1       0.179  11.967  20.224  0.00  0.00    +0.000 A 
ATOM     16  C   UNL     1       0.726  10.857  19.595  0.00  0.00    +0.000 A 
ATOM     17  C   UNL     1      -0.022  10.160  18.654  0.00  0.00    +0.000 A 
ATOM     18  C   UNL     1      -1.325  10.554  18.334  0.00  0.00    +0.000 A 
ATOM     19  C   UNL     1      -2.028   9.846  17.348  0.00  0.00    +0.000 A 
ATOM     20  C   UNL     1      -3.326  10.203  16.986  0.00  0.00    +0.000 A 
ATOM     21  C   UNL     1      -3.944  11.264  17.627  0.00  0.00    +0.000 A 
ATOM     22  C   UNL     1      -3.260  11.975  18.621  0.00  0.00    +0.000 A 
ATOM     23  C   UNL     1      -1.927  11.661  18.995  0.00  0.00    +0.000 A 
ENDBRANCH  11  14
TORSDOF 1
ENDMDL
MODEL 3
REMARK VINA RESULT:      -6.3      5.274      8.026
REMARK  Name = 
REMARK  3 active torsions:
REMARK  status: ('A' for Active; 'I' for Inactive)
REMARK    1  A    between atoms: C_1  and  C_2
REMARK    2  A    between atoms: C_2  and  C_3
REMARK    3  A    between atoms: C_11  and  C_13
REMARK                            x       y       z     vdW  Elec       q    Type
REMARK                         _______ _______ _______ _____ _____    ______ ____
ROOT
ATOM      1  C   UNL     1       4.175   2.501  20.069  0.00  0.00    +0.000 C 
ATOM      2  C   UNL     1       2.755   3.074  20.180  0.00  0.00    +0.000 C 
ATOM      3  C   UNL     1       1.940   2.157  21.095  0.00  0.00    +0.000 C 
ATOM      4  O   UNL     1       2.735   4.367  20.786  0.00  0.00    +0.000 OA
ATOM      5  C   UNL     1       3.344   5.379  19.987  0.00  0.00    +0.000 C 
ATOM      6  C   UNL     1       2.717   5.403  18.600  0.00  0.00    +0.000 C 
ATOM      7  C   UNL     1       2.645   4.015  17.991  0.00  0.00    +0.000 C 
ATOM      8  O   UNL     1       2.078   3.095  18.920  0.00  0.00    +0.000 OA
ATOM      9  C   UNL     1       3.341   6.459  17.660  0.00  0.00    +0.000 C 
ATOM     10  N   UNL     1       2.226   7.316  18.024  0.00  0.00    +0.000 N 
ATOM     11  C   UNL     1       2.191   8.693  18.052  0.00  0.00    +0.000 C 
ATOM     12  O   UNL     1       3.128   9.350  17.605  0.00  0.00    +0.000 OA
ATOM     13  C   UNL     1       1.411   6.224  18.527  0.00  0.00    +0.000 C 
ENDROOT
BRANCH  11  14
ATOM     14  C   UNL     1       0.984   9.378  18.624  0.00  0.00    +0.000 A 
ATOM     15  C   UNL     1       0.105  10.020  17.734  0.00  0.00    +0.000 A 
ATOM     16  C   UNL     1      -1.035  10.664  18.197  0.00  0.00    +0.000 A 
ATOM     17  C   UNL     1      -1.282  10.730  19.563  0.00  0.00    +0.000 A 
ATOM     18  C   UNL     1      -0.403  10.150  20.483  0.00  0.00    +0.000 A 
ATOM     19  C   UNL     1      -0.670  10.278  21.854  0.00  0.00    +0.000 A 
ATOM     20  C   UNL     1       0.180   9.726  22.812  0.00  0.00    +0.000 A 
ATOM     21  C   UNL     1       1.298   9.019  22.404  0.00  0.00    +0.000 A 
ATOM     22  C   UNL     1       1.574   8.874  21.039  0.00  0.00    +0.000 A 
ATOM     23  C   UNL     1       0.750   9.447  20.034  0.00  0.00    +0.000 A 
ENDBRANCH  11  14
TORSDOF 1
ENDMDL
MODEL 4
REMARK VINA RESULT:      -6.2      4.349      6.632
REMARK  Name = 
REMARK  3 active torsions:
REMARK  status: ('A' for Active; 'I' for Inactive)
REMARK    1  A    between atoms: C_1  and  C_2
REMARK    2  A    between atoms: C_2  and  C_3
REMARK    3  A    between atoms: C_11  and  C_13
REMARK                            x       y       z     vdW  Elec       q    Type
REMARK                         _______ _______ _______ _____ _____    ______ ____
ROOT
ATOM      1  C   UNL     1      -7.143  16.083  20.887  0.00  0.00    +0.000 C 
ATOM      2  C   UNL     1      -6.843  14.589  20.704  0.00  0.00    +0.000 C 
ATOM      3  C   UNL     1      -7.843  14.022  19.694  0.00  0.00    +0.000 C 
ATOM      4  O   UNL     1      -5.544  14.358  20.156  0.00  0.00    +0.000 OA
ATOM      5  C   UNL     1      -4.483  14.712  21.041  0.00  0.00    +0.000 C 
ATOM      6  C   UNL     1      -4.657  14.011  22.381  0.00  0.00    +0.000 C 
ATOM      7  C   UNL     1      -6.066  14.171  22.921  0.00  0.00    +0.000 C 
ATOM      8  O   UNL     1      -7.022  13.847  21.914  0.00  0.00    +0.000 OA
ATOM      9  C   UNL     1      -3.558  14.364  23.408  0.00  0.00    +0.000 C 
ATOM     10  N   UNL     1      -2.908  13.129  23.007  0.00  0.00    +0.000 N 
ATOM     11  C   UNL     1      -1.563  12.832  23.038  0.00  0.00    +0.000 C 
ATOM     12  O   UNL     1      -0.768  13.597  23.578  0.00  0.00    +0.000 OA
ATOM     13  C   UNL     1      -4.103  12.570  22.400  0.00  0.00    +0.000 C 
ENDROOT
BRANCH  11  14
ATOM     14  C   UNL     1      -1.086  11.551  22.416  0.00  0.00    +0.000 A 
ATOM     15  C   UNL     1      -0.811  10.466  23.265  0.00  0.00    +0.000 A 
ATOM     16  C   UNL     1      -0.376   9.251  22.753  0.00  0.00    +0.000 A 
ATOM     17  C   UNL     1      -0.150   9.120  21.388  0.00  0.00    +0.000 A 
ATOM     18  C   UNL     1      -0.361  10.193  20.517  0.00  0.00    +0.000 A 
ATOM     19  C   UNL     1      -0.080  10.029  19.152  0.00  0.00    +0.000 A 
ATOM     20  C   UNL     1      -0.265  11.070  18.244  0.00  0.00    +0.000 A 
ATOM     21  C   UNL     1      -0.757  12.284  18.691  0.00  0.00    +0.000 A 
ATOM     22  C   UNL     1      -1.052  12.463  20.048  0.00  0.00    +0.000 A 
ATOM     23  C   UNL     1      -0.848  11.437  21.009  0.00  0.00    +0.000 A 
ENDBRANCH  11  14
TORSDOF 1
ENDMDL
MODEL 5
REMARK VINA RESULT:      -6.2      8.289     10.285
REMARK  Name = 
REMARK  3 active torsions:
REMARK  status: ('A' for Active; 'I' for Inactive)
REMARK    1  A    between atoms: C_1  and  C_2
REMARK    2  A    between atoms: C_2  and  C_3
REMARK    3  A    between atoms: C_11  and  C_13
REMARK                            x       y       z     vdW  Elec       q    Type
REMARK                         _______ _______ _______ _____ _____    ______ ____
ROOT
ATOM      1  C   UNL     1       5.608  13.381  26.741  0.00  0.00    +0.000 C 
ATOM      2  C   UNL     1       6.039  12.431  25.615  0.00  0.00    +0.000 C 
ATOM      3  C   UNL     1       5.329  11.091  25.824  0.00  0.00    +0.000 C 
ATOM      4  O   UNL     1       5.640  12.899  24.326  0.00  0.00    +0.000 OA
ATOM      5  C   UNL     1       6.320  14.085  23.917  0.00  0.00    +0.000 C 
ATOM      6  C   UNL     1       7.826  13.882  23.997  0.00  0.00    +0.000 C 
ATOM      7  C   UNL     1       8.245  13.292  25.331  0.00  0.00    +0.000 C 
ATOM      8  O   UNL     1       7.442  12.156  25.643  0.00  0.00    +0.000 OA
ATOM      9  C   UNL     1       8.638  15.134  23.594  0.00  0.00    +0.000 C 
ATOM     10  N   UNL     1       8.768  14.521  22.283  0.00  0.00    +0.000 N 
ATOM     11  C   UNL     1       8.928  15.149  21.067  0.00  0.00    +0.000 C 
ATOM     12  O   UNL     1       9.125  16.360  21.012  0.00  0.00    +0.000 OA
ATOM     13  C   UNL     1       8.423  13.190  22.752  0.00  0.00    +0.000 C 
ENDROOT
BRANCH  11  14
ATOM     14  C   UNL     1       8.872  14.327  19.812  0.00  0.00    +0.000 A 
ATOM     15  C   UNL     1       7.728  14.435  19.002  0.00  0.00    +0.000 A 
ATOM     16  C   UNL     1       7.617  13.709  17.824  0.00  0.00    +0.000 A 
ATOM     17  C   UNL     1       8.621  12.816  17.467  0.00  0.00    +0.000 A 
ATOM     18  C   UNL     1       9.749  12.641  18.274  0.00  0.00    +0.000 A 
ATOM     19  C   UNL     1      10.717  11.699  17.897  0.00  0.00    +0.000 A 
ATOM     20  C   UNL     1      11.856  11.480  18.671  0.00  0.00    +0.000 A 
ATOM     21  C   UNL     1      12.048  12.222  19.824  0.00  0.00    +0.000 A 
ATOM     22  C   UNL     1      11.096  13.174  20.210  0.00  0.00    +0.000 A 
ATOM     23  C   UNL     1       9.909  13.404  19.465  0.00  0.00    +0.000 A 
ENDBRANCH  11  14
TORSDOF 1
ENDMDL
MODEL 6
REMARK VINA RESULT:      -6.2      2.571      7.479
REMARK  Name = 
REMARK  3 active torsions:
REMARK  status: ('A' for Active; 'I' for Inactive)
REMARK    1  A    between atoms: C_1  and  C_2
REMARK    2  A    between atoms: C_2  and  C_3
REMARK    3  A    between atoms: C_11  and  C_13
REMARK                            x       y       z     vdW  Elec       q    Type
REMARK                         _______ _______ _______ _____ _____    ______ ____
ROOT
ATOM      1  C   UNL     1       0.850  17.863  20.978  0.00  0.00    +0.000 C 
ATOM      2  C   UNL     1       1.662  16.631  21.404  0.00  0.00    +0.000 C 
ATOM      3  C   UNL     1       2.576  17.040  22.562  0.00  0.00    +0.000 C 
ATOM      4  O   UNL     1       0.834  15.578  21.898  0.00  0.00    +0.000 OA
ATOM      5  C   UNL     1       0.006  14.989  20.897  0.00  0.00    +0.000 C 
ATOM      6  C   UNL     1       0.852  14.529  19.718  0.00  0.00    +0.000 C 
ATOM      7  C   UNL     1       1.804  15.614  19.251  0.00  0.00    +0.000 C 
ATOM      8  O   UNL     1       2.517  16.157  20.360  0.00  0.00    +0.000 OA
ATOM      9  C   UNL     1       0.024  13.901  18.574  0.00  0.00    +0.000 C 
ATOM     10  N   UNL     1       0.374  12.612  19.145  0.00  0.00    +0.000 N 
ATOM     11  C   UNL     1      -0.340  11.435  19.079  0.00  0.00    +0.000 C 
ATOM     12  O   UNL     1      -1.332  11.347  18.361  0.00  0.00    +0.000 OA
ATOM     13  C   UNL     1       1.486  13.136  19.919  0.00  0.00    +0.000 C 
ENDROOT
BRANCH  11  14
ATOM     14  C   UNL     1       0.125  10.257  19.887  0.00  0.00    +0.000 A 
ATOM     15  C   UNL     1      -0.289  10.171  21.227  0.00  0.00    +0.000 A 
ATOM     16  C   UNL     1       0.097   9.103  22.026  0.00  0.00    +0.000 A 
ATOM     17  C   UNL     1       0.954   8.136  21.515  0.00  0.00    +0.000 A 
ATOM     18  C   UNL     1       1.431   8.216  20.204  0.00  0.00    +0.000 A 
ATOM     19  C   UNL     1       2.328   7.240  19.744  0.00  0.00    +0.000 A 
ATOM     20  C   UNL     1       2.840   7.279  18.448  0.00  0.00    +0.000 A 
ATOM     21  C   UNL     1       2.439   8.287  17.588  0.00  0.00    +0.000 A 
ATOM     22  C   UNL     1       1.536   9.264  18.027  0.00  0.00    +0.000 A 
ATOM     23  C   UNL     1       1.017   9.276  19.349  0.00  0.00    +0.000 A 
ENDBRANCH  11  14
TORSDOF 1
ENDMDL
MODEL 7
REMARK VINA RESULT:      -6.1      2.475      6.741
REMARK  Name = 
REMARK  3 active torsions:
REMARK  status: ('A' for Active; 'I' for Inactive)
REMARK    1  A    between atoms: C_1  and  C_2
REMARK    2  A    between atoms: C_2  and  C_3
REMARK    3  A    between atoms: C_11  and  C_13
REMARK                            x       y       z     vdW  Elec       q    Type
REMARK                         _______ _______ _______ _____ _____    ______ ____
ROOT
ATOM      1  C   UNL     1       4.285  14.949  19.640  0.00  0.00    +0.000 C 
ATOM      2  C   UNL     1       3.027  15.135  18.782  0.00  0.00    +0.000 C 
ATOM      3  C   UNL     1       3.459  15.654  17.408  0.00  0.00    +0.000 C 
ATOM      4  O   UNL     1       2.340  13.905  18.548  0.00  0.00    +0.000 OA
ATOM      5  C   UNL     1       1.752  13.350  19.723  0.00  0.00    +0.000 C 
ATOM      6  C   UNL     1       0.850  14.375  20.395  0.00  0.00    +0.000 C 
ATOM      7  C   UNL     1       1.543  15.716  20.557  0.00  0.00    +0.000 C 
ATOM      8  O   UNL     1       2.139  16.116  19.325  0.00  0.00    +0.000 OA
ATOM      9  C   UNL     1       0.193  13.859  21.695  0.00  0.00    +0.000 C 
ATOM     10  N   UNL     1      -0.978  13.568  20.886  0.00  0.00    +0.000 N 
ATOM     11  C   UNL     1      -1.936  12.601  21.099  0.00  0.00    +0.000 C 
ATOM     12  O   UNL     1      -1.946  11.954  22.143  0.00  0.00    +0.000 OA
ATOM     13  C   UNL     1      -0.571  14.435  19.793  0.00  0.00    +0.000 C 
ENDROOT
BRANCH  11  14
ATOM     14  C   UNL     1      -2.974  12.361  20.042  0.00  0.00    +0.000 A 
ATOM     15  C   UNL     1      -4.252  12.914  20.233  0.00  0.00    +0.000 A 
ATOM     16  C   UNL     1      -5.255  12.737  19.289  0.00  0.00    +0.000 A 
ATOM     17  C   UNL     1      -5.014  11.951  18.167  0.00  0.00    +0.000 A 
ATOM     18  C   UNL     1      -3.773  11.340  17.970  0.00  0.00    +0.000 A 
ATOM     19  C   UNL     1      -3.589  10.521  16.845  0.00  0.00    +0.000 A 
ATOM     20  C   UNL     1      -2.373   9.881  16.606  0.00  0.00    +0.000 A 
ATOM     21  C   UNL     1      -1.319  10.074  17.482  0.00  0.00    +0.000 A 
ATOM     22  C   UNL     1      -1.483  10.895  18.604  0.00  0.00    +0.000 A 
ATOM     23  C   UNL     1      -2.714  11.539  18.899  0.00  0.00    +0.000 A 
ENDBRANCH  11  14
TORSDOF 1
ENDMDL
MODEL 8
REMARK VINA RESULT:      -6.1      6.161      8.552
REMARK  Name = 
REMARK  3 active torsions:
REMARK  status: ('A' for Active; 'I' for Inactive)
REMARK    1  A    between atoms: C_1  and  C_2
REMARK    2  A    between atoms: C_2  and  C_3
REMARK    3  A    between atoms: C_11  and  C_13
REMARK                            x       y       z     vdW  Elec       q    Type
REMARK                         _______ _______ _______ _____ _____    ______ ____
ROOT
ATOM      1  C   UNL     1       6.375   3.246  15.609  0.00  0.00    +0.000 C 
ATOM      2  C   UNL     1       6.186   4.769  15.645  0.00  0.00    +0.000 C 
ATOM      3  C   UNL     1       6.816   5.357  14.380  0.00  0.00    +0.000 C 
ATOM      4  O   UNL     1       4.809   5.148  15.621  0.00  0.00    +0.000 OA
ATOM      5  C   UNL     1       4.101   4.787  16.805  0.00  0.00    +0.000 C 
ATOM      6  C   UNL     1       4.811   5.339  18.033  0.00  0.00    +0.000 C 
ATOM      7  C   UNL     1       6.295   5.023  18.014  0.00  0.00    +0.000 C 
ATOM      8  O   UNL     1       6.860   5.373  16.753  0.00  0.00    +0.000 OA
ATOM      9  C   UNL     1       4.119   4.969  19.364  0.00  0.00    +0.000 C 
ATOM     10  N   UNL     1       3.500   6.282  19.307  0.00  0.00    +0.000 N 
ATOM     11  C   UNL     1       2.292   6.673  19.843  0.00  0.00    +0.000 C 
ATOM     12  O   UNL     1       1.666   5.919  20.583  0.00  0.00    +0.000 OA
ATOM     13  C   UNL     1       4.453   6.808  18.346  0.00  0.00    +0.000 C 
ENDROOT
BRANCH  11  14
ATOM     14  C   UNL     1       1.762   8.040  19.520  0.00  0.00    +0.000 A 
ATOM     15  C   UNL     1       1.987   8.548  18.229  0.00  0.00    +0.000 A 
ATOM     16  C   UNL     1       1.515   9.801  17.863  0.00  0.00    +0.000 A 
ATOM     17  C   UNL     1       0.864  10.593  18.802  0.00  0.00    +0.000 A 
ATOM     18  C   UNL     1       0.669  10.145  20.111  0.00  0.00    +0.000 A 
ATOM     19  C   UNL     1       0.044  10.995  21.037  0.00  0.00    +0.000 A 
ATOM     20  C   UNL     1      -0.166  10.599  22.357  0.00  0.00    +0.000 A 
ATOM     21  C   UNL     1       0.228   9.334  22.760  0.00  0.00    +0.000 A 
ATOM     22  C   UNL     1       0.844   8.470  21.846  0.00  0.00    +0.000 A 
ATOM     23  C   UNL     1       1.104   8.847  20.502  0.00  0.00    +0.000 A 
ENDBRANCH  11  14
TORSDOF 1
ENDMDL
MODEL 9
REMARK VINA RESULT:      -6.0      0.890      2.398
REMARK  Name = 
REMARK  3 active torsions:
REMARK  status: ('A' for Active; 'I' for Inactive)
REMARK    1  A    between atoms: C_1  and  C_2
REMARK    2  A    between atoms: C_2  and  C_3
REMARK    3  A    between atoms: C_11  and  C_13
REMARK                            x       y       z     vdW  Elec       q    Type
REMARK                         _______ _______ _______ _____ _____    ______ ____
ROOT
ATOM      1  C   UNL     1      -3.773   9.244  17.821  0.00  0.00    +0.000 C 
ATOM      2  C   UNL     1      -2.825  10.143  17.013  0.00  0.00    +0.000 C 
ATOM      3  C   UNL     1      -2.982   9.791  15.532  0.00  0.00    +0.000 C 
ATOM      4  O   UNL     1      -3.153  11.527  17.134  0.00  0.00    +0.000 OA
ATOM      5  C   UNL     1      -2.930  12.052  18.441  0.00  0.00    +0.000 C 
ATOM      6  C   UNL     1      -1.500  11.776  18.883  0.00  0.00    +0.000 C 
ATOM      7  C   UNL     1      -1.114  10.325  18.664  0.00  0.00    +0.000 C 
ATOM      8  O   UNL     1      -1.451   9.917  17.341  0.00  0.00    +0.000 OA
ATOM      9  C   UNL     1      -1.183  12.292  20.305  0.00  0.00    +0.000 C 
ATOM     10  N   UNL     1      -0.609  13.460  19.659  0.00  0.00    +0.000 N 
ATOM     11  C   UNL     1      -0.506  14.739  20.161  0.00  0.00    +0.000 C 
ATOM     12  O   UNL     1      -0.788  14.974  21.332  0.00  0.00    +0.000 OA
ATOM     13  C   UNL     1      -0.482  12.816  18.364  0.00  0.00    +0.000 C 
ENDROOT
BRANCH  11  14
ATOM     14  C   UNL     1      -0.028  15.838  19.256  0.00  0.00    +0.000 A 
ATOM     15  C   UNL     1      -0.962  16.798  18.832  0.00  0.00    +0.000 A 
ATOM     16  C   UNL     1      -0.584  17.845  18.002  0.00  0.00    +0.000 A 
ATOM     17  C   UNL     1       0.723  17.914  17.532  0.00  0.00    +0.000 A 
ATOM     18  C   UNL     1       1.668  16.947  17.888  0.00  0.00    +0.000 A 
ATOM     19  C   UNL     1       2.964  17.033  17.357  0.00  0.00    +0.000 A 
ATOM     20  C   UNL     1       3.940  16.090  17.673  0.00  0.00    +0.000 A 
ATOM     21  C   UNL     1       3.635  15.060  18.546  0.00  0.00    +0.000 A 
ATOM     22  C   UNL     1       2.349  14.965  19.093  0.00  0.00    +0.000 A 
ATOM     23  C   UNL     1       1.319  15.888  18.772  0.00  0.00    +0.000 A 
ENDBRANCH  11  14
TORSDOF 1
ENDMDL
