MODEL 1
REMARK VINA RESULT:      -7.3      0.000      0.000
REMARK  Name = 
REMARK  3 active torsions:
REMARK  status: ('A' for Active; 'I' for Inactive)
REMARK    1  A    between atoms: C_1  and  N_2
REMARK    2  A    between atoms: C_11  and  C_12
REMARK    3  A    between atoms: C_16  and  C_17
REMARK                            x       y       z     vdW  Elec       q    Type
REMARK                         _______ _______ _______ _____ _____    ______ ____
ROOT
ATOM      1  C   UNL     1       1.809   2.703  19.476  0.00  0.00    +0.000 C 
ATOM      2  N   UNL     1       1.353   4.030  19.061  0.00  0.00    +0.000 NA
ATOM      3  C   UNL     1       2.266   4.606  18.066  0.00  0.00    +0.000 C 
ATOM      4  C   UNL     1       2.064   6.095  17.752  0.00  0.00    +0.000 C 
ATOM      5  C   UNL     1       2.835   7.020  18.697  0.00  0.00    +0.000 C 
ATOM      6  N   UNL     1       2.349   7.010  20.070  0.00  0.00    +0.000 N 
ATOM      7  C   UNL     1       1.500   8.014  20.505  0.00  0.00    +0.000 A 
ATOM      8  N   UNL     1       1.110   8.000  21.794  0.00  0.00    +0.000 NA
ATOM      9  C   UNL     1       0.354   9.013  22.242  0.00  0.00    +0.000 A 
ATOM     10  C   UNL     1      -0.078  10.042  21.452  0.00  0.00    +0.000 A 
ATOM     11  C   UNL     1       0.303   9.959  20.136  0.00  0.00    +0.000 A 
ATOM     12  N   UNL     1       1.113   8.981  19.663  0.00  0.00    +0.000 NA
ATOM     13  C   UNL     1       2.249   5.728  20.769  0.00  0.00    +0.000 C 
ATOM     14  C   UNL     1       1.070   4.889  20.227  0.00  0.00    +0.000 C 
ENDROOT
BRANCH  11  15
ATOM     15  C   UNL     1      -0.129  10.937  19.152  0.00  0.00    +0.000 A 
ATOM     16  C   UNL     1       0.518  12.149  19.002  0.00  0.00    +0.000 A 
ATOM     17  N   UNL     1      -0.109  12.799  17.991  0.00  0.00    +0.000 N 
ATOM     18  N   UNL     1      -1.154  12.131  17.498  0.00  0.00    +0.000 NA
ATOM     19  C   UNL     1      -1.163  10.960  18.157  0.00  0.00    +0.000 A 
ATOM     20  H   UNL     1       0.115  13.703  17.592  0.00  0.00    +0.000 HD
BRANCH  19  21
ATOM     21  C   UNL     1      -2.224   9.924  17.803  0.00  0.00    +0.000 C 
ATOM     22  C   UNL     1      -3.637  10.269  18.334  0.00  0.00    +0.000 C 
ATOM     23  C   UNL     1      -4.294  11.432  17.584  0.00  0.00    +0.000 C 
ATOM     24  C   UNL     1      -4.294  11.244  16.071  0.00  0.00    +0.000 C 
ATOM     25  C   UNL     1      -2.952  10.782  15.511  0.00  0.00    +0.000 C 
ATOM     26  C   UNL     1      -2.357   9.621  16.301  0.00  0.00    +0.000 C 
ENDBRANCH  19  21
ENDBRANCH  11  15
TORSDOF 2
ENDMDL
MODEL 2
REMARK VINA RESULT:      -7.2      2.780      7.376
REMARK  Name = 
REMARK  3 active torsions:
REMARK  status: ('A' for Active; 'I' for Inactive)
REMARK    1  A    between atoms: C_1  and  N_2
REMARK    2  A    between atoms: C_11  and  C_12
REMARK    3  A    between atoms: C_16  and  C_17
REMARK                            x       y       z     vdW  Elec       q    Type
REMARK                         _______ _______ _______ _____ _____    ______ ____
ROOT
ATOM      1  C   UNL     1       2.118  15.328  20.244  0.00  0.00    +0.000 C 
ATOM      2  N   UNL     1       2.515  13.970  19.869  0.00  0.00    +0.000 NA
ATOM      3  C   UNL     1       2.298  13.742  18.435  0.00  0.00    +0.000 C 
ATOM      4  C   UNL     1       2.408  12.286  17.963  0.00  0.00    +0.000 C 
ATOM      5  C   UNL     1       1.091  11.513  18.078  0.00  0.00    +0.000 C 
ATOM      6  N   UNL     1       0.658  11.275  19.447  0.00  0.00    +0.000 N 
ATOM      7  C   UNL     1       0.908  10.051  20.044  0.00  0.00    +0.000 A 
ATOM      8  N   UNL     1       0.449   9.848  21.294  0.00  0.00    +0.000 NA
ATOM      9  C   UNL     1       0.616   8.638  21.846  0.00  0.00    +0.000 A 
ATOM     10  C   UNL     1       1.265   7.606  21.226  0.00  0.00    +0.000 A 
ATOM     11  C   UNL     1       1.762   7.902  19.981  0.00  0.00    +0.000 A 
ATOM     12  N   UNL     1       1.561   9.094  19.371  0.00  0.00    +0.000 NA
ATOM     13  C   UNL     1       0.522  12.420  20.349  0.00  0.00    +0.000 C 
ATOM     14  C   UNL     1       1.906  12.968  20.765  0.00  0.00    +0.000 C 
ENDROOT
BRANCH  11  15
ATOM     15  C   UNL     1       2.534   6.936  19.218  0.00  0.00    +0.000 A 
ATOM     16  C   UNL     1       3.168   7.283  18.040  0.00  0.00    +0.000 A 
ATOM     17  N   UNL     1       3.817   6.174  17.609  0.00  0.00    +0.000 N 
ATOM     18  N   UNL     1       3.616   5.106  18.385  0.00  0.00    +0.000 NA
ATOM     19  C   UNL     1       2.872   5.555  19.411  0.00  0.00    +0.000 A 
ATOM     20  H   UNL     1       4.406   6.069  16.792  0.00  0.00    +0.000 HD
BRANCH  19  21
ATOM     21  C   UNL     1       2.489   4.583  20.522  0.00  0.00    +0.000 C 
ATOM     22  C   UNL     1       1.001   4.158  20.496  0.00  0.00    +0.000 C 
ATOM     23  C   UNL     1       0.665   3.214  19.337  0.00  0.00    +0.000 C 
ATOM     24  C   UNL     1       1.595   2.007  19.261  0.00  0.00    +0.000 C 
ATOM     25  C   UNL     1       3.071   2.362  19.407  0.00  0.00    +0.000 C 
ATOM     26  C   UNL     1       3.335   3.300  20.580  0.00  0.00    +0.000 C 
ENDBRANCH  19  21
ENDBRANCH  11  15
TORSDOF 2
ENDMDL
MODEL 3
REMARK VINA RESULT:      -7.1      1.866      3.681
REMARK  Name = 
REMARK  3 active torsions:
REMARK  status: ('A' for Active; 'I' for Inactive)
REMARK    1  A    between atoms: C_1  and  N_2
REMARK    2  A    between atoms: C_11  and  C_12
REMARK    3  A    between atoms: C_16  and  C_17
REMARK                            x       y       z     vdW  Elec       q    Type
REMARK                         _______ _______ _______ _____ _____    ______ ____
ROOT
ATOM      1  C   UNL     1       4.876   1.366  20.385  0.00  0.00    +0.000 C 
ATOM      2  N   UNL     1       4.223   2.632  20.720  0.00  0.00    +0.000 NA
ATOM      3  C   UNL     1       2.830   2.409  21.125  0.00  0.00    +0.000 C 
ATOM      4  C   UNL     1       1.954   3.663  21.236  0.00  0.00    +0.000 C 
ATOM      5  C   UNL     1       1.293   4.056  19.912  0.00  0.00    +0.000 C 
ATOM      6  N   UNL     1       2.225   4.520  18.895  0.00  0.00    +0.000 N 
ATOM      7  C   UNL     1       2.401   5.879  18.693  0.00  0.00    +0.000 A 
ATOM      8  N   UNL     1       3.234   6.272  17.711  0.00  0.00    +0.000 NA
ATOM      9  C   UNL     1       3.346   7.584  17.456  0.00  0.00    +0.000 A 
ATOM     10  C   UNL     1       2.690   8.551  18.167  0.00  0.00    +0.000 A 
ATOM     11  C   UNL     1       1.909   8.083  19.194  0.00  0.00    +0.000 A 
ATOM     12  N   UNL     1       1.729   6.764  19.441  0.00  0.00    +0.000 NA
ATOM     13  C   UNL     1       3.353   3.660  18.532  0.00  0.00    +0.000 C 
ATOM     14  C   UNL     1       4.416   3.634  19.654  0.00  0.00    +0.000 C 
ENDROOT
BRANCH  11  15
ATOM     15  C   UNL     1       1.199   8.985  20.086  0.00  0.00    +0.000 A 
ATOM     16  C   UNL     1       1.186   8.789  21.454  0.00  0.00    +0.000 A 
ATOM     17  N   UNL     1       0.474   9.814  21.984  0.00  0.00    +0.000 N 
ATOM     18  N   UNL     1      -0.029  10.641  21.066  0.00  0.00    +0.000 NA
ATOM     19  C   UNL     1       0.441  10.188  19.891  0.00  0.00    +0.000 A 
ATOM     20  H   UNL     1       0.283  10.006  22.960  0.00  0.00    +0.000 HD
BRANCH  19  21
ATOM     21  C   UNL     1       0.083  10.941  18.614  0.00  0.00    +0.000 C 
ATOM     22  C   UNL     1      -0.888  10.173  17.686  0.00  0.00    +0.000 C 
ATOM     23  C   UNL     1      -2.317  10.104  18.234  0.00  0.00    +0.000 C 
ATOM     24  C   UNL     1      -2.874  11.469  18.624  0.00  0.00    +0.000 C 
ATOM     25  C   UNL     1      -1.902  12.317  19.438  0.00  0.00    +0.000 C 
ATOM     26  C   UNL     1      -0.502  12.346  18.835  0.00  0.00    +0.000 C 
ENDBRANCH  19  21
ENDBRANCH  11  15
TORSDOF 2
ENDMDL
MODEL 4
REMARK VINA RESULT:      -7.1      2.279      7.283
REMARK  Name = 
REMARK  3 active torsions:
REMARK  status: ('A' for Active; 'I' for Inactive)
REMARK    1  A    between atoms: C_1  and  N_2
REMARK    2  A    between atoms: C_11  and  C_12
REMARK    3  A    between atoms: C_16  and  C_17
REMARK                            x       y       z     vdW  Elec       q    Type
REMARK                         _______ _______ _______ _____ _____    ______ ____
ROOT
ATOM      1  C   UNL     1      -0.697  15.700  20.987  0.00  0.00    +0.000 C 
ATOM      2  N   UNL     1       0.021  14.567  20.401  0.00  0.00    +0.000 NA
ATOM      3  C   UNL     1      -0.414  14.333  19.019  0.00  0.00    +0.000 C 
ATOM      4  C   UNL     1       0.050  13.017  18.382  0.00  0.00    +0.000 C 
ATOM      5  C   UNL     1      -0.894  11.845  18.663  0.00  0.00    +0.000 C 
ATOM      6  N   UNL     1      -0.924  11.424  20.057  0.00  0.00    +0.000 N 
ATOM      7  C   UNL     1      -0.174  10.332  20.461  0.00  0.00    +0.000 A 
ATOM      8  N   UNL     1      -0.265   9.942  21.747  0.00  0.00    +0.000 NA
ATOM      9  C   UNL     1       0.395   8.837  22.125  0.00  0.00    +0.000 A 
ATOM     10  C   UNL     1       1.189   8.105  21.287  0.00  0.00    +0.000 A 
ATOM     11  C   UNL     1       1.286   8.596  20.009  0.00  0.00    +0.000 A 
ATOM     12  N   UNL     1       0.589   9.675  19.578  0.00  0.00    +0.000 NA
ATOM     13  C   UNL     1      -1.220  12.423  21.084  0.00  0.00    +0.000 C 
ATOM     14  C   UNL     1      -0.028  13.386  21.285  0.00  0.00    +0.000 C 
ENDROOT
BRANCH  11  15
ATOM     15  C   UNL     1       2.143   7.973  19.014  0.00  0.00    +0.000 A 
ATOM     16  C   UNL     1       2.511   8.634  17.858  0.00  0.00    +0.000 A 
ATOM     17  N   UNL     1       3.328   7.795  17.176  0.00  0.00    +0.000 N 
ATOM     18  N   UNL     1       3.485   6.609  17.768  0.00  0.00    +0.000 NA
ATOM     19  C   UNL     1       2.809   6.705  18.926  0.00  0.00    +0.000 A 
ATOM     20  H   UNL     1       3.806   7.960  16.297  0.00  0.00    +0.000 HD
BRANCH  19  21
ATOM     21  C   UNL     1       2.815   5.517  19.882  0.00  0.00    +0.000 C 
ATOM     22  C   UNL     1       1.509   4.686  19.856  0.00  0.00    +0.000 C 
ATOM     23  C   UNL     1       1.348   3.859  18.577  0.00  0.00    +0.000 C 
ATOM     24  C   UNL     1       2.568   2.998  18.264  0.00  0.00    +0.000 C 
ATOM     25  C   UNL     1       3.893   3.742  18.398  0.00  0.00    +0.000 C 
ATOM     26  C   UNL     1       3.988   4.540  19.694  0.00  0.00    +0.000 C 
ENDBRANCH  19  21
ENDBRANCH  11  15
TORSDOF 2
ENDMDL
MODEL 5
REMARK VINA RESULT:      -7.1      8.189     11.613
REMARK  Name = 
REMARK  3 active torsions:
REMARK  status: ('A' for Active; 'I' for Inactive)
REMARK    1  A    between atoms: C_1  and  N_2
REMARK    2  A    between atoms: C_11  and  C_12
REMARK    3  A    between atoms: C_16  and  C_17
REMARK                            x       y       z     vdW  Elec       q    Type
REMARK                         _______ _______ _______ _____ _____    ______ ____
ROOT
ATOM      1  C   UNL     1       0.965  17.988  19.581  0.00  0.00    +0.000 C 
ATOM      2  N   UNL     1       2.296  17.650  19.077  0.00  0.00    +0.000 NA
ATOM      3  C   UNL     1       2.207  16.677  17.981  0.00  0.00    +0.000 C 
ATOM      4  C   UNL     1       3.529  16.031  17.547  0.00  0.00    +0.000 C 
ATOM      5  C   UNL     1       3.882  14.780  18.357  0.00  0.00    +0.000 C 
ATOM      6  N   UNL     1       4.206  15.045  19.752  0.00  0.00    +0.000 N 
ATOM      7  C   UNL     1       5.531  15.127  20.145  0.00  0.00    +0.000 A 
ATOM      8  N   UNL     1       5.794  15.324  21.452  0.00  0.00    +0.000 NA
ATOM      9  C   UNL     1       7.074  15.323  21.852  0.00  0.00    +0.000 A 
ATOM     10  C   UNL     1       8.133  15.173  21.000  0.00  0.00    +0.000 A 
ATOM     11  C   UNL     1       7.795  15.041  19.676  0.00  0.00    +0.000 A 
ATOM     12  N   UNL     1       6.512  14.980  19.245  0.00  0.00    +0.000 NA
ATOM     13  C   UNL     1       3.241  15.783  20.568  0.00  0.00    +0.000 C 
ATOM     14  C   UNL     1       3.208  17.277  20.176  0.00  0.00    +0.000 C 
ENDROOT
BRANCH  11  15
ATOM     15  C   UNL     1       8.805  14.939  18.636  0.00  0.00    +0.000 A 
ATOM     16  C   UNL     1       9.265  16.054  17.961  0.00  0.00    +0.000 A 
ATOM     17  N   UNL     1      10.212  15.619  17.095  0.00  0.00    +0.000 N 
ATOM     18  N   UNL     1      10.375  14.294  17.109  0.00  0.00    +0.000 NA
ATOM     19  C   UNL     1       9.560  13.852  18.082  0.00  0.00    +0.000 A 
ATOM     20  H   UNL     1      10.780  16.165  16.458  0.00  0.00    +0.000 HD
BRANCH  19  21
ATOM     21  C   UNL     1       9.530  12.360  18.396  0.00  0.00    +0.000 C 
ATOM     22  C   UNL     1      10.668  11.556  17.722  0.00  0.00    +0.000 C 
ATOM     23  C   UNL     1      12.042  11.821  18.344  0.00  0.00    +0.000 C 
ATOM     24  C   UNL     1      12.055  11.649  19.860  0.00  0.00    +0.000 C 
ATOM     25  C   UNL     1      10.880  12.322  20.562  0.00  0.00    +0.000 C 
ATOM     26  C   UNL     1       9.544  12.013  19.894  0.00  0.00    +0.000 C 
ENDBRANCH  19  21
ENDBRANCH  11  15
TORSDOF 2
ENDMDL
MODEL 6
REMARK VINA RESULT:      -7.0      3.117      4.586
REMARK  Name = 
REMARK  3 active torsions:
REMARK  status: ('A' for Active; 'I' for Inactive)
REMARK    1  A    between atoms: C_1  and  N_2
REMARK    2  A    between atoms: C_11  and  C_12
REMARK    3  A    between atoms: C_16  and  C_17
REMARK                            x       y       z     vdW  Elec       q    Type
REMARK                         _______ _______ _______ _____ _____    ______ ____
ROOT
ATOM      1  C   UNL     1       6.523   4.740  17.661  0.00  0.00    +0.000 C 
ATOM      2  N   UNL     1       5.665   5.453  18.608  0.00  0.00    +0.000 NA
ATOM      3  C   UNL     1       4.701   4.537  19.230  0.00  0.00    +0.000 C 
ATOM      4  C   UNL     1       3.568   5.195  20.028  0.00  0.00    +0.000 C 
ATOM      5  C   UNL     1       2.357   5.560  19.167  0.00  0.00    +0.000 C 
ATOM      6  N   UNL     1       2.607   6.627  18.208  0.00  0.00    +0.000 N 
ATOM      7  C   UNL     1       2.220   7.923  18.505  0.00  0.00    +0.000 A 
ATOM      8  N   UNL     1       2.423   8.875  17.575  0.00  0.00    +0.000 NA
ATOM      9  C   UNL     1       1.977  10.115  17.824  0.00  0.00    +0.000 A 
ATOM     10  C   UNL     1       1.363  10.478  18.990  0.00  0.00    +0.000 A 
ATOM     11  C   UNL     1       1.247   9.474  19.918  0.00  0.00    +0.000 A 
ATOM     12  N   UNL     1       1.634   8.199  19.677  0.00  0.00    +0.000 NA
ATOM     13  C   UNL     1       3.725   6.482  17.274  0.00  0.00    +0.000 C 
ATOM     14  C   UNL     1       5.079   6.662  17.995  0.00  0.00    +0.000 C 
ENDROOT
BRANCH  11  15
ATOM     15  C   UNL     1       0.679   9.713  21.234  0.00  0.00    +0.000 A 
ATOM     16  C   UNL     1       1.024   8.937  22.325  0.00  0.00    +0.000 A 
ATOM     17  N   UNL     1       0.350   9.441  23.387  0.00  0.00    +0.000 N 
ATOM     18  N   UNL     1      -0.455  10.458  23.071  0.00  0.00    +0.000 NA
ATOM     19  C   UNL     1      -0.238  10.682  21.763  0.00  0.00    +0.000 A 
ATOM     20  H   UNL     1       0.383   9.137  24.353  0.00  0.00    +0.000 HD
BRANCH  19  21
ATOM     21  C   UNL     1      -0.982  11.823  21.079  0.00  0.00    +0.000 C 
ATOM     22  C   UNL     1      -2.088  12.463  21.953  0.00  0.00    +0.000 C 
ATOM     23  C   UNL     1      -1.532  13.305  23.106  0.00  0.00    +0.000 C 
ATOM     24  C   UNL     1      -0.508  14.339  22.650  0.00  0.00    +0.000 C 
ATOM     25  C   UNL     1       0.534  13.785  21.685  0.00  0.00    +0.000 C 
ATOM     26  C   UNL     1      -0.087  12.962  20.561  0.00  0.00    +0.000 C 
ENDBRANCH  19  21
ENDBRANCH  11  15
TORSDOF 2
ENDMDL
MODEL 7
REMARK VINA RESULT:      -6.9      2.885      4.405
REMARK  Name = 
REMARK  3 active torsions:
REMARK  status: ('A' for Active; 'I' for Inactive)
REMARK    1  A    between atoms: C_1  and  N_2
REMARK    2  A    between atoms: C_11  and  C_12
REMARK    3  A    between atoms: C_16  and  C_17
REMARK                            x       y       z     vdW  Elec       q    Type
REMARK                         _______ _______ _______ _____ _____    ______ ____
ROOT
ATOM      1  C   UNL     1       6.403   4.671  17.831  0.00  0.00    +0.000 C 
ATOM      2  N   UNL     1       5.526   5.403  18.746  0.00  0.00    +0.000 NA
ATOM      3  C   UNL     1       4.534   4.503  19.347  0.00  0.00    +0.000 C 
ATOM      4  C   UNL     1       3.386   5.181  20.106  0.00  0.00    +0.000 C 
ATOM      5  C   UNL     1       2.204   5.551  19.206  0.00  0.00    +0.000 C 
ATOM      6  N   UNL     1       2.494   6.606  18.246  0.00  0.00    +0.000 N 
ATOM      7  C   UNL     1       2.114   7.909  18.521  0.00  0.00    +0.000 A 
ATOM      8  N   UNL     1       2.354   8.851  17.588  0.00  0.00    +0.000 NA
ATOM      9  C   UNL     1       1.915  10.098  17.814  0.00  0.00    +0.000 A 
ATOM     10  C   UNL     1       1.271  10.478  18.958  0.00  0.00    +0.000 A 
ATOM     11  C   UNL     1       1.117   9.484  19.891  0.00  0.00    +0.000 A 
ATOM     12  N   UNL     1       1.496   8.202  19.673  0.00  0.00    +0.000 NA
ATOM     13  C   UNL     1       3.637   6.441  17.347  0.00  0.00    +0.000 C 
ATOM     14  C   UNL     1       4.972   6.612  18.106  0.00  0.00    +0.000 C 
ENDROOT
BRANCH  11  15
ATOM     15  C   UNL     1       0.513   9.741  21.188  0.00  0.00    +0.000 A 
ATOM     16  C   UNL     1       0.333   8.732  22.116  0.00  0.00    +0.000 A 
ATOM     17  N   UNL     1      -0.216   9.310  23.213  0.00  0.00    +0.000 N 
ATOM     18  N   UNL     1      -0.462  10.613  23.059  0.00  0.00    +0.000 NA
ATOM     19  C   UNL     1       0.022  10.919  21.843  0.00  0.00    +0.000 A 
ATOM     20  H   UNL     1      -0.459   8.876  24.096  0.00  0.00    +0.000 HD
BRANCH  19  21
ATOM     21  C   UNL     1      -0.061  12.363  21.360  0.00  0.00    +0.000 C 
ATOM     22  C   UNL     1      -1.015  12.567  20.158  0.00  0.00    +0.000 C 
ATOM     23  C   UNL     1      -2.494  12.440  20.535  0.00  0.00    +0.000 C 
ATOM     24  C   UNL     1      -2.887  13.319  21.718  0.00  0.00    +0.000 C 
ATOM     25  C   UNL     1      -1.907  13.248  22.885  0.00  0.00    +0.000 C 
ATOM     26  C   UNL     1      -0.455  13.385  22.440  0.00  0.00    +0.000 C 
ENDBRANCH  19  21
ENDBRANCH  11  15
TORSDOF 2
ENDMDL
MODEL 8
REMARK VINA RESULT:      -6.7      1.526      3.345
REMARK  Name = 
REMARK  3 active torsions:
REMARK  status: ('A' for Active; 'I' for Inactive)
REMARK    1  A    between atoms: C_1  and  N_2
REMARK    2  A    between atoms: C_11  and  C_12
REMARK    3  A    between atoms: C_16  and  C_17
REMARK                            x       y       z     vdW  Elec       q    Type
REMARK                         _______ _______ _______ _____ _____    ______ ____
ROOT
ATOM      1  C   UNL     1       1.883   2.702  19.487  0.00  0.00    +0.000 C 
ATOM      2  N   UNL     1       1.357   4.012  19.103  0.00  0.00    +0.000 NA
ATOM      3  C   UNL     1       2.158   4.598  18.021  0.00  0.00    +0.000 C 
ATOM      4  C   UNL     1       1.891   6.077  17.712  0.00  0.00    +0.000 C 
ATOM      5  C   UNL     1       2.724   7.032  18.571  0.00  0.00    +0.000 C 
ATOM      6  N   UNL     1       2.369   7.028  19.983  0.00  0.00    +0.000 N 
ATOM      7  C   UNL     1       1.540   8.016  20.485  0.00  0.00    +0.000 A 
ATOM      8  N   UNL     1       1.272   8.010  21.806  0.00  0.00    +0.000 NA
ATOM      9  C   UNL     1       0.537   9.011  22.312  0.00  0.00    +0.000 A 
ATOM     10  C   UNL     1       0.007  10.018  21.555  0.00  0.00    +0.000 A 
ATOM     11  C   UNL     1       0.266   9.927  20.210  0.00  0.00    +0.000 A 
ATOM     12  N   UNL     1       1.052   8.964  19.674  0.00  0.00    +0.000 NA
ATOM     13  C   UNL     1       2.367   5.753  20.701  0.00  0.00    +0.000 C 
ATOM     14  C   UNL     1       1.163   4.879  20.282  0.00  0.00    +0.000 C 
ENDROOT
BRANCH  11  15
ATOM     15  C   UNL     1      -0.281  10.883  19.262  0.00  0.00    +0.000 A 
ATOM     16  C   UNL     1      -0.901  10.472  18.096  0.00  0.00    +0.000 A 
ATOM     17  N   UNL     1      -1.320  11.596  17.465  0.00  0.00    +0.000 N 
ATOM     18  N   UNL     1      -0.977  12.720  18.099  0.00  0.00    +0.000 NA
ATOM     19  C   UNL     1      -0.381  12.314  19.233  0.00  0.00    +0.000 A 
ATOM     20  H   UNL     1      -1.836  11.674  16.596  0.00  0.00    +0.000 HD
BRANCH  19  21
ATOM     21  C   UNL     1       0.106  13.364  20.225  0.00  0.00    +0.000 C 
ATOM     22  C   UNL     1       1.643  13.385  20.411  0.00  0.00    +0.000 C 
ATOM     23  C   UNL     1       2.387  13.955  19.199  0.00  0.00    +0.000 C 
ATOM     24  C   UNL     1       1.857  15.314  18.757  0.00  0.00    +0.000 C 
ATOM     25  C   UNL     1       0.335  15.382  18.679  0.00  0.00    +0.000 C 
ATOM     26  C   UNL     1      -0.342  14.803  19.917  0.00  0.00    +0.000 C 
ENDBRANCH  19  21
ENDBRANCH  11  15
TORSDOF 2
ENDMDL
MODEL 9
REMARK VINA RESULT:      -6.7      2.712      7.381
REMARK  Name = 
REMARK  3 active torsions:
REMARK  status: ('A' for Active; 'I' for Inactive)
REMARK    1  A    between atoms: C_1  and  N_2
REMARK    2  A    between atoms: C_11  and  C_12
REMARK    3  A    between atoms: C_16  and  C_17
REMARK                            x       y       z     vdW  Elec       q    Type
REMARK                         _______ _______ _______ _____ _____    ______ ____
ROOT
ATOM      1  C   UNL     1       1.301  14.736  21.180  0.00  0.00    +0.000 C 
ATOM      2  N   UNL     1       1.881  13.562  20.527  0.00  0.00    +0.000 NA
ATOM      3  C   UNL     1       1.618  13.587  19.082  0.00  0.00    +0.000 C 
ATOM      4  C   UNL     1       1.926  12.291  18.321  0.00  0.00    +0.000 C 
ATOM      5  C   UNL     1       0.755  11.304  18.311  0.00  0.00    +0.000 C 
ATOM      6  N   UNL     1       0.445  10.734  19.615  0.00  0.00    +0.000 N 
ATOM      7  C   UNL     1       0.918   9.474  19.943  0.00  0.00    +0.000 A 
ATOM      8  N   UNL     1       0.572   8.957  21.137  0.00  0.00    +0.000 NA
ATOM      9  C   UNL     1       0.958   7.706  21.427  0.00  0.00    +0.000 A 
ATOM     10  C   UNL     1       1.721   6.938  20.593  0.00  0.00    +0.000 A 
ATOM     11  C   UNL     1       2.092   7.550  19.422  0.00  0.00    +0.000 A 
ATOM     12  N   UNL     1       1.672   8.789  19.073  0.00  0.00    +0.000 NA
ATOM     13  C   UNL     1       0.187  11.641  20.734  0.00  0.00    +0.000 C 
ATOM     14  C   UNL     1       1.491  12.316  21.215  0.00  0.00    +0.000 C 
ENDROOT
BRANCH  11  15
ATOM     15  C   UNL     1       2.959   6.893  18.458  0.00  0.00    +0.000 A 
ATOM     16  C   UNL     1       4.101   7.505  17.976  0.00  0.00    +0.000 A 
ATOM     17  N   UNL     1       4.688   6.619  17.135  0.00  0.00    +0.000 N 
ATOM     18  N   UNL     1       3.992   5.490  16.983  0.00  0.00    +0.000 NA
ATOM     19  C   UNL     1       2.949   5.607  17.823  0.00  0.00    +0.000 A 
ATOM     20  H   UNL     1       5.556   6.720  16.622  0.00  0.00    +0.000 HD
BRANCH  19  21
ATOM     21  C   UNL     1       1.957   4.453  17.930  0.00  0.00    +0.000 C 
ATOM     22  C   UNL     1       2.413   3.167  17.199  0.00  0.00    +0.000 C 
ATOM     23  C   UNL     1       3.567   2.450  17.907  0.00  0.00    +0.000 C 
ATOM     24  C   UNL     1       3.293   2.189  19.384  0.00  0.00    +0.000 C 
ATOM     25  C   UNL     1       2.723   3.396  20.123  0.00  0.00    +0.000 C 
ATOM     26  C   UNL     1       1.577   4.058  19.367  0.00  0.00    +0.000 C 
ENDBRANCH  19  21
ENDBRANCH  11  15
TORSDOF 2
ENDMDL
