MODEL 1
REMARK VINA RESULT:      -8.6      0.000      0.000
REMARK  Name = 
REMARK  5 active torsions:
REMARK  status: ('A' for Active; 'I' for Inactive)
REMARK    1  A    between atoms: C_1  and  C_2
REMARK    2  A    between atoms: C_2  and  C_3
REMARK    3  A    between atoms: C_2  and  C_4
REMARK    4  A    between atoms: C_10  and  C_11
REMARK    5  A    between atoms: C_11  and  C_13
REMARK                            x       y       z     vdW  Elec       q    Type
REMARK                         _______ _______ _______ _____ _____    ______ ____
ROOT
ATOM      1  C   UNL     1       6.765   4.679  14.537  0.00  0.00    +0.000 A 
ATOM      2  N   UNL     1       7.755   5.534  14.715  0.00  0.00    +0.000 NA
ATOM      3  N   UNL     1       7.598   6.144  15.932  0.00  0.00    +0.000 NA
ATOM      4  C   UNL     1       6.515   5.651  16.485  0.00  0.00    +0.000 A 
ATOM      5  C   UNL     1       5.892   5.903  17.733  0.00  0.00    +0.000 A 
ATOM      6  C   UNL     1       4.776   5.227  18.067  0.00  0.00    +0.000 A 
ATOM      7  C   UNL     1       4.149   4.276  17.149  0.00  0.00    +0.000 A 
ATOM      8  C   UNL     1       4.767   4.020  15.974  0.00  0.00    +0.000 A 
ATOM      9  N   UNL     1       5.941   4.705  15.647  0.00  0.00    +0.000 N 
ENDROOT
BRANCH   1  11
ATOM     10  C   UNL     1       5.080   3.847  12.923  0.00  0.00    +0.000 C 
ATOM     11  C   UNL     1       6.564   3.848  13.305  0.00  0.00    +0.000 C 
ATOM     12  C   UNL     1       7.402   4.395  12.148  0.00  0.00    +0.000 C 
ENDBRANCH   1  11
BRANCH   7  13
ATOM     13  C   UNL     1       2.863   3.545  17.439  0.00  0.00    +0.000 C 
ATOM     14  O   UNL     1       2.161   3.140  16.518  0.00  0.00    +0.000 OA
BRANCH  13  15
ATOM     15  C   UNL     1       2.425   3.333  18.844  0.00  0.00    +0.000 A 
ATOM     16  C   UNL     1       1.215   3.860  19.327  0.00  0.00    +0.000 A 
ATOM     17  C   UNL     1       0.848   3.663  20.662  0.00  0.00    +0.000 A 
ATOM     18  C   UNL     1       1.655   2.898  21.494  0.00  0.00    +0.000 A 
ATOM     19  F   UNL     1       1.294   2.711  22.771  0.00  0.00    +0.000 F 
ATOM     20  C   UNL     1       2.828   2.330  21.025  0.00  0.00    +0.000 A 
ATOM     21  C   UNL     1       3.210   2.554  19.702  0.00  0.00    +0.000 A 
ATOM     22  F   UNL     1       4.364   2.015  19.284  0.00  0.00    +0.000 F 
ENDBRANCH  13  15
ENDBRANCH   7  13
TORSDOF 3
ENDMDL
MODEL 2
REMARK VINA RESULT:      -8.3      1.827      2.193
REMARK  Name = 
REMARK  5 active torsions:
REMARK  status: ('A' for Active; 'I' for Inactive)
REMARK    1  A    between atoms: C_1  and  C_2
REMARK    2  A    between atoms: C_2  and  C_3
REMARK    3  A    between atoms: C_2  and  C_4
REMARK    4  A    between atoms: C_10  and  C_11
REMARK    5  A    between atoms: C_11  and  C_13
REMARK                            x       y       z     vdW  Elec       q    Type
REMARK                         _______ _______ _______ _____ _____    ______ ____
ROOT
ATOM      1  C   UNL     1       6.413   3.896  13.269  0.00  0.00    +0.000 A 
ATOM      2  N   UNL     1       7.405   4.672  12.872  0.00  0.00    +0.000 NA
ATOM      3  N   UNL     1       7.791   5.467  13.919  0.00  0.00    +0.000 NA
ATOM      4  C   UNL     1       7.031   5.166  14.945  0.00  0.00    +0.000 A 
ATOM      5  C   UNL     1       6.998   5.657  16.274  0.00  0.00    +0.000 A 
ATOM      6  C   UNL     1       6.113   5.146  17.150  0.00  0.00    +0.000 A 
ATOM      7  C   UNL     1       5.135   4.133  16.753  0.00  0.00    +0.000 A 
ATOM      8  C   UNL     1       5.193   3.648  15.492  0.00  0.00    +0.000 A 
ATOM      9  N   UNL     1       6.135   4.164  14.597  0.00  0.00    +0.000 N 
ENDROOT
BRANCH   1  11
ATOM     10  C   UNL     1       4.550   3.625  11.660  0.00  0.00    +0.000 C 
ATOM     11  C   UNL     1       5.692   2.915  12.394  0.00  0.00    +0.000 C 
ATOM     12  C   UNL     1       6.655   2.290  11.383  0.00  0.00    +0.000 C 
ENDBRANCH   1  11
BRANCH   7  13
ATOM     13  C   UNL     1       4.075   3.576  17.670  0.00  0.00    +0.000 C 
ATOM     14  O   UNL     1       3.804   2.380  17.647  0.00  0.00    +0.000 OA
BRANCH  13  15
ATOM     15  C   UNL     1       3.333   4.480  18.588  0.00  0.00    +0.000 A 
ATOM     16  C   UNL     1       2.882   5.745  18.174  0.00  0.00    +0.000 A 
ATOM     17  C   UNL     1       2.211   6.579  19.073  0.00  0.00    +0.000 A 
ATOM     18  C   UNL     1       1.940   6.131  20.359  0.00  0.00    +0.000 A 
ATOM     19  F   UNL     1       1.292   6.935  21.214  0.00  0.00    +0.000 F 
ATOM     20  C   UNL     1       2.334   4.868  20.773  0.00  0.00    +0.000 A 
ATOM     21  C   UNL     1       3.032   4.050  19.886  0.00  0.00    +0.000 A 
ATOM     22  F   UNL     1       3.425   2.845  20.323  0.00  0.00    +0.000 F 
ENDBRANCH  13  15
ENDBRANCH   7  13
TORSDOF 3
ENDMDL
MODEL 3
REMARK VINA RESULT:      -8.2      0.994      1.429
REMARK  Name = 
REMARK  5 active torsions:
REMARK  status: ('A' for Active; 'I' for Inactive)
REMARK    1  A    between atoms: C_1  and  C_2
REMARK    2  A    between atoms: C_2  and  C_3
REMARK    3  A    between atoms: C_2  and  C_4
REMARK    4  A    between atoms: C_10  and  C_11
REMARK    5  A    between atoms: C_11  and  C_13
REMARK                            x       y       z     vdW  Elec       q    Type
REMARK                         _______ _______ _______ _____ _____    ______ ____
ROOT
ATOM      1  C   UNL     1       6.745   4.530  14.350  0.00  0.00    +0.000 A 
ATOM      2  N   UNL     1       7.704   5.427  14.486  0.00  0.00    +0.000 NA
ATOM      3  N   UNL     1       7.607   5.991  15.732  0.00  0.00    +0.000 NA
ATOM      4  C   UNL     1       6.592   5.429  16.343  0.00  0.00    +0.000 A 
ATOM      5  C   UNL     1       6.049   5.611  17.639  0.00  0.00    +0.000 A 
ATOM      6  C   UNL     1       4.994   4.871  18.029  0.00  0.00    +0.000 A 
ATOM      7  C   UNL     1       4.348   3.918  17.126  0.00  0.00    +0.000 A 
ATOM      8  C   UNL     1       4.890   3.729  15.902  0.00  0.00    +0.000 A 
ATOM      9  N   UNL     1       6.004   4.481  15.516  0.00  0.00    +0.000 N 
ENDROOT
BRANCH   1  11
ATOM     10  C   UNL     1       5.024   3.856  12.702  0.00  0.00    +0.000 C 
ATOM     11  C   UNL     1       6.496   3.727  13.108  0.00  0.00    +0.000 C 
ATOM     12  C   UNL     1       7.397   4.209  11.969  0.00  0.00    +0.000 C 
ENDBRANCH   1  11
BRANCH   7  13
ATOM     13  C   UNL     1       3.123   3.115  17.482  0.00  0.00    +0.000 C 
ATOM     14  O   UNL     1       2.488   2.535  16.607  0.00  0.00    +0.000 OA
BRANCH  13  15
ATOM     15  C   UNL     1       2.661   3.044  18.893  0.00  0.00    +0.000 A 
ATOM     16  C   UNL     1       3.419   2.403  19.887  0.00  0.00    +0.000 A 
ATOM     17  C   UNL     1       2.941   2.333  21.199  0.00  0.00    +0.000 A 
ATOM     18  C   UNL     1       1.740   2.949  21.530  0.00  0.00    +0.000 A 
ATOM     19  F   UNL     1       1.291   2.881  22.790  0.00  0.00    +0.000 F 
ATOM     20  C   UNL     1       1.001   3.628  20.575  0.00  0.00    +0.000 A 
ATOM     21  C   UNL     1       1.463   3.669  19.260  0.00  0.00    +0.000 A 
ATOM     22  F   UNL     1       0.711   4.310  18.352  0.00  0.00    +0.000 F 
ENDBRANCH  13  15
ENDBRANCH   7  13
TORSDOF 3
ENDMDL
MODEL 4
REMARK VINA RESULT:      -8.1      3.884      6.845
REMARK  Name = 
REMARK  5 active torsions:
REMARK  status: ('A' for Active; 'I' for Inactive)
REMARK    1  A    between atoms: C_1  and  C_2
REMARK    2  A    between atoms: C_2  and  C_3
REMARK    3  A    between atoms: C_2  and  C_4
REMARK    4  A    between atoms: C_10  and  C_11
REMARK    5  A    between atoms: C_11  and  C_13
REMARK                            x       y       z     vdW  Elec       q    Type
REMARK                         _______ _______ _______ _____ _____    ______ ____
ROOT
ATOM      1  C   UNL     1       1.766   5.147  20.036  0.00  0.00    +0.000 A 
ATOM      2  N   UNL     1       0.734   4.413  20.411  0.00  0.00    +0.000 NA
ATOM      3  N   UNL     1       0.812   3.193  19.791  0.00  0.00    +0.000 NA
ATOM      4  C   UNL     1       1.892   3.195  19.047  0.00  0.00    +0.000 A 
ATOM      5  C   UNL     1       2.467   2.205  18.211  0.00  0.00    +0.000 A 
ATOM      6  C   UNL     1       3.618   2.468  17.564  0.00  0.00    +0.000 A 
ATOM      7  C   UNL     1       4.269   3.775  17.652  0.00  0.00    +0.000 A 
ATOM      8  C   UNL     1       3.730   4.704  18.475  0.00  0.00    +0.000 A 
ATOM      9  N   UNL     1       2.550   4.412  19.165  0.00  0.00    +0.000 N 
ENDROOT
BRANCH   1  11
ATOM     10  C   UNL     1       2.295   7.431  19.239  0.00  0.00    +0.000 C 
ATOM     11  C   UNL     1       2.010   6.562  20.468  0.00  0.00    +0.000 C 
ATOM     12  C   UNL     1       0.798   7.107  21.225  0.00  0.00    +0.000 C 
ENDBRANCH   1  11
BRANCH   7  13
ATOM     13  C   UNL     1       5.518   4.150  16.896  0.00  0.00    +0.000 C 
ATOM     14  O   UNL     1       5.829   3.544  15.876  0.00  0.00    +0.000 OA
BRANCH  13  15
ATOM     15  C   UNL     1       6.395   5.240  17.399  0.00  0.00    +0.000 A 
ATOM     16  C   UNL     1       7.347   5.016  18.408  0.00  0.00    +0.000 A 
ATOM     17  C   UNL     1       8.137   6.071  18.875  0.00  0.00    +0.000 A 
ATOM     18  C   UNL     1       8.018   7.329  18.298  0.00  0.00    +0.000 A 
ATOM     19  F   UNL     1       8.782   8.335  18.747  0.00  0.00    +0.000 F 
ATOM     20  C   UNL     1       7.120   7.560  17.268  0.00  0.00    +0.000 A 
ATOM     21  C   UNL     1       6.310   6.515  16.826  0.00  0.00    +0.000 A 
ATOM     22  F   UNL     1       5.430   6.776  15.848  0.00  0.00    +0.000 F 
ENDBRANCH  13  15
ENDBRANCH   7  13
TORSDOF 3
ENDMDL
MODEL 5
REMARK VINA RESULT:      -8.0      3.479      3.975
REMARK  Name = 
REMARK  5 active torsions:
REMARK  status: ('A' for Active; 'I' for Inactive)
REMARK    1  A    between atoms: C_1  and  C_2
REMARK    2  A    between atoms: C_2  and  C_3
REMARK    3  A    between atoms: C_2  and  C_4
REMARK    4  A    between atoms: C_10  and  C_11
REMARK    5  A    between atoms: C_11  and  C_13
REMARK                            x       y       z     vdW  Elec       q    Type
REMARK                         _______ _______ _______ _____ _____    ______ ____
ROOT
ATOM      1  C   UNL     1       6.675   4.795  15.878  0.00  0.00    +0.000 A 
ATOM      2  N   UNL     1       7.887   4.528  16.328  0.00  0.00    +0.000 NA
ATOM      3  N   UNL     1       7.863   4.541  17.698  0.00  0.00    +0.000 NA
ATOM      4  C   UNL     1       6.634   4.813  18.070  0.00  0.00    +0.000 A 
ATOM      5  C   UNL     1       6.038   4.936  19.349  0.00  0.00    +0.000 A 
ATOM      6  C   UNL     1       4.723   5.205  19.447  0.00  0.00    +0.000 A 
ATOM      7  C   UNL     1       3.895   5.437  18.263  0.00  0.00    +0.000 A 
ATOM      8  C   UNL     1       4.465   5.288  17.046  0.00  0.00    +0.000 A 
ATOM      9  N   UNL     1       5.825   4.979  16.953  0.00  0.00    +0.000 N 
ENDROOT
BRANCH   1  11
ATOM     10  C   UNL     1       7.570   5.165  13.598  0.00  0.00    +0.000 C 
ATOM     11  C   UNL     1       6.307   4.912  14.429  0.00  0.00    +0.000 C 
ATOM     12  C   UNL     1       5.611   3.637  13.949  0.00  0.00    +0.000 C 
ENDBRANCH   1  11
BRANCH   7  13
ATOM     13  C   UNL     1       2.436   5.811  18.312  0.00  0.00    +0.000 C 
ATOM     14  O   UNL     1       1.603   5.135  17.717  0.00  0.00    +0.000 OA
BRANCH  13  15
ATOM     15  C   UNL     1       2.000   7.020  19.062  0.00  0.00    +0.000 A 
ATOM     16  C   UNL     1       1.639   6.957  20.418  0.00  0.00    +0.000 A 
ATOM     17  C   UNL     1       1.209   8.109  21.084  0.00  0.00    +0.000 A 
ATOM     18  C   UNL     1       1.196   9.327  20.416  0.00  0.00    +0.000 A 
ATOM     19  F   UNL     1       0.787  10.427  21.062  0.00  0.00    +0.000 F 
ATOM     20  C   UNL     1       1.594   9.419  19.092  0.00  0.00    +0.000 A 
ATOM     21  C   UNL     1       1.992   8.264  18.420  0.00  0.00    +0.000 A 
ATOM     22  F   UNL     1       2.345   8.380  17.132  0.00  0.00    +0.000 F 
ENDBRANCH  13  15
ENDBRANCH   7  13
TORSDOF 3
ENDMDL
MODEL 6
REMARK VINA RESULT:      -7.9      5.182      7.343
REMARK  Name = 
REMARK  5 active torsions:
REMARK  status: ('A' for Active; 'I' for Inactive)
REMARK    1  A    between atoms: C_1  and  C_2
REMARK    2  A    between atoms: C_2  and  C_3
REMARK    3  A    between atoms: C_2  and  C_4
REMARK    4  A    between atoms: C_10  and  C_11
REMARK    5  A    between atoms: C_11  and  C_13
REMARK                            x       y       z     vdW  Elec       q    Type
REMARK                         _______ _______ _______ _____ _____    ______ ____
ROOT
ATOM      1  C   UNL     1       0.246   9.919  20.925  0.00  0.00    +0.000 A 
ATOM      2  N   UNL     1      -0.141  11.049  20.363  0.00  0.00    +0.000 NA
ATOM      3  N   UNL     1       0.370  11.110  19.094  0.00  0.00    +0.000 NA
ATOM      4  C   UNL     1       1.063  10.014  18.892  0.00  0.00    +0.000 A 
ATOM      5  C   UNL     1       1.787   9.545  17.768  0.00  0.00    +0.000 A 
ATOM      6  C   UNL     1       2.400   8.349  17.824  0.00  0.00    +0.000 A 
ATOM      7  C   UNL     1       2.393   7.536  19.041  0.00  0.00    +0.000 A 
ATOM      8  C   UNL     1       1.675   7.977  20.099  0.00  0.00    +0.000 A 
ATOM      9  N   UNL     1       1.016   9.208  20.022  0.00  0.00    +0.000 N 
ENDROOT
BRANCH   1  11
ATOM     10  C   UNL     1       1.221   9.332  23.125  0.00  0.00    +0.000 C 
ATOM     11  C   UNL     1      -0.077   9.506  22.329  0.00  0.00    +0.000 C 
ATOM     12  C   UNL     1      -0.968  10.553  23.003  0.00  0.00    +0.000 C 
ENDBRANCH   1  11
BRANCH   7  13
ATOM     13  C   UNL     1       3.120   6.224  19.186  0.00  0.00    +0.000 C 
ATOM     14  O   UNL     1       4.322   6.206  19.432  0.00  0.00    +0.000 OA
BRANCH  13  15
ATOM     15  C   UNL     1       2.389   4.942  19.004  0.00  0.00    +0.000 A 
ATOM     16  C   UNL     1       2.373   4.270  17.769  0.00  0.00    +0.000 A 
ATOM     17  C   UNL     1       1.653   3.080  17.628  0.00  0.00    +0.000 A 
ATOM     18  C   UNL     1       1.001   2.533  18.726  0.00  0.00    +0.000 A 
ATOM     19  F   UNL     1       0.317   1.390  18.583  0.00  0.00    +0.000 F 
ATOM     20  C   UNL     1       1.044   3.155  19.963  0.00  0.00    +0.000 A 
ATOM     21  C   UNL     1       1.735   4.358  20.095  0.00  0.00    +0.000 A 
ATOM     22  F   UNL     1       1.736   4.951  21.299  0.00  0.00    +0.000 F 
ENDBRANCH  13  15
ENDBRANCH   7  13
TORSDOF 3
ENDMDL
MODEL 7
REMARK VINA RESULT:      -7.9      3.849      5.141
REMARK  Name = 
REMARK  5 active torsions:
REMARK  status: ('A' for Active; 'I' for Inactive)
REMARK    1  A    between atoms: C_1  and  C_2
REMARK    2  A    between atoms: C_2  and  C_3
REMARK    3  A    between atoms: C_2  and  C_4
REMARK    4  A    between atoms: C_10  and  C_11
REMARK    5  A    between atoms: C_11  and  C_13
REMARK                            x       y       z     vdW  Elec       q    Type
REMARK                         _______ _______ _______ _____ _____    ______ ____
ROOT
ATOM      1  C   UNL     1       6.899   5.500  17.087  0.00  0.00    +0.000 A 
ATOM      2  N   UNL     1       7.236   4.643  16.141  0.00  0.00    +0.000 NA
ATOM      3  N   UNL     1       6.145   3.873  15.833  0.00  0.00    +0.000 NA
ATOM      4  C   UNL     1       5.152   4.271  16.593  0.00  0.00    +0.000 A 
ATOM      5  C   UNL     1       3.804   3.846  16.688  0.00  0.00    +0.000 A 
ATOM      6  C   UNL     1       2.974   4.454  17.556  0.00  0.00    +0.000 A 
ATOM      7  C   UNL     1       3.441   5.511  18.454  0.00  0.00    +0.000 A 
ATOM      8  C   UNL     1       4.721   5.931  18.336  0.00  0.00    +0.000 A 
ATOM      9  N   UNL     1       5.568   5.313  17.411  0.00  0.00    +0.000 N 
ENDROOT
BRANCH   1  11
ATOM     10  C   UNL     1       7.291   7.905  17.528  0.00  0.00    +0.000 C 
ATOM     11  C   UNL     1       7.834   6.485  17.721  0.00  0.00    +0.000 C 
ATOM     12  C   UNL     1       7.998   6.185  19.212  0.00  0.00    +0.000 C 
ENDBRANCH   1  11
BRANCH   7  13
ATOM     13  C   UNL     1       2.577   6.178  19.494  0.00  0.00    +0.000 C 
ATOM     14  O   UNL     1       2.267   5.578  20.518  0.00  0.00    +0.000 OA
BRANCH  13  15
ATOM     15  C   UNL     1       2.074   7.560  19.271  0.00  0.00    +0.000 A 
ATOM     16  C   UNL     1       2.128   8.170  18.006  0.00  0.00    +0.000 A 
ATOM     17  C   UNL     1       1.670   9.480  17.839  0.00  0.00    +0.000 A 
ATOM     18  C   UNL     1       1.108  10.157  18.914  0.00  0.00    +0.000 A 
ATOM     19  F   UNL     1       0.667  11.411  18.745  0.00  0.00    +0.000 F 
ATOM     20  C   UNL     1       1.001   9.556  20.158  0.00  0.00    +0.000 A 
ATOM     21  C   UNL     1       1.488   8.261  20.331  0.00  0.00    +0.000 A 
ATOM     22  F   UNL     1       1.397   7.716  21.553  0.00  0.00    +0.000 F 
ENDBRANCH  13  15
ENDBRANCH   7  13
TORSDOF 3
ENDMDL
MODEL 8
REMARK VINA RESULT:      -7.8      4.944      7.662
REMARK  Name = 
REMARK  5 active torsions:
REMARK  status: ('A' for Active; 'I' for Inactive)
REMARK    1  A    between atoms: C_1  and  C_2
REMARK    2  A    between atoms: C_2  and  C_3
REMARK    3  A    between atoms: C_2  and  C_4
REMARK    4  A    between atoms: C_10  and  C_11
REMARK    5  A    between atoms: C_11  and  C_13
REMARK                            x       y       z     vdW  Elec       q    Type
REMARK                         _______ _______ _______ _____ _____    ______ ____
ROOT
ATOM      1  C   UNL     1       0.483   9.610  20.883  0.00  0.00    +0.000 A 
ATOM      2  N   UNL     1       0.161  10.713  20.233  0.00  0.00    +0.000 NA
ATOM      3  N   UNL     1       0.714  10.666  18.980  0.00  0.00    +0.000 NA
ATOM      4  C   UNL     1       1.366   9.533  18.878  0.00  0.00    +0.000 A 
ATOM      5  C   UNL     1       2.104   8.959  17.813  0.00  0.00    +0.000 A 
ATOM      6  C   UNL     1       2.666   7.746  17.971  0.00  0.00    +0.000 A 
ATOM      7  C   UNL     1       2.587   7.020  19.240  0.00  0.00    +0.000 A 
ATOM      8  C   UNL     1       1.855   7.561  20.240  0.00  0.00    +0.000 A 
ATOM      9  N   UNL     1       1.251   8.809  20.057  0.00  0.00    +0.000 N 
ENDROOT
BRANCH   1  11
ATOM     10  C   UNL     1       1.358   9.259  23.173  0.00  0.00    +0.000 C 
ATOM     11  C   UNL     1       0.099   9.309  22.301  0.00  0.00    +0.000 C 
ATOM     12  C   UNL     1      -0.864  10.373  22.832  0.00  0.00    +0.000 C 
ENDBRANCH   1  11
BRANCH   7  13
ATOM     13  C   UNL     1       3.254   5.694  19.498  0.00  0.00    +0.000 C 
ATOM     14  O   UNL     1       2.820   4.942  20.365  0.00  0.00    +0.000 OA
BRANCH  13  15
ATOM     15  C   UNL     1       4.459   5.301  18.720  0.00  0.00    +0.000 A 
ATOM     16  C   UNL     1       5.758   5.577  19.182  0.00  0.00    +0.000 A 
ATOM     17  C   UNL     1       6.867   5.216  18.412  0.00  0.00    +0.000 A 
ATOM     18  C   UNL     1       6.684   4.533  17.216  0.00  0.00    +0.000 A 
ATOM     19  F   UNL     1       7.753   4.187  16.486  0.00  0.00    +0.000 F 
ATOM     20  C   UNL     1       5.414   4.208  16.767  0.00  0.00    +0.000 A 
ATOM     21  C   UNL     1       4.307   4.597  17.520  0.00  0.00    +0.000 A 
ATOM     22  F   UNL     1       3.090   4.294  17.045  0.00  0.00    +0.000 F 
ENDBRANCH  13  15
ENDBRANCH   7  13
TORSDOF 3
ENDMDL
MODEL 9
REMARK VINA RESULT:      -7.8      5.113      7.171
REMARK  Name = 
REMARK  5 active torsions:
REMARK  status: ('A' for Active; 'I' for Inactive)
REMARK    1  A    between atoms: C_1  and  C_2
REMARK    2  A    between atoms: C_2  and  C_3
REMARK    3  A    between atoms: C_2  and  C_4
REMARK    4  A    between atoms: C_10  and  C_11
REMARK    5  A    between atoms: C_11  and  C_13
REMARK                            x       y       z     vdW  Elec       q    Type
REMARK                         _______ _______ _______ _____ _____    ______ ____
ROOT
ATOM      1  C   UNL     1       0.495  10.115  20.726  0.00  0.00    +0.000 A 
ATOM      2  N   UNL     1       0.158  11.200  20.055  0.00  0.00    +0.000 NA
ATOM      3  N   UNL     1       0.659  11.107  18.783  0.00  0.00    +0.000 NA
ATOM      4  C   UNL     1       1.294   9.962  18.690  0.00  0.00    +0.000 A 
ATOM      5  C   UNL     1       1.982   9.346  17.616  0.00  0.00    +0.000 A 
ATOM      6  C   UNL     1       2.536   8.131  17.790  0.00  0.00    +0.000 A 
ATOM      7  C   UNL     1       2.501   7.448  19.084  0.00  0.00    +0.000 A 
ATOM      8  C   UNL     1       1.817   8.030  20.095  0.00  0.00    +0.000 A 
ATOM      9  N   UNL     1       1.220   9.278  19.897  0.00  0.00    +0.000 N 
ENDROOT
BRANCH   1  11
ATOM     10  C   UNL     1      -0.755  10.974  22.684  0.00  0.00    +0.000 C 
ATOM     11  C   UNL     1       0.166   9.864  22.167  0.00  0.00    +0.000 C 
ATOM     12  C   UNL     1      -0.511   8.502  22.333  0.00  0.00    +0.000 C 
ENDBRANCH   1  11
BRANCH   7  13
ATOM     13  C   UNL     1       3.163   6.122  19.357  0.00  0.00    +0.000 C 
ATOM     14  O   UNL     1       4.341   6.078  19.700  0.00  0.00    +0.000 OA
BRANCH  13  15
ATOM     15  C   UNL     1       2.400   4.857  19.188  0.00  0.00    +0.000 A 
ATOM     16  C   UNL     1       1.476   4.418  20.151  0.00  0.00    +0.000 A 
ATOM     17  C   UNL     1       0.795   3.210  19.970  0.00  0.00    +0.000 A 
ATOM     18  C   UNL     1       0.992   2.474  18.809  0.00  0.00    +0.000 A 
ATOM     19  F   UNL     1       0.333   1.320  18.641  0.00  0.00    +0.000 F 
ATOM     20  C   UNL     1       1.863   2.914  17.824  0.00  0.00    +0.000 A 
ATOM     21  C   UNL     1       2.565   4.102  18.021  0.00  0.00    +0.000 A 
ATOM     22  F   UNL     1       3.422   4.488  17.063  0.00  0.00    +0.000 F 
ENDBRANCH  13  15
ENDBRANCH   7  13
TORSDOF 3
ENDMDL
