MODEL 1
REMARK VINA RESULT:      -7.7      0.000      0.000
REMARK  Name = 
REMARK  6 active torsions:
REMARK  status: ('A' for Active; 'I' for Inactive)
REMARK    1  A    between atoms: C_1  and  O_2
REMARK    2  A    between atoms: O_2  and  C_3
REMARK    3  A    between atoms: C_9  and  N_10
REMARK    4  A    between atoms: C_11  and  C_12
REMARK    5  A    between atoms: C_17  and  O_18
REMARK    6  A    between atoms: O_18  and  C_19
REMARK                            x       y       z     vdW  Elec       q    Type
REMARK                         _______ _______ _______ _____ _____    ______ ____
ROOT
ATOM      1  C   UNL     1       0.492   9.845  21.957  0.00  0.00    +0.000 A 
ATOM      2  C   UNL     1       0.524  10.753  20.878  0.00  0.00    +0.000 A 
ATOM      3  C   UNL     1       1.020  10.373  19.632  0.00  0.00    +0.000 A 
ATOM      4  C   UNL     1       1.479   9.077  19.512  0.00  0.00    +0.000 A 
ATOM      5  C   UNL     1       1.486   8.164  20.559  0.00  0.00    +0.000 A 
ATOM      6  C   UNL     1       0.990   8.543  21.800  0.00  0.00    +0.000 A 
ATOM      7  C   UNL     1       2.105   6.916  20.103  0.00  0.00    +0.000 C 
ATOM      8  C   UNL     1       2.438   7.045  18.801  0.00  0.00    +0.000 C 
ATOM      9  C   UNL     1       2.052   8.410  18.353  0.00  0.00    +0.000 C 
ATOM     10  O   UNL     1       2.167   8.889  17.243  0.00  0.00    +0.000 OA
ENDROOT
BRANCH   8  11
ATOM     11  C   UNL     1       3.182   6.106  17.969  0.00  0.00    +0.000 A 
ATOM     12  C   UNL     1       4.367   6.616  17.400  0.00  0.00    +0.000 A 
ATOM     13  C   UNL     1       5.186   5.825  16.596  0.00  0.00    +0.000 A 
ATOM     14  C   UNL     1       4.834   4.505  16.346  0.00  0.00    +0.000 A 
ATOM     15  C   UNL     1       3.675   3.980  16.917  0.00  0.00    +0.000 A 
ATOM     16  C   UNL     1       2.839   4.767  17.728  0.00  0.00    +0.000 A 
BRANCH  16  17
ATOM     17  O   UNL     1       1.798   4.060  18.269  0.00  0.00    +0.000 OA
ATOM     18  C   UNL     1       2.062   2.727  18.679  0.00  0.00    +0.000 C 
ENDBRANCH  16  17
ENDBRANCH   8  11
BRANCH   7  19
ATOM     19  N   UNL     1       2.317   5.873  20.964  0.00  0.00    +0.000 N 
ATOM     20  H   UNL     1       2.286   6.132  21.946  0.00  0.00    +0.000 HD
ATOM     21  H   UNL     1       1.722   5.069  20.765  0.00  0.00    +0.000 HD
ENDBRANCH   7  19
BRANCH   1  23
ATOM     22  C   UNL     1      -1.208  11.169  22.968  0.00  0.00    +0.000 C 
ATOM     23  O   UNL     1      -0.044  10.363  23.105  0.00  0.00    +0.000 OA
ENDBRANCH   1  23
TORSDOF 4
ENDMDL
MODEL 2
REMARK VINA RESULT:      -7.4      4.655      7.452
REMARK  Name = 
REMARK  6 active torsions:
REMARK  status: ('A' for Active; 'I' for Inactive)
REMARK    1  A    between atoms: C_1  and  O_2
REMARK    2  A    between atoms: O_2  and  C_3
REMARK    3  A    between atoms: C_9  and  N_10
REMARK    4  A    between atoms: C_11  and  C_12
REMARK    5  A    between atoms: C_17  and  O_18
REMARK    6  A    between atoms: O_18  and  C_19
REMARK                            x       y       z     vdW  Elec       q    Type
REMARK                         _______ _______ _______ _____ _____    ______ ____
ROOT
ATOM      1  C   UNL     1       7.116   5.072  14.873  0.00  0.00    +0.000 A 
ATOM      2  C   UNL     1       6.100   4.477  14.096  0.00  0.00    +0.000 A 
ATOM      3  C   UNL     1       4.933   3.993  14.687  0.00  0.00    +0.000 A 
ATOM      4  C   UNL     1       4.828   4.120  16.056  0.00  0.00    +0.000 A 
ATOM      5  C   UNL     1       5.818   4.678  16.855  0.00  0.00    +0.000 A 
ATOM      6  C   UNL     1       6.981   5.161  16.266  0.00  0.00    +0.000 A 
ATOM      7  C   UNL     1       5.410   4.588  18.260  0.00  0.00    +0.000 C 
ATOM      8  C   UNL     1       4.186   4.022  18.322  0.00  0.00    +0.000 C 
ATOM      9  C   UNL     1       3.746   3.706  16.936  0.00  0.00    +0.000 C 
ATOM     10  O   UNL     1       2.693   3.216  16.584  0.00  0.00    +0.000 OA
ENDROOT
BRANCH   8  11
ATOM     11  C   UNL     1       3.441   3.626  19.512  0.00  0.00    +0.000 A 
ATOM     12  C   UNL     1       2.223   4.305  19.713  0.00  0.00    +0.000 A 
ATOM     13  C   UNL     1       1.400   4.017  20.800  0.00  0.00    +0.000 A 
ATOM     14  C   UNL     1       1.782   3.040  21.709  0.00  0.00    +0.000 A 
ATOM     15  C   UNL     1       2.976   2.345  21.515  0.00  0.00    +0.000 A 
ATOM     16  C   UNL     1       3.816   2.627  20.425  0.00  0.00    +0.000 A 
BRANCH  16  17
ATOM     17  O   UNL     1       4.896   1.789  20.349  0.00  0.00    +0.000 OA
ATOM     18  C   UNL     1       5.219   1.041  21.512  0.00  0.00    +0.000 C 
ENDBRANCH  16  17
ENDBRANCH   8  11
BRANCH   7  19
ATOM     19  N   UNL     1       6.244   4.988  19.269  0.00  0.00    +0.000 N 
ATOM     20  H   UNL     1       6.476   4.254  19.932  0.00  0.00    +0.000 HD
ATOM     21  H   UNL     1       7.078   5.467  18.928  0.00  0.00    +0.000 HD
ENDBRANCH   7  19
BRANCH   1  23
ATOM     22  C   UNL     1       8.056   5.493  12.728  0.00  0.00    +0.000 C 
ATOM     23  O   UNL     1       8.186   5.515  14.143  0.00  0.00    +0.000 OA
ENDBRANCH   1  23
TORSDOF 4
ENDMDL
MODEL 3
REMARK VINA RESULT:      -7.3      1.182      2.055
REMARK  Name = 
REMARK  6 active torsions:
REMARK  status: ('A' for Active; 'I' for Inactive)
REMARK    1  A    between atoms: C_1  and  O_2
REMARK    2  A    between atoms: O_2  and  C_3
REMARK    3  A    between atoms: C_9  and  N_10
REMARK    4  A    between atoms: C_11  and  C_12
REMARK    5  A    between atoms: C_17  and  O_18
REMARK    6  A    between atoms: O_18  and  C_19
REMARK                            x       y       z     vdW  Elec       q    Type
REMARK                         _______ _______ _______ _____ _____    ______ ____
ROOT
ATOM      1  C   UNL     1       0.523   9.969  21.817  0.00  0.00    +0.000 A 
ATOM      2  C   UNL     1       0.601  10.815  20.691  0.00  0.00    +0.000 A 
ATOM      3  C   UNL     1       1.102  10.350  19.475  0.00  0.00    +0.000 A 
ATOM      4  C   UNL     1       1.519   9.035  19.434  0.00  0.00    +0.000 A 
ATOM      5  C   UNL     1       1.480   8.182  20.529  0.00  0.00    +0.000 A 
ATOM      6  C   UNL     1       0.979   8.645  21.740  0.00  0.00    +0.000 A 
ATOM      7  C   UNL     1       2.062   6.891  20.153  0.00  0.00    +0.000 C 
ATOM      8  C   UNL     1       2.419   6.936  18.852  0.00  0.00    +0.000 C 
ATOM      9  C   UNL     1       2.086   8.286  18.323  0.00  0.00    +0.000 C 
ATOM     10  O   UNL     1       2.234   8.699  17.191  0.00  0.00    +0.000 OA
ENDROOT
BRANCH   8  11
ATOM     11  C   UNL     1       3.143   5.929  18.085  0.00  0.00    +0.000 A 
ATOM     12  C   UNL     1       2.432   4.737  17.836  0.00  0.00    +0.000 A 
ATOM     13  C   UNL     1       2.995   3.695  17.101  0.00  0.00    +0.000 A 
ATOM     14  C   UNL     1       4.284   3.826  16.601  0.00  0.00    +0.000 A 
ATOM     15  C   UNL     1       4.994   5.006  16.823  0.00  0.00    +0.000 A 
ATOM     16  C   UNL     1       4.439   6.063  17.563  0.00  0.00    +0.000 A 
BRANCH  16  17
ATOM     17  O   UNL     1       5.245   7.170  17.604  0.00  0.00    +0.000 OA
ATOM     18  C   UNL     1       6.603   6.998  17.226  0.00  0.00    +0.000 C 
ENDBRANCH  16  17
ENDBRANCH   8  11
BRANCH   7  19
ATOM     19  N   UNL     1       2.226   5.890  21.074  0.00  0.00    +0.000 N 
ATOM     20  H   UNL     1       2.571   5.018  20.682  0.00  0.00    +0.000 HD
ATOM     21  H   UNL     1       2.772   6.183  21.884  0.00  0.00    +0.000 HD
ENDBRANCH   7  19
BRANCH   1  23
ATOM     22  C   UNL     1      -0.899  11.657  22.707  0.00  0.00    +0.000 C 
ATOM     23  O   UNL     1      -0.012  10.567  22.926  0.00  0.00    +0.000 OA
ENDBRANCH   1  23
TORSDOF 4
ENDMDL
MODEL 4
REMARK VINA RESULT:      -7.3      3.102      7.628
REMARK  Name = 
REMARK  6 active torsions:
REMARK  status: ('A' for Active; 'I' for Inactive)
REMARK    1  A    between atoms: C_1  and  O_2
REMARK    2  A    between atoms: O_2  and  C_3
REMARK    3  A    between atoms: C_9  and  N_10
REMARK    4  A    between atoms: C_11  and  C_12
REMARK    5  A    between atoms: C_17  and  O_18
REMARK    6  A    between atoms: O_18  and  C_19
REMARK                            x       y       z     vdW  Elec       q    Type
REMARK                         _______ _______ _______ _____ _____    ______ ____
ROOT
ATOM      1  C   UNL     1       6.517   4.451  14.306  0.00  0.00    +0.000 A 
ATOM      2  C   UNL     1       7.529   4.962  15.145  0.00  0.00    +0.000 A 
ATOM      3  C   UNL     1       7.362   5.006  16.529  0.00  0.00    +0.000 A 
ATOM      4  C   UNL     1       6.165   4.536  17.028  0.00  0.00    +0.000 A 
ATOM      5  C   UNL     1       5.137   4.051  16.230  0.00  0.00    +0.000 A 
ATOM      6  C   UNL     1       5.305   4.005  14.852  0.00  0.00    +0.000 A 
ATOM      7  C   UNL     1       3.992   3.707  17.078  0.00  0.00    +0.000 C 
ATOM      8  C   UNL     1       4.319   3.942  18.367  0.00  0.00    +0.000 C 
ATOM      9  C   UNL     1       5.710   4.467  18.409  0.00  0.00    +0.000 C 
ATOM     10  O   UNL     1       6.363   4.769  19.387  0.00  0.00    +0.000 OA
ENDROOT
BRANCH   8  11
ATOM     11  C   UNL     1       3.456   3.860  19.540  0.00  0.00    +0.000 A 
ATOM     12  C   UNL     1       3.530   2.648  20.257  0.00  0.00    +0.000 A 
ATOM     13  C   UNL     1       2.773   2.438  21.408  0.00  0.00    +0.000 A 
ATOM     14  C   UNL     1       1.924   3.438  21.865  0.00  0.00    +0.000 A 
ATOM     15  C   UNL     1       1.853   4.650  21.177  0.00  0.00    +0.000 A 
ATOM     16  C   UNL     1       2.610   4.875  20.014  0.00  0.00    +0.000 A 
BRANCH  16  17
ATOM     17  O   UNL     1       2.478   6.148  19.527  0.00  0.00    +0.000 OA
ATOM     18  C   UNL     1       1.903   7.117  20.391  0.00  0.00    +0.000 C 
ENDBRANCH  16  17
ENDBRANCH   8  11
BRANCH   7  19
ATOM     19  N   UNL     1       2.808   3.283  16.537  0.00  0.00    +0.000 N 
ATOM     20  H   UNL     1       2.177   2.851  17.205  0.00  0.00    +0.000 HD
ATOM     21  H   UNL     1       2.343   4.005  15.988  0.00  0.00    +0.000 HD
ENDBRANCH   7  19
BRANCH   1  23
ATOM     22  C   UNL     1       6.351   3.378  12.188  0.00  0.00    +0.000 C 
ATOM     23  O   UNL     1       6.842   4.455  12.976  0.00  0.00    +0.000 OA
ENDBRANCH   1  23
TORSDOF 4
ENDMDL
MODEL 5
REMARK VINA RESULT:      -7.2      0.976      1.073
REMARK  Name = 
REMARK  6 active torsions:
REMARK  status: ('A' for Active; 'I' for Inactive)
REMARK    1  A    between atoms: C_1  and  O_2
REMARK    2  A    between atoms: O_2  and  C_3
REMARK    3  A    between atoms: C_9  and  N_10
REMARK    4  A    between atoms: C_11  and  C_12
REMARK    5  A    between atoms: C_17  and  O_18
REMARK    6  A    between atoms: O_18  and  C_19
REMARK                            x       y       z     vdW  Elec       q    Type
REMARK                         _______ _______ _______ _____ _____    ______ ____
ROOT
ATOM      1  C   UNL     1       0.235   8.768  21.569  0.00  0.00    +0.000 A 
ATOM      2  C   UNL     1       0.230   9.792  20.599  0.00  0.00    +0.000 A 
ATOM      3  C   UNL     1       0.939   9.656  19.405  0.00  0.00    +0.000 A 
ATOM      4  C   UNL     1       1.644   8.483  19.228  0.00  0.00    +0.000 A 
ATOM      5  C   UNL     1       1.691   7.465  20.172  0.00  0.00    +0.000 A 
ATOM      6  C   UNL     1       0.983   7.600  21.361  0.00  0.00    +0.000 A 
ATOM      7  C   UNL     1       2.584   6.406  19.693  0.00  0.00    +0.000 C 
ATOM      8  C   UNL     1       3.046   6.747  18.470  0.00  0.00    +0.000 C 
ATOM      9  C   UNL     1       2.470   8.069  18.105  0.00  0.00    +0.000 C 
ATOM     10  O   UNL     1       2.630   8.691  17.075  0.00  0.00    +0.000 OA
ENDROOT
BRANCH   8  11
ATOM     11  C   UNL     1       4.050   6.058  17.667  0.00  0.00    +0.000 A 
ATOM     12  C   UNL     1       5.224   6.795  17.411  0.00  0.00    +0.000 A 
ATOM     13  C   UNL     1       6.274   6.254  16.671  0.00  0.00    +0.000 A 
ATOM     14  C   UNL     1       6.169   4.963  16.172  0.00  0.00    +0.000 A 
ATOM     15  C   UNL     1       5.021   4.213  16.432  0.00  0.00    +0.000 A 
ATOM     16  C   UNL     1       3.954   4.747  17.175  0.00  0.00    +0.000 A 
BRANCH  16  17
ATOM     17  O   UNL     1       2.954   3.840  17.403  0.00  0.00    +0.000 OA
ATOM     18  C   UNL     1       3.340   2.540  17.826  0.00  0.00    +0.000 C 
ENDBRANCH  16  17
ENDBRANCH   8  11
BRANCH   7  19
ATOM     19  N   UNL     1       2.879   5.319  20.470  0.00  0.00    +0.000 N 
ATOM     20  H   UNL     1       2.631   5.429  21.449  0.00  0.00    +0.000 HD
ATOM     21  H   UNL     1       2.519   4.447  20.084  0.00  0.00    +0.000 HD
ENDBRANCH   7  19
BRANCH   1  23
ATOM     22  C   UNL     1      -0.687  10.413  23.021  0.00  0.00    +0.000 C 
ATOM     23  O   UNL     1      -0.526   9.044  22.672  0.00  0.00    +0.000 OA
ENDBRANCH   1  23
TORSDOF 4
ENDMDL
MODEL 6
REMARK VINA RESULT:      -7.1      3.097      7.435
REMARK  Name = 
REMARK  6 active torsions:
REMARK  status: ('A' for Active; 'I' for Inactive)
REMARK    1  A    between atoms: C_1  and  O_2
REMARK    2  A    between atoms: O_2  and  C_3
REMARK    3  A    between atoms: C_9  and  N_10
REMARK    4  A    between atoms: C_11  and  C_12
REMARK    5  A    between atoms: C_17  and  O_18
REMARK    6  A    between atoms: O_18  and  C_19
REMARK                            x       y       z     vdW  Elec       q    Type
REMARK                         _______ _______ _______ _____ _____    ______ ____
ROOT
ATOM      1  C   UNL     1       7.166   5.070  14.815  0.00  0.00    +0.000 A 
ATOM      2  C   UNL     1       6.160   4.442  14.050  0.00  0.00    +0.000 A 
ATOM      3  C   UNL     1       4.989   3.975  14.648  0.00  0.00    +0.000 A 
ATOM      4  C   UNL     1       4.870   4.151  16.010  0.00  0.00    +0.000 A 
ATOM      5  C   UNL     1       5.851   4.742  16.797  0.00  0.00    +0.000 A 
ATOM      6  C   UNL     1       7.016   5.209  16.202  0.00  0.00    +0.000 A 
ATOM      7  C   UNL     1       5.430   4.701  18.201  0.00  0.00    +0.000 C 
ATOM      8  C   UNL     1       4.207   4.132  18.272  0.00  0.00    +0.000 C 
ATOM      9  C   UNL     1       3.782   3.764  16.895  0.00  0.00    +0.000 C 
ATOM     10  O   UNL     1       2.735   3.256  16.550  0.00  0.00    +0.000 OA
ENDROOT
BRANCH   8  11
ATOM     11  C   UNL     1       3.453   3.775  19.468  0.00  0.00    +0.000 A 
ATOM     12  C   UNL     1       3.861   2.585  20.104  0.00  0.00    +0.000 A 
ATOM     13  C   UNL     1       3.241   2.132  21.266  0.00  0.00    +0.000 A 
ATOM     14  C   UNL     1       2.196   2.863  21.817  0.00  0.00    +0.000 A 
ATOM     15  C   UNL     1       1.792   4.053  21.211  0.00  0.00    +0.000 A 
ATOM     16  C   UNL     1       2.408   4.520  20.038  0.00  0.00    +0.000 A 
BRANCH  16  17
ATOM     17  O   UNL     1       1.940   5.743  19.637  0.00  0.00    +0.000 OA
ATOM     18  C   UNL     1       1.834   6.754  20.629  0.00  0.00    +0.000 C 
ENDBRANCH  16  17
ENDBRANCH   8  11
BRANCH   7  19
ATOM     19  N   UNL     1       6.252   5.142  19.203  0.00  0.00    +0.000 N 
ATOM     20  H   UNL     1       6.891   4.435  19.557  0.00  0.00    +0.000 HD
ATOM     21  H   UNL     1       6.738   6.006  18.964  0.00  0.00    +0.000 HD
ENDBRANCH   7  19
BRANCH   1  23
ATOM     22  C   UNL     1       8.091   5.506  12.666  0.00  0.00    +0.000 C 
ATOM     23  O   UNL     1       8.240   5.492  14.080  0.00  0.00    +0.000 OA
ENDBRANCH   1  23
TORSDOF 4
ENDMDL
MODEL 7
REMARK VINA RESULT:      -7.0      3.523      5.175
REMARK  Name = 
REMARK  6 active torsions:
REMARK  status: ('A' for Active; 'I' for Inactive)
REMARK    1  A    between atoms: C_1  and  O_2
REMARK    2  A    between atoms: O_2  and  C_3
REMARK    3  A    between atoms: C_9  and  N_10
REMARK    4  A    between atoms: C_11  and  C_12
REMARK    5  A    between atoms: C_17  and  O_18
REMARK    6  A    between atoms: O_18  and  C_19
REMARK                            x       y       z     vdW  Elec       q    Type
REMARK                         _______ _______ _______ _____ _____    ______ ____
ROOT
ATOM      1  C   UNL     1       1.965   4.156  20.533  0.00  0.00    +0.000 A 
ATOM      2  C   UNL     1       1.993   5.564  20.463  0.00  0.00    +0.000 A 
ATOM      3  C   UNL     1       2.656   6.220  19.425  0.00  0.00    +0.000 A 
ATOM      4  C   UNL     1       3.281   5.427  18.485  0.00  0.00    +0.000 A 
ATOM      5  C   UNL     1       3.295   4.039  18.537  0.00  0.00    +0.000 A 
ATOM      6  C   UNL     1       2.634   3.387  19.570  0.00  0.00    +0.000 A 
ATOM      7  C   UNL     1       4.105   3.526  17.429  0.00  0.00    +0.000 C 
ATOM      8  C   UNL     1       4.549   4.568  16.694  0.00  0.00    +0.000 C 
ATOM      9  C   UNL     1       4.045   5.824  17.312  0.00  0.00    +0.000 C 
ATOM     10  O   UNL     1       4.211   6.962  16.925  0.00  0.00    +0.000 OA
ENDROOT
BRANCH   8  11
ATOM     11  C   UNL     1       5.483   4.542  15.575  0.00  0.00    +0.000 A 
ATOM     12  C   UNL     1       4.945   4.089  14.353  0.00  0.00    +0.000 A 
ATOM     13  C   UNL     1       5.720   4.028  13.196  0.00  0.00    +0.000 A 
ATOM     14  C   UNL     1       7.051   4.420  13.239  0.00  0.00    +0.000 A 
ATOM     15  C   UNL     1       7.594   4.888  14.436  0.00  0.00    +0.000 A 
ATOM     16  C   UNL     1       6.826   4.953  15.610  0.00  0.00    +0.000 A 
BRANCH  16  17
ATOM     17  O   UNL     1       7.499   5.517  16.661  0.00  0.00    +0.000 OA
ATOM     18  C   UNL     1       7.750   4.692  17.789  0.00  0.00    +0.000 C 
ENDBRANCH  16  17
ENDBRANCH   8  11
BRANCH   7  19
ATOM     19  N   UNL     1       4.357   2.186  17.294  0.00  0.00    +0.000 N 
ATOM     20  H   UNL     1       4.799   1.763  18.104  0.00  0.00    +0.000 HD
ATOM     21  H   UNL     1       3.539   1.659  16.989  0.00  0.00    +0.000 HD
ENDBRANCH   7  19
BRANCH   1  23
ATOM     22  C   UNL     1       1.489   2.311  21.959  0.00  0.00    +0.000 C 
ATOM     23  O   UNL     1       1.257   3.666  21.597  0.00  0.00    +0.000 OA
ENDBRANCH   1  23
TORSDOF 4
ENDMDL
MODEL 8
REMARK VINA RESULT:      -6.9      3.138      6.165
REMARK  Name = 
REMARK  6 active torsions:
REMARK  status: ('A' for Active; 'I' for Inactive)
REMARK    1  A    between atoms: C_1  and  O_2
REMARK    2  A    between atoms: O_2  and  C_3
REMARK    3  A    between atoms: C_9  and  N_10
REMARK    4  A    between atoms: C_11  and  C_12
REMARK    5  A    between atoms: C_17  and  O_18
REMARK    6  A    between atoms: O_18  and  C_19
REMARK                            x       y       z     vdW  Elec       q    Type
REMARK                         _______ _______ _______ _____ _____    ______ ____
ROOT
ATOM      1  C   UNL     1       7.481   7.711  17.675  0.00  0.00    +0.000 A 
ATOM      2  C   UNL     1       8.192   6.756  18.430  0.00  0.00    +0.000 A 
ATOM      3  C   UNL     1       7.556   5.626  18.944  0.00  0.00    +0.000 A 
ATOM      4  C   UNL     1       6.208   5.496  18.682  0.00  0.00    +0.000 A 
ATOM      5  C   UNL     1       5.471   6.428  17.963  0.00  0.00    +0.000 A 
ATOM      6  C   UNL     1       6.105   7.554  17.451  0.00  0.00    +0.000 A 
ATOM      7  C   UNL     1       4.065   6.014  17.938  0.00  0.00    +0.000 C 
ATOM      8  C   UNL     1       3.946   4.839  18.593  0.00  0.00    +0.000 C 
ATOM      9  C   UNL     1       5.291   4.442  19.089  0.00  0.00    +0.000 C 
ATOM     10  O   UNL     1       5.592   3.436  19.699  0.00  0.00    +0.000 OA
ENDROOT
BRANCH   8  11
ATOM     11  C   UNL     1       2.723   4.117  18.922  0.00  0.00    +0.000 A 
ATOM     12  C   UNL     1       2.431   3.018  18.088  0.00  0.00    +0.000 A 
ATOM     13  C   UNL     1       1.302   2.227  18.296  0.00  0.00    +0.000 A 
ATOM     14  C   UNL     1       0.442   2.521  19.345  0.00  0.00    +0.000 A 
ATOM     15  C   UNL     1       0.726   3.594  20.191  0.00  0.00    +0.000 A 
ATOM     16  C   UNL     1       1.859   4.400  19.992  0.00  0.00    +0.000 A 
BRANCH  16  17
ATOM     17  O   UNL     1       2.021   5.347  20.968  0.00  0.00    +0.000 OA
ATOM     18  C   UNL     1       1.573   6.663  20.676  0.00  0.00    +0.000 C 
ENDBRANCH  16  17
ENDBRANCH   8  11
BRANCH   7  19
ATOM     19  N   UNL     1       3.102   6.801  17.366  0.00  0.00    +0.000 N 
ATOM     20  H   UNL     1       3.347   7.153  16.445  0.00  0.00    +0.000 HD
ATOM     21  H   UNL     1       2.180   6.366  17.373  0.00  0.00    +0.000 HD
ENDBRANCH   7  19
BRANCH   1  23
ATOM     22  C   UNL     1       8.602   9.751  18.170  0.00  0.00    +0.000 C 
ATOM     23  O   UNL     1       8.251   8.749  17.224  0.00  0.00    +0.000 OA
ENDBRANCH   1  23
TORSDOF 4
ENDMDL
MODEL 9
REMARK VINA RESULT:      -6.8      1.446      2.399
REMARK  Name = 
REMARK  6 active torsions:
REMARK  status: ('A' for Active; 'I' for Inactive)
REMARK    1  A    between atoms: C_1  and  O_2
REMARK    2  A    between atoms: O_2  and  C_3
REMARK    3  A    between atoms: C_9  and  N_10
REMARK    4  A    between atoms: C_11  and  C_12
REMARK    5  A    between atoms: C_17  and  O_18
REMARK    6  A    between atoms: O_18  and  C_19
REMARK                            x       y       z     vdW  Elec       q    Type
REMARK                         _______ _______ _______ _____ _____    ______ ____
ROOT
ATOM      1  C   UNL     1       0.467   8.915  21.503  0.00  0.00    +0.000 A 
ATOM      2  C   UNL     1       0.481   9.887  20.481  0.00  0.00    +0.000 A 
ATOM      3  C   UNL     1       1.153   9.658  19.280  0.00  0.00    +0.000 A 
ATOM      4  C   UNL     1       1.802   8.447  19.149  0.00  0.00    +0.000 A 
ATOM      5  C   UNL     1       1.829   7.478  20.144  0.00  0.00    +0.000 A 
ATOM      6  C   UNL     1       1.158   7.706  21.340  0.00  0.00    +0.000 A 
ATOM      7  C   UNL     1       2.663   6.358  19.700  0.00  0.00    +0.000 C 
ATOM      8  C   UNL     1       3.108   6.614  18.451  0.00  0.00    +0.000 C 
ATOM      9  C   UNL     1       2.580   7.940  18.030  0.00  0.00    +0.000 C 
ATOM     10  O   UNL     1       2.741   8.500  16.965  0.00  0.00    +0.000 OA
ENDROOT
BRANCH   8  11
ATOM     11  C   UNL     1       4.060   5.840  17.663  0.00  0.00    +0.000 A 
ATOM     12  C   UNL     1       3.602   4.577  17.237  0.00  0.00    +0.000 A 
ATOM     13  C   UNL     1       4.401   3.738  16.462  0.00  0.00    +0.000 A 
ATOM     14  C   UNL     1       5.676   4.147  16.098  0.00  0.00    +0.000 A 
ATOM     15  C   UNL     1       6.138   5.402  16.495  0.00  0.00    +0.000 A 
ATOM     16  C   UNL     1       5.344   6.258  17.278  0.00  0.00    +0.000 A 
BRANCH  16  17
ATOM     17  O   UNL     1       5.926   7.478  17.497  0.00  0.00    +0.000 OA
ATOM     18  C   UNL     1       7.346   7.528  17.503  0.00  0.00    +0.000 C 
ENDBRANCH  16  17
ENDBRANCH   8  11
BRANCH   7  19
ATOM     19  N   UNL     1       2.931   5.299  20.527  0.00  0.00    +0.000 N 
ATOM     20  H   UNL     1       2.273   5.196  21.294  0.00  0.00    +0.000 HD
ATOM     21  H   UNL     1       3.063   4.425  20.020  0.00  0.00    +0.000 HD
ENDBRANCH   7  19
BRANCH   1  23
ATOM     22  C   UNL     1      -0.730  10.620  22.654  0.00  0.00    +0.000 C 
ATOM     23  O   UNL     1      -0.254   9.281  22.608  0.00  0.00    +0.000 OA
ENDBRANCH   1  23
TORSDOF 4
ENDMDL
