MODEL 1
REMARK VINA RESULT:      -8.4      0.000      0.000
REMARK  Name = 
REMARK  15 active torsions:
REMARK  status: ('A' for Active; 'I' for Inactive)
REMARK    1  A    between atoms: C_1  and  C_2
REMARK    2  A    between atoms: C_2  and  C_3
REMARK    3  A    between atoms: C_2  and  C_4
REMARK    4  A    between atoms: C_2  and  C_5
REMARK    5  A    between atoms: C_5  and  N_6
REMARK    6  A    between atoms: C_5  and  C_23
REMARK    7  A    between atoms: C_7  and  C_9
REMARK    8  A    between atoms: C_9  and  C_10
REMARK    9  A    between atoms: C_9  and  C_19
REMARK   10  A    between atoms: C_10  and  C_11
REMARK   11  A    between atoms: C_11  and  C_12
REMARK   12  A    between atoms: C_12  and  C_13
REMARK   13  A    between atoms: C_19  and  C_20
REMARK   14  A    between atoms: C_20  and  O_22
REMARK   15  A    between atoms: N_25  and  C_26
REMARK                            x       y       z     vdW  Elec       q    Type
REMARK                         _______ _______ _______ _____ _____    ______ ____
ROOT
ATOM      1  N   UNL     1       4.573   5.407  18.511  0.00  0.00    +0.000 N 
ATOM      2  C   UNL     1       5.298   6.408  17.913  0.00  0.00    +0.000 C 
ATOM      3  O   UNL     1       4.785   7.319  17.268  0.00  0.00    +0.000 OA
ATOM      4  H   UNL     1       5.033   4.811  19.188  0.00  0.00    +0.000 HD
ENDROOT
BRANCH   1   5
ATOM      5  C   UNL     1       3.107   5.296  18.426  0.00  0.00    +0.000 C 
BRANCH   5   7
ATOM      6  C   UNL     1       2.706   3.140  17.087  0.00  0.00    +0.000 C 
ATOM      7  C   UNL     1       2.621   3.799  18.485  0.00  0.00    +0.000 C 
ATOM      8  C   UNL     1       1.175   3.635  19.005  0.00  0.00    +0.000 C 
ATOM      9  C   UNL     1       3.541   2.998  19.433  0.00  0.00    +0.000 C 
ENDBRANCH   5   7
BRANCH   5  10
ATOM     10  C   UNL     1       2.514   6.187  19.539  0.00  0.00    +0.000 C 
ATOM     11  O   UNL     1       2.399   5.775  20.694  0.00  0.00    +0.000 OA
ATOM     12  N   UNL     1       2.110   7.450  19.131  0.00  0.00    +0.000 N 
ATOM     13  H   UNL     1       2.096   7.630  18.129  0.00  0.00    +0.000 HD
BRANCH  12  14
ATOM     14  C   UNL     1       1.550   8.424  19.992  0.00  0.00    +0.000 A 
ATOM     15  C   UNL     1       1.132   9.677  19.544  0.00  0.00    +0.000 A 
ATOM     16  C   UNL     1       0.677  10.607  20.458  0.00  0.00    +0.000 A 
ATOM     17  N   UNL     1       0.589  10.366  21.777  0.00  0.00    +0.000 NA
ATOM     18  C   UNL     1       0.959   9.133  22.187  0.00  0.00    +0.000 A 
ATOM     19  C   UNL     1       1.420   8.133  21.346  0.00  0.00    +0.000 A 
ENDBRANCH  12  14
ENDBRANCH   5  10
ENDBRANCH   1   5
BRANCH   2  20
ATOM     20  C   UNL     1       6.811   6.254  18.046  0.00  0.00    +0.000 C 
BRANCH  20  21
ATOM     21  C   UNL     1       7.581   7.431  17.419  0.00  0.00    +0.000 C 
BRANCH  21  22
ATOM     22  C   UNL     1       8.419   8.282  18.378  0.00  0.00    +0.000 C 
BRANCH  22  23
ATOM     23  C   UNL     1       8.255   9.788  18.158  0.00  0.00    +0.000 C 
BRANCH  23  24
ATOM     24  C   UNL     1       9.412  10.549  18.749  0.00  0.00    +0.000 A 
ATOM     25  C   UNL     1       9.397  10.917  20.100  0.00  0.00    +0.000 A 
ATOM     26  C   UNL     1      10.432  11.683  20.634  0.00  0.00    +0.000 A 
ATOM     27  C   UNL     1      11.491  12.087  19.825  0.00  0.00    +0.000 A 
ATOM     28  C   UNL     1      11.524  11.712  18.483  0.00  0.00    +0.000 A 
ATOM     29  C   UNL     1      10.489  10.946  17.945  0.00  0.00    +0.000 A 
ENDBRANCH  23  24
ENDBRANCH  22  23
ENDBRANCH  21  22
ENDBRANCH  20  21
BRANCH  20  30
ATOM     30  C   UNL     1       7.243   4.947  17.366  0.00  0.00    +0.000 C 
BRANCH  30  31
ATOM     31  C   UNL     1       6.794   4.881  15.928  0.00  0.00    +0.000 C 
ATOM     32  O   UNL     1       5.684   4.504  15.586  0.00  0.00    +0.000 OA
BRANCH  31  33
ATOM     33  O   UNL     1       7.721   5.315  15.048  0.00  0.00    +0.000 OA
ATOM     34  H   UNL     1       7.367   5.519  14.156  0.00  0.00    +0.000 HD
ENDBRANCH  31  33
ENDBRANCH  30  31
ENDBRANCH  20  30
ENDBRANCH   2  20
TORSDOF 12
ENDMDL
MODEL 2
REMARK VINA RESULT:      -8.2      0.863      1.194
REMARK  Name = 
REMARK  15 active torsions:
REMARK  status: ('A' for Active; 'I' for Inactive)
REMARK    1  A    between atoms: C_1  and  C_2
REMARK    2  A    between atoms: C_2  and  C_3
REMARK    3  A    between atoms: C_2  and  C_4
REMARK    4  A    between atoms: C_2  and  C_5
REMARK    5  A    between atoms: C_5  and  N_6
REMARK    6  A    between atoms: C_5  and  C_23
REMARK    7  A    between atoms: C_7  and  C_9
REMARK    8  A    between atoms: C_9  and  C_10
REMARK    9  A    between atoms: C_9  and  C_19
REMARK   10  A    between atoms: C_10  and  C_11
REMARK   11  A    between atoms: C_11  and  C_12
REMARK   12  A    between atoms: C_12  and  C_13
REMARK   13  A    between atoms: C_19  and  C_20
REMARK   14  A    between atoms: C_20  and  O_22
REMARK   15  A    between atoms: N_25  and  C_26
REMARK                            x       y       z     vdW  Elec       q    Type
REMARK                         _______ _______ _______ _____ _____    ______ ____
ROOT
ATOM      1  N   UNL     1       4.569   5.344  18.161  0.00  0.00    +0.000 N 
ATOM      2  C   UNL     1       5.316   6.240  17.437  0.00  0.00    +0.000 C 
ATOM      3  O   UNL     1       4.875   6.863  16.475  0.00  0.00    +0.000 OA
ATOM      4  H   UNL     1       4.924   5.023  19.053  0.00  0.00    +0.000 HD
ENDROOT
BRANCH   1   5
ATOM      5  C   UNL     1       3.169   5.008  17.851  0.00  0.00    +0.000 C 
BRANCH   5   7
ATOM      6  C   UNL     1       3.035   2.446  17.708  0.00  0.00    +0.000 C 
ATOM      7  C   UNL     1       2.702   3.687  18.571  0.00  0.00    +0.000 C 
ATOM      8  C   UNL     1       1.191   3.655  18.894  0.00  0.00    +0.000 C 
ATOM      9  C   UNL     1       3.458   3.539  19.910  0.00  0.00    +0.000 C 
ENDBRANCH   5   7
BRANCH   5  10
ATOM     10  C   UNL     1       2.312   6.243  18.201  0.00  0.00    +0.000 C 
ATOM     11  O   UNL     1       1.556   6.753  17.373  0.00  0.00    +0.000 OA
ATOM     12  N   UNL     1       2.479   6.731  19.490  0.00  0.00    +0.000 N 
ATOM     13  H   UNL     1       3.245   6.341  20.036  0.00  0.00    +0.000 HD
BRANCH  12  14
ATOM     14  C   UNL     1       1.784   7.847  20.016  0.00  0.00    +0.000 A 
ATOM     15  C   UNL     1       1.201   7.843  21.282  0.00  0.00    +0.000 A 
ATOM     16  C   UNL     1       0.464   8.937  21.692  0.00  0.00    +0.000 A 
ATOM     17  N   UNL     1       0.290  10.037  20.939  0.00  0.00    +0.000 NA
ATOM     18  C   UNL     1       0.898  10.039  19.732  0.00  0.00    +0.000 A 
ATOM     19  C   UNL     1       1.662   8.994  19.238  0.00  0.00    +0.000 A 
ENDBRANCH  12  14
ENDBRANCH   5  10
ENDBRANCH   1   5
BRANCH   2  20
ATOM     20  C   UNL     1       6.774   6.344  17.879  0.00  0.00    +0.000 C 
BRANCH  20  21
ATOM     21  C   UNL     1       7.486   7.569  17.277  0.00  0.00    +0.000 C 
BRANCH  21  22
ATOM     22  C   UNL     1       8.368   8.379  18.232  0.00  0.00    +0.000 C 
BRANCH  22  23
ATOM     23  C   UNL     1       8.205   9.893  18.076  0.00  0.00    +0.000 C 
BRANCH  23  24
ATOM     24  C   UNL     1       9.368  10.628  18.687  0.00  0.00    +0.000 A 
ATOM     25  C   UNL     1       9.403  10.868  20.066  0.00  0.00    +0.000 A 
ATOM     26  C   UNL     1      10.442  11.610  20.627  0.00  0.00    +0.000 A 
ATOM     27  C   UNL     1      11.455  12.116  19.817  0.00  0.00    +0.000 A 
ATOM     28  C   UNL     1      11.438  11.868  18.445  0.00  0.00    +0.000 A 
ATOM     29  C   UNL     1      10.399  11.127  17.881  0.00  0.00    +0.000 A 
ENDBRANCH  23  24
ENDBRANCH  22  23
ENDBRANCH  21  22
ENDBRANCH  20  21
BRANCH  20  30
ATOM     30  C   UNL     1       7.516   5.068  17.455  0.00  0.00    +0.000 C 
BRANCH  30  31
ATOM     31  C   UNL     1       7.091   4.590  16.090  0.00  0.00    +0.000 C 
ATOM     32  O   UNL     1       6.233   3.740  15.913  0.00  0.00    +0.000 OA
BRANCH  31  33
ATOM     33  O   UNL     1       7.717   5.219  15.073  0.00  0.00    +0.000 OA
ATOM     34  H   UNL     1       8.595   4.846  14.847  0.00  0.00    +0.000 HD
ENDBRANCH  31  33
ENDBRANCH  30  31
ENDBRANCH  20  30
ENDBRANCH   2  20
TORSDOF 12
ENDMDL
MODEL 3
REMARK VINA RESULT:      -8.1      0.888      1.508
REMARK  Name = 
REMARK  15 active torsions:
REMARK  status: ('A' for Active; 'I' for Inactive)
REMARK    1  A    between atoms: C_1  and  C_2
REMARK    2  A    between atoms: C_2  and  C_3
REMARK    3  A    between atoms: C_2  and  C_4
REMARK    4  A    between atoms: C_2  and  C_5
REMARK    5  A    between atoms: C_5  and  N_6
REMARK    6  A    between atoms: C_5  and  C_23
REMARK    7  A    between atoms: C_7  and  C_9
REMARK    8  A    between atoms: C_9  and  C_10
REMARK    9  A    between atoms: C_9  and  C_19
REMARK   10  A    between atoms: C_10  and  C_11
REMARK   11  A    between atoms: C_11  and  C_12
REMARK   12  A    between atoms: C_12  and  C_13
REMARK   13  A    between atoms: C_19  and  C_20
REMARK   14  A    between atoms: C_20  and  O_22
REMARK   15  A    between atoms: N_25  and  C_26
REMARK                            x       y       z     vdW  Elec       q    Type
REMARK                         _______ _______ _______ _____ _____    ______ ____
ROOT
ATOM      1  N   UNL     1       4.718   5.577  18.323  0.00  0.00    +0.000 N 
ATOM      2  C   UNL     1       5.494   6.426  17.573  0.00  0.00    +0.000 C 
ATOM      3  O   UNL     1       5.034   7.192  16.730  0.00  0.00    +0.000 OA
ATOM      4  H   UNL     1       5.131   5.127  19.131  0.00  0.00    +0.000 HD
ENDROOT
BRANCH   1   5
ATOM      5  C   UNL     1       3.256   5.469  18.185  0.00  0.00    +0.000 C 
BRANCH   5   7
ATOM      6  C   UNL     1       2.781   3.097  17.319  0.00  0.00    +0.000 C 
ATOM      7  C   UNL     1       2.730   4.031  18.553  0.00  0.00    +0.000 C 
ATOM      8  C   UNL     1       1.286   4.018  19.104  0.00  0.00    +0.000 C 
ATOM      9  C   UNL     1       3.639   3.415  19.640  0.00  0.00    +0.000 C 
ENDBRANCH   5   7
BRANCH   5  10
ATOM     10  C   UNL     1       2.630   6.596  19.035  0.00  0.00    +0.000 C 
ATOM     11  O   UNL     1       2.513   6.486  20.256  0.00  0.00    +0.000 OA
ATOM     12  N   UNL     1       2.200   7.704  18.319  0.00  0.00    +0.000 N 
ATOM     13  H   UNL     1       2.192   7.626  17.305  0.00  0.00    +0.000 HD
BRANCH  12  14
ATOM     14  C   UNL     1       1.608   8.850  18.905  0.00  0.00    +0.000 A 
ATOM     15  C   UNL     1       0.947   8.813  20.132  0.00  0.00    +0.000 A 
ATOM     16  C   UNL     1       0.317   9.951  20.597  0.00  0.00    +0.000 A 
ATOM     17  N   UNL     1       0.323  11.123  19.937  0.00  0.00    +0.000 NA
ATOM     18  C   UNL     1       1.005  11.149  18.770  0.00  0.00    +0.000 A 
ATOM     19  C   UNL     1       1.672  10.063  18.227  0.00  0.00    +0.000 A 
ENDBRANCH  12  14
ENDBRANCH   5  10
ENDBRANCH   1   5
BRANCH   2  20
ATOM     20  C   UNL     1       6.995   6.284  17.815  0.00  0.00    +0.000 C 
BRANCH  20  21
ATOM     21  C   UNL     1       7.814   7.363  17.081  0.00  0.00    +0.000 C 
BRANCH  21  22
ATOM     22  C   UNL     1       7.834   8.753  17.723  0.00  0.00    +0.000 C 
BRANCH  22  23
ATOM     23  C   UNL     1       8.783   8.859  18.920  0.00  0.00    +0.000 C 
BRANCH  23  24
ATOM     24  C   UNL     1       9.273  10.271  19.098  0.00  0.00    +0.000 A 
ATOM     25  C   UNL     1       9.589  11.053  17.979  0.00  0.00    +0.000 A 
ATOM     26  C   UNL     1      10.111  12.336  18.141  0.00  0.00    +0.000 A 
ATOM     27  C   UNL     1      10.321  12.849  19.418  0.00  0.00    +0.000 A 
ATOM     28  C   UNL     1       9.995  12.084  20.537  0.00  0.00    +0.000 A 
ATOM     29  C   UNL     1       9.473  10.800  20.379  0.00  0.00    +0.000 A 
ENDBRANCH  23  24
ENDBRANCH  22  23
ENDBRANCH  21  22
ENDBRANCH  20  21
BRANCH  20  30
ATOM     30  C   UNL     1       7.449   4.896  17.343  0.00  0.00    +0.000 C 
BRANCH  30  31
ATOM     31  C   UNL     1       6.975   4.588  15.945  0.00  0.00    +0.000 C 
ATOM     32  O   UNL     1       6.023   3.862  15.703  0.00  0.00    +0.000 OA
BRANCH  31  33
ATOM     33  O   UNL     1       7.674   5.222  14.981  0.00  0.00    +0.000 OA
ATOM     34  H   UNL     1       8.222   4.631  14.423  0.00  0.00    +0.000 HD
ENDBRANCH  31  33
ENDBRANCH  30  31
ENDBRANCH  20  30
ENDBRANCH   2  20
TORSDOF 12
ENDMDL
MODEL 4
REMARK VINA RESULT:      -8.1      3.242      6.141
REMARK  Name = 
REMARK  15 active torsions:
REMARK  status: ('A' for Active; 'I' for Inactive)
REMARK    1  A    between atoms: C_1  and  C_2
REMARK    2  A    between atoms: C_2  and  C_3
REMARK    3  A    between atoms: C_2  and  C_4
REMARK    4  A    between atoms: C_2  and  C_5
REMARK    5  A    between atoms: C_5  and  N_6
REMARK    6  A    between atoms: C_5  and  C_23
REMARK    7  A    between atoms: C_7  and  C_9
REMARK    8  A    between atoms: C_9  and  C_10
REMARK    9  A    between atoms: C_9  and  C_19
REMARK   10  A    between atoms: C_10  and  C_11
REMARK   11  A    between atoms: C_11  and  C_12
REMARK   12  A    between atoms: C_12  and  C_13
REMARK   13  A    between atoms: C_19  and  C_20
REMARK   14  A    between atoms: C_20  and  O_22
REMARK   15  A    between atoms: N_25  and  C_26
REMARK                            x       y       z     vdW  Elec       q    Type
REMARK                         _______ _______ _______ _____ _____    ______ ____
ROOT
ATOM      1  N   UNL     1       4.698   4.654  17.505  0.00  0.00    +0.000 N 
ATOM      2  C   UNL     1       5.403   5.769  17.124  0.00  0.00    +0.000 C 
ATOM      3  O   UNL     1       4.910   6.892  17.072  0.00  0.00    +0.000 OA
ATOM      4  H   UNL     1       5.209   3.806  17.721  0.00  0.00    +0.000 HD
ENDROOT
BRANCH   1   5
ATOM      5  C   UNL     1       3.271   4.673  17.868  0.00  0.00    +0.000 C 
BRANCH   5   7
ATOM      6  C   UNL     1       3.873   2.884  19.613  0.00  0.00    +0.000 C 
ATOM      7  C   UNL     1       2.820   3.338  18.572  0.00  0.00    +0.000 C 
ATOM      8  C   UNL     1       2.579   2.168  17.591  0.00  0.00    +0.000 C 
ATOM      9  C   UNL     1       1.494   3.580  19.328  0.00  0.00    +0.000 C 
ENDBRANCH   5   7
BRANCH   5  10
ATOM     10  C   UNL     1       3.031   5.937  18.721  0.00  0.00    +0.000 C 
ATOM     11  O   UNL     1       3.523   6.054  19.844  0.00  0.00    +0.000 OA
ATOM     12  N   UNL     1       2.216   6.896  18.137  0.00  0.00    +0.000 N 
ATOM     13  H   UNL     1       1.730   6.632  17.283  0.00  0.00    +0.000 HD
BRANCH  12  14
ATOM     14  C   UNL     1       1.877   8.130  18.744  0.00  0.00    +0.000 A 
ATOM     15  C   UNL     1       1.452   8.228  20.068  0.00  0.00    +0.000 A 
ATOM     16  C   UNL     1       1.055   9.454  20.564  0.00  0.00    +0.000 A 
ATOM     17  N   UNL     1       1.074  10.587  19.840  0.00  0.00    +0.000 NA
ATOM     18  C   UNL     1       1.529  10.479  18.572  0.00  0.00    +0.000 A 
ATOM     19  C   UNL     1       1.955   9.297  17.990  0.00  0.00    +0.000 A 
ENDBRANCH  12  14
ENDBRANCH   5  10
ENDBRANCH   1   5
BRANCH   2  20
ATOM     20  C   UNL     1       6.839   5.486  16.688  0.00  0.00    +0.000 C 
BRANCH  20  21
ATOM     21  C   UNL     1       6.910   4.576  15.448  0.00  0.00    +0.000 C 
BRANCH  21  22
ATOM     22  C   UNL     1       6.467   5.202  14.122  0.00  0.00    +0.000 C 
BRANCH  22  23
ATOM     23  C   UNL     1       7.369   4.831  12.942  0.00  0.00    +0.000 C 
BRANCH  23  24
ATOM     24  C   UNL     1       6.839   3.623  12.216  0.00  0.00    +0.000 A 
ATOM     25  C   UNL     1       5.464   3.357  12.202  0.00  0.00    +0.000 A 
ATOM     26  C   UNL     1       4.976   2.201  11.592  0.00  0.00    +0.000 A 
ATOM     27  C   UNL     1       5.855   1.305  10.990  0.00  0.00    +0.000 A 
ATOM     28  C   UNL     1       7.224   1.570  10.984  0.00  0.00    +0.000 A 
ATOM     29  C   UNL     1       7.715   2.724  11.594  0.00  0.00    +0.000 A 
ENDBRANCH  23  24
ENDBRANCH  22  23
ENDBRANCH  21  22
ENDBRANCH  20  21
BRANCH  20  30
ATOM     30  C   UNL     1       7.591   4.819  17.849  0.00  0.00    +0.000 C 
BRANCH  30  31
ATOM     31  C   UNL     1       7.642   5.698  19.072  0.00  0.00    +0.000 C 
ATOM     32  O   UNL     1       7.119   5.401  20.136  0.00  0.00    +0.000 OA
BRANCH  31  33
ATOM     33  O   UNL     1       8.356   6.830  18.900  0.00  0.00    +0.000 OA
ATOM     34  H   UNL     1       9.311   6.741  19.103  0.00  0.00    +0.000 HD
ENDBRANCH  31  33
ENDBRANCH  30  31
ENDBRANCH  20  30
ENDBRANCH   2  20
TORSDOF 12
ENDMDL
MODEL 5
REMARK VINA RESULT:      -8.1      3.322      6.170
REMARK  Name = 
REMARK  15 active torsions:
REMARK  status: ('A' for Active; 'I' for Inactive)
REMARK    1  A    between atoms: C_1  and  C_2
REMARK    2  A    between atoms: C_2  and  C_3
REMARK    3  A    between atoms: C_2  and  C_4
REMARK    4  A    between atoms: C_2  and  C_5
REMARK    5  A    between atoms: C_5  and  N_6
REMARK    6  A    between atoms: C_5  and  C_23
REMARK    7  A    between atoms: C_7  and  C_9
REMARK    8  A    between atoms: C_9  and  C_10
REMARK    9  A    between atoms: C_9  and  C_19
REMARK   10  A    between atoms: C_10  and  C_11
REMARK   11  A    between atoms: C_11  and  C_12
REMARK   12  A    between atoms: C_12  and  C_13
REMARK   13  A    between atoms: C_19  and  C_20
REMARK   14  A    between atoms: C_20  and  O_22
REMARK   15  A    between atoms: N_25  and  C_26
REMARK                            x       y       z     vdW  Elec       q    Type
REMARK                         _______ _______ _______ _____ _____    ______ ____
ROOT
ATOM      1  N   UNL     1       4.690   4.640  17.516  0.00  0.00    +0.000 N 
ATOM      2  C   UNL     1       5.313   5.637  16.807  0.00  0.00    +0.000 C 
ATOM      3  O   UNL     1       4.740   6.656  16.430  0.00  0.00    +0.000 OA
ATOM      4  H   UNL     1       5.260   3.934  17.965  0.00  0.00    +0.000 HD
ENDROOT
BRANCH   1   5
ATOM      5  C   UNL     1       3.264   4.666  17.881  0.00  0.00    +0.000 C 
BRANCH   5   7
ATOM      6  C   UNL     1       1.464   3.554  19.340  0.00  0.00    +0.000 C 
ATOM      7  C   UNL     1       2.816   3.345  18.614  0.00  0.00    +0.000 C 
ATOM      8  C   UNL     1       3.841   2.830  19.649  0.00  0.00    +0.000 C 
ATOM      9  C   UNL     1       2.615   2.223  17.572  0.00  0.00    +0.000 C 
ENDBRANCH   5   7
BRANCH   5  10
ATOM     10  C   UNL     1       3.024   5.947  18.707  0.00  0.00    +0.000 C 
ATOM     11  O   UNL     1       3.507   6.083  19.831  0.00  0.00    +0.000 OA
ATOM     12  N   UNL     1       2.219   6.899  18.097  0.00  0.00    +0.000 N 
ATOM     13  H   UNL     1       1.739   6.621  17.244  0.00  0.00    +0.000 HD
BRANCH  12  14
ATOM     14  C   UNL     1       1.882   8.147  18.677  0.00  0.00    +0.000 A 
ATOM     15  C   UNL     1       1.443   8.273  19.994  0.00  0.00    +0.000 A 
ATOM     16  C   UNL     1       1.048   9.511  20.462  0.00  0.00    +0.000 A 
ATOM     17  N   UNL     1       1.085  10.629  19.717  0.00  0.00    +0.000 NA
ATOM     18  C   UNL     1       1.553  10.495  18.456  0.00  0.00    +0.000 A 
ATOM     19  C   UNL     1       1.977   9.298  17.901  0.00  0.00    +0.000 A 
ENDBRANCH  12  14
ENDBRANCH   5  10
ENDBRANCH   1   5
BRANCH   2  20
ATOM     20  C   UNL     1       6.769   5.340  16.451  0.00  0.00    +0.000 C 
BRANCH  20  21
ATOM     21  C   UNL     1       6.899   4.412  15.229  0.00  0.00    +0.000 C 
BRANCH  21  22
ATOM     22  C   UNL     1       7.770   4.924  14.078  0.00  0.00    +0.000 C 
BRANCH  22  23
ATOM     23  C   UNL     1       7.006   5.087  12.762  0.00  0.00    +0.000 C 
BRANCH  23  24
ATOM     24  C   UNL     1       6.632   3.748  12.184  0.00  0.00    +0.000 A 
ATOM     25  C   UNL     1       7.626   2.885  11.705  0.00  0.00    +0.000 A 
ATOM     26  C   UNL     1       7.280   1.675  11.104  0.00  0.00    +0.000 A 
ATOM     27  C   UNL     1       5.941   1.316  10.978  0.00  0.00    +0.000 A 
ATOM     28  C   UNL     1       4.945   2.160  11.467  0.00  0.00    +0.000 A 
ATOM     29  C   UNL     1       5.288   3.371  12.068  0.00  0.00    +0.000 A 
ENDBRANCH  23  24
ENDBRANCH  22  23
ENDBRANCH  21  22
ENDBRANCH  20  21
BRANCH  20  30
ATOM     30  C   UNL     1       7.455   4.687  17.658  0.00  0.00    +0.000 C 
BRANCH  30  31
ATOM     31  C   UNL     1       7.437   5.579  18.874  0.00  0.00    +0.000 C 
ATOM     32  O   UNL     1       6.778   5.339  19.874  0.00  0.00    +0.000 OA
BRANCH  31  33
ATOM     33  O   UNL     1       8.250   6.651  18.774  0.00  0.00    +0.000 OA
ATOM     34  H   UNL     1       7.781   7.510  18.707  0.00  0.00    +0.000 HD
ENDBRANCH  31  33
ENDBRANCH  30  31
ENDBRANCH  20  30
ENDBRANCH   2  20
TORSDOF 12
ENDMDL
MODEL 6
REMARK VINA RESULT:      -8.0      3.265      6.227
REMARK  Name = 
REMARK  15 active torsions:
REMARK  status: ('A' for Active; 'I' for Inactive)
REMARK    1  A    between atoms: C_1  and  C_2
REMARK    2  A    between atoms: C_2  and  C_3
REMARK    3  A    between atoms: C_2  and  C_4
REMARK    4  A    between atoms: C_2  and  C_5
REMARK    5  A    between atoms: C_5  and  N_6
REMARK    6  A    between atoms: C_5  and  C_23
REMARK    7  A    between atoms: C_7  and  C_9
REMARK    8  A    between atoms: C_9  and  C_10
REMARK    9  A    between atoms: C_9  and  C_19
REMARK   10  A    between atoms: C_10  and  C_11
REMARK   11  A    between atoms: C_11  and  C_12
REMARK   12  A    between atoms: C_12  and  C_13
REMARK   13  A    between atoms: C_19  and  C_20
REMARK   14  A    between atoms: C_20  and  O_22
REMARK   15  A    between atoms: N_25  and  C_26
REMARK                            x       y       z     vdW  Elec       q    Type
REMARK                         _______ _______ _______ _____ _____    ______ ____
ROOT
ATOM      1  N   UNL     1       4.882   4.338  17.853  0.00  0.00    +0.000 N 
ATOM      2  C   UNL     1       5.255   5.414  17.087  0.00  0.00    +0.000 C 
ATOM      3  O   UNL     1       4.468   6.053  16.394  0.00  0.00    +0.000 OA
ATOM      4  H   UNL     1       5.530   3.988  18.549  0.00  0.00    +0.000 HD
ENDROOT
BRANCH   1   5
ATOM      5  C   UNL     1       3.508   3.811  17.909  0.00  0.00    +0.000 C 
BRANCH   5   7
ATOM      6  C   UNL     1       3.655   1.271  18.271  0.00  0.00    +0.000 C 
ATOM      7  C   UNL     1       3.366   2.634  18.946  0.00  0.00    +0.000 C 
ATOM      8  C   UNL     1       1.973   2.554  19.610  0.00  0.00    +0.000 C 
ATOM      9  C   UNL     1       4.401   2.820  20.078  0.00  0.00    +0.000 C 
ENDBRANCH   5   7
BRANCH   5  10
ATOM     10  C   UNL     1       2.570   5.004  18.191  0.00  0.00    +0.000 C 
ATOM     11  O   UNL     1       1.483   5.111  17.623  0.00  0.00    +0.000 OA
ATOM     12  N   UNL     1       3.056   5.934  19.099  0.00  0.00    +0.000 N 
ATOM     13  H   UNL     1       4.028   5.839  19.384  0.00  0.00    +0.000 HD
BRANCH  12  14
ATOM     14  C   UNL     1       2.352   7.094  19.504  0.00  0.00    +0.000 A 
ATOM     15  C   UNL     1       1.739   7.208  20.751  0.00  0.00    +0.000 A 
ATOM     16  C   UNL     1       0.996   8.335  21.041  0.00  0.00    +0.000 A 
ATOM     17  N   UNL     1       0.845   9.362  20.187  0.00  0.00    +0.000 NA
ATOM     18  C   UNL     1       1.482   9.253  19.000  0.00  0.00    +0.000 A 
ATOM     19  C   UNL     1       2.254   8.166  18.622  0.00  0.00    +0.000 A 
ENDBRANCH  12  14
ENDBRANCH   5  10
ENDBRANCH   1   5
BRANCH   2  20
ATOM     20  C   UNL     1       6.753   5.709  17.104  0.00  0.00    +0.000 C 
BRANCH  20  21
ATOM     21  C   UNL     1       7.428   5.405  15.753  0.00  0.00    +0.000 C 
BRANCH  21  22
ATOM     22  C   UNL     1       6.693   4.428  14.832  0.00  0.00    +0.000 C 
BRANCH  22  23
ATOM     23  C   UNL     1       7.035   4.612  13.351  0.00  0.00    +0.000 C 
BRANCH  23  24
ATOM     24  C   UNL     1       6.310   3.603  12.500  0.00  0.00    +0.000 A 
ATOM     25  C   UNL     1       7.002   2.516  11.953  0.00  0.00    +0.000 A 
ATOM     26  C   UNL     1       6.352   1.619  11.106  0.00  0.00    +0.000 A 
ATOM     27  C   UNL     1       5.005   1.800  10.800  0.00  0.00    +0.000 A 
ATOM     28  C   UNL     1       4.304   2.870  11.352  0.00  0.00    +0.000 A 
ATOM     29  C   UNL     1       4.952   3.769  12.199  0.00  0.00    +0.000 A 
ENDBRANCH  23  24
ENDBRANCH  22  23
ENDBRANCH  21  22
ENDBRANCH  20  21
BRANCH  20  30
ATOM     30  C   UNL     1       7.416   4.866  18.202  0.00  0.00    +0.000 C 
BRANCH  30  31
ATOM     31  C   UNL     1       7.851   5.704  19.377  0.00  0.00    +0.000 C 
ATOM     32  O   UNL     1       7.780   5.325  20.536  0.00  0.00    +0.000 OA
BRANCH  31  33
ATOM     33  O   UNL     1       8.368   6.902  19.031  0.00  0.00    +0.000 OA
ATOM     34  H   UNL     1       8.355   7.085  18.067  0.00  0.00    +0.000 HD
ENDBRANCH  31  33
ENDBRANCH  30  31
ENDBRANCH  20  30
ENDBRANCH   2  20
TORSDOF 12
ENDMDL
MODEL 7
REMARK VINA RESULT:      -7.9      3.084      6.155
REMARK  Name = 
REMARK  15 active torsions:
REMARK  status: ('A' for Active; 'I' for Inactive)
REMARK    1  A    between atoms: C_1  and  C_2
REMARK    2  A    between atoms: C_2  and  C_3
REMARK    3  A    between atoms: C_2  and  C_4
REMARK    4  A    between atoms: C_2  and  C_5
REMARK    5  A    between atoms: C_5  and  N_6
REMARK    6  A    between atoms: C_5  and  C_23
REMARK    7  A    between atoms: C_7  and  C_9
REMARK    8  A    between atoms: C_9  and  C_10
REMARK    9  A    between atoms: C_9  and  C_19
REMARK   10  A    between atoms: C_10  and  C_11
REMARK   11  A    between atoms: C_11  and  C_12
REMARK   12  A    between atoms: C_12  and  C_13
REMARK   13  A    between atoms: C_19  and  C_20
REMARK   14  A    between atoms: C_20  and  O_22
REMARK   15  A    between atoms: N_25  and  C_26
REMARK                            x       y       z     vdW  Elec       q    Type
REMARK                         _______ _______ _______ _____ _____    ______ ____
ROOT
ATOM      1  N   UNL     1       4.410   4.692  18.094  0.00  0.00    +0.000 N 
ATOM      2  C   UNL     1       5.004   5.629  17.285  0.00  0.00    +0.000 C 
ATOM      3  O   UNL     1       4.373   6.471  16.652  0.00  0.00    +0.000 OA
ATOM      4  H   UNL     1       4.989   4.167  18.736  0.00  0.00    +0.000 HD
ENDROOT
BRANCH   1   5
ATOM      5  C   UNL     1       2.953   4.573  18.272  0.00  0.00    +0.000 C 
BRANCH   5   7
ATOM      6  C   UNL     1       1.048   3.109  19.184  0.00  0.00    +0.000 C 
ATOM      7  C   UNL     1       2.527   3.126  18.727  0.00  0.00    +0.000 C 
ATOM      8  C   UNL     1       3.391   2.555  19.875  0.00  0.00    +0.000 C 
ATOM      9  C   UNL     1       2.656   2.155  17.532  0.00  0.00    +0.000 C 
ENDBRANCH   5   7
BRANCH   5  10
ATOM     10  C   UNL     1       2.518   5.685  19.251  0.00  0.00    +0.000 C 
ATOM     11  O   UNL     1       2.464   5.484  20.465  0.00  0.00    +0.000 OA
ATOM     12  N   UNL     1       2.180   6.893  18.658  0.00  0.00    +0.000 N 
ATOM     13  H   UNL     1       2.100   6.904  17.643  0.00  0.00    +0.000 HD
BRANCH  12  14
ATOM     14  C   UNL     1       1.764   8.043  19.373  0.00  0.00    +0.000 A 
ATOM     15  C   UNL     1       1.614   8.056  20.759  0.00  0.00    +0.000 A 
ATOM     16  C   UNL     1       1.120   9.188  21.376  0.00  0.00    +0.000 A 
ATOM     17  N   UNL     1       0.790  10.310  20.712  0.00  0.00    +0.000 NA
ATOM     18  C   UNL     1       0.982  10.292  19.375  0.00  0.00    +0.000 A 
ATOM     19  C   UNL     1       1.478   9.208  18.668  0.00  0.00    +0.000 A 
ENDBRANCH  12  14
ENDBRANCH   5  10
ENDBRANCH   1   5
BRANCH   2  20
ATOM     20  C   UNL     1       6.521   5.489  17.171  0.00  0.00    +0.000 C 
BRANCH  20  21
ATOM     21  C   UNL     1       6.944   4.613  15.977  0.00  0.00    +0.000 C 
BRANCH  21  22
ATOM     22  C   UNL     1       6.452   5.064  14.598  0.00  0.00    +0.000 C 
BRANCH  22  23
ATOM     23  C   UNL     1       7.226   4.431  13.439  0.00  0.00    +0.000 C 
BRANCH  23  24
ATOM     24  C   UNL     1       6.322   3.584  12.583  0.00  0.00    +0.000 A 
ATOM     25  C   UNL     1       6.829   2.460  11.920  0.00  0.00    +0.000 A 
ATOM     26  C   UNL     1       6.012   1.715  11.069  0.00  0.00    +0.000 A 
ATOM     27  C   UNL     1       4.684   2.084  10.876  0.00  0.00    +0.000 A 
ATOM     28  C   UNL     1       4.166   3.193  11.545  0.00  0.00    +0.000 A 
ATOM     29  C   UNL     1       4.980   3.940  12.396  0.00  0.00    +0.000 A 
ENDBRANCH  23  24
ENDBRANCH  22  23
ENDBRANCH  21  22
ENDBRANCH  20  21
BRANCH  20  30
ATOM     30  C   UNL     1       7.065   4.874  18.468  0.00  0.00    +0.000 C 
BRANCH  30  31
ATOM     31  C   UNL     1       7.877   5.860  19.268  0.00  0.00    +0.000 C 
ATOM     32  O   UNL     1       8.259   6.932  18.825  0.00  0.00    +0.000 OA
BRANCH  31  33
ATOM     33  O   UNL     1       8.113   5.468  20.538  0.00  0.00    +0.000 OA
ATOM     34  H   UNL     1       8.081   6.193  21.197  0.00  0.00    +0.000 HD
ENDBRANCH  31  33
ENDBRANCH  30  31
ENDBRANCH  20  30
ENDBRANCH   2  20
TORSDOF 12
ENDMDL
MODEL 8
REMARK VINA RESULT:      -7.9      3.814      8.256
REMARK  Name = 
REMARK  15 active torsions:
REMARK  status: ('A' for Active; 'I' for Inactive)
REMARK    1  A    between atoms: C_1  and  C_2
REMARK    2  A    between atoms: C_2  and  C_3
REMARK    3  A    between atoms: C_2  and  C_4
REMARK    4  A    between atoms: C_2  and  C_5
REMARK    5  A    between atoms: C_5  and  N_6
REMARK    6  A    between atoms: C_5  and  C_23
REMARK    7  A    between atoms: C_7  and  C_9
REMARK    8  A    between atoms: C_9  and  C_10
REMARK    9  A    between atoms: C_9  and  C_19
REMARK   10  A    between atoms: C_10  and  C_11
REMARK   11  A    between atoms: C_11  and  C_12
REMARK   12  A    between atoms: C_12  and  C_13
REMARK   13  A    between atoms: C_19  and  C_20
REMARK   14  A    between atoms: C_20  and  O_22
REMARK   15  A    between atoms: N_25  and  C_26
REMARK                            x       y       z     vdW  Elec       q    Type
REMARK                         _______ _______ _______ _____ _____    ______ ____
ROOT
ATOM      1  N   UNL     1       2.500   5.715  19.354  0.00  0.00    +0.000 N 
ATOM      2  C   UNL     1       1.928   6.307  20.453  0.00  0.00    +0.000 C 
ATOM      3  O   UNL     1       1.778   5.732  21.527  0.00  0.00    +0.000 OA
ATOM      4  H   UNL     1       2.775   6.300  18.575  0.00  0.00    +0.000 HD
ENDROOT
BRANCH   1   5
ATOM      5  C   UNL     1       2.972   4.320  19.330  0.00  0.00    +0.000 C 
BRANCH   5   7
ATOM      6  C   UNL     1       0.842   2.954  19.776  0.00  0.00    +0.000 C 
ATOM      7  C   UNL     1       1.901   3.342  18.716  0.00  0.00    +0.000 C 
ATOM      8  C   UNL     1       2.504   2.040  18.142  0.00  0.00    +0.000 C 
ATOM      9  C   UNL     1       1.162   4.052  17.559  0.00  0.00    +0.000 C 
ENDBRANCH   5   7
BRANCH   5  10
ATOM     10  C   UNL     1       4.325   4.306  18.587  0.00  0.00    +0.000 C 
ATOM     11  O   UNL     1       5.321   3.778  19.082  0.00  0.00    +0.000 OA
ATOM     12  N   UNL     1       4.327   4.944  17.354  0.00  0.00    +0.000 N 
ATOM     13  H   UNL     1       3.501   5.487  17.113  0.00  0.00    +0.000 HD
BRANCH  12  14
ATOM     14  C   UNL     1       5.459   5.037  16.508  0.00  0.00    +0.000 A 
ATOM     15  C   UNL     1       6.472   5.975  16.703  0.00  0.00    +0.000 A 
ATOM     16  C   UNL     1       7.499   6.064  15.785  0.00  0.00    +0.000 A 
ATOM     17  N   UNL     1       7.598   5.270  14.705  0.00  0.00    +0.000 NA
ATOM     18  C   UNL     1       6.630   4.340  14.556  0.00  0.00    +0.000 A 
ATOM     19  C   UNL     1       5.565   4.169  15.426  0.00  0.00    +0.000 A 
ENDBRANCH  12  14
ENDBRANCH   5  10
ENDBRANCH   1   5
BRANCH   2  20
ATOM     20  C   UNL     1       1.416   7.725  20.207  0.00  0.00    +0.000 C 
BRANCH  20  21
ATOM     21  C   UNL     1       2.005   8.351  18.929  0.00  0.00    +0.000 C 
BRANCH  21  22
ATOM     22  C   UNL     1       1.452   9.722  18.528  0.00  0.00    +0.000 C 
BRANCH  22  23
ATOM     23  C   UNL     1       0.090   9.650  17.833  0.00  0.00    +0.000 C 
BRANCH  23  24
ATOM     24  C   UNL     1      -0.912  10.545  18.512  0.00  0.00    +0.000 A 
ATOM     25  C   UNL     1      -2.187  10.721  17.960  0.00  0.00    +0.000 A 
ATOM     26  C   UNL     1      -3.093  11.605  18.547  0.00  0.00    +0.000 A 
ATOM     27  C   UNL     1      -2.734  12.317  19.688  0.00  0.00    +0.000 A 
ATOM     28  C   UNL     1      -1.473  12.137  20.253  0.00  0.00    +0.000 A 
ATOM     29  C   UNL     1      -0.564  11.254  19.669  0.00  0.00    +0.000 A 
ENDBRANCH  23  24
ENDBRANCH  22  23
ENDBRANCH  21  22
ENDBRANCH  20  21
BRANCH  20  30
ATOM     30  C   UNL     1       1.777   8.602  21.413  0.00  0.00    +0.000 C 
BRANCH  30  31
ATOM     31  C   UNL     1       0.559   9.020  22.198  0.00  0.00    +0.000 C 
ATOM     32  O   UNL     1       0.597   9.810  23.128  0.00  0.00    +0.000 OA
BRANCH  31  33
ATOM     33  O   UNL     1      -0.590   8.470  21.753  0.00  0.00    +0.000 OA
ATOM     34  H   UNL     1      -0.884   8.799  20.878  0.00  0.00    +0.000 HD
ENDBRANCH  31  33
ENDBRANCH  30  31
ENDBRANCH  20  30
ENDBRANCH   2  20
TORSDOF 12
ENDMDL
MODEL 9
REMARK VINA RESULT:      -7.9      0.979      1.601
REMARK  Name = 
REMARK  15 active torsions:
REMARK  status: ('A' for Active; 'I' for Inactive)
REMARK    1  A    between atoms: C_1  and  C_2
REMARK    2  A    between atoms: C_2  and  C_3
REMARK    3  A    between atoms: C_2  and  C_4
REMARK    4  A    between atoms: C_2  and  C_5
REMARK    5  A    between atoms: C_5  and  N_6
REMARK    6  A    between atoms: C_5  and  C_23
REMARK    7  A    between atoms: C_7  and  C_9
REMARK    8  A    between atoms: C_9  and  C_10
REMARK    9  A    between atoms: C_9  and  C_19
REMARK   10  A    between atoms: C_10  and  C_11
REMARK   11  A    between atoms: C_11  and  C_12
REMARK   12  A    between atoms: C_12  and  C_13
REMARK   13  A    between atoms: C_19  and  C_20
REMARK   14  A    between atoms: C_20  and  O_22
REMARK   15  A    between atoms: N_25  and  C_26
REMARK                            x       y       z     vdW  Elec       q    Type
REMARK                         _______ _______ _______ _____ _____    ______ ____
ROOT
ATOM      1  N   UNL     1       4.389   6.137  18.339  0.00  0.00    +0.000 N 
ATOM      2  C   UNL     1       5.327   6.563  17.432  0.00  0.00    +0.000 C 
ATOM      3  O   UNL     1       5.062   6.837  16.265  0.00  0.00    +0.000 OA
ATOM      4  H   UNL     1       4.632   6.125  19.322  0.00  0.00    +0.000 HD
ENDROOT
BRANCH   1   5
ATOM      5  C   UNL     1       2.968   5.933  18.009  0.00  0.00    +0.000 C 
BRANCH   5   7
ATOM      6  C   UNL     1       3.541   3.508  18.639  0.00  0.00    +0.000 C 
ATOM      7  C   UNL     1       2.417   4.570  18.577  0.00  0.00    +0.000 C 
ATOM      8  C   UNL     1       1.246   3.983  17.757  0.00  0.00    +0.000 C 
ATOM      9  C   UNL     1       1.902   4.786  20.017  0.00  0.00    +0.000 C 
ENDBRANCH   5   7
BRANCH   5  10
ATOM     10  C   UNL     1       2.198   7.172  18.512  0.00  0.00    +0.000 C 
ATOM     11  O   UNL     1       1.543   7.875  17.741  0.00  0.00    +0.000 OA
ATOM     12  N   UNL     1       2.322   7.433  19.869  0.00  0.00    +0.000 N 
ATOM     13  H   UNL     1       3.014   6.892  20.383  0.00  0.00    +0.000 HD
BRANCH  12  14
ATOM     14  C   UNL     1       1.691   8.513  20.534  0.00  0.00    +0.000 A 
ATOM     15  C   UNL     1       1.275   8.441  21.863  0.00  0.00    +0.000 A 
ATOM     16  C   UNL     1       0.587   9.503  22.417  0.00  0.00    +0.000 A 
ATOM     17  N   UNL     1       0.310  10.635  21.747  0.00  0.00    +0.000 NA
ATOM     18  C   UNL     1       0.759  10.703  20.474  0.00  0.00    +0.000 A 
ATOM     19  C   UNL     1       1.462   9.694  19.836  0.00  0.00    +0.000 A 
ENDBRANCH  12  14
ENDBRANCH   5  10
ENDBRANCH   1   5
BRANCH   2  20
ATOM     20  C   UNL     1       6.755   6.595  17.974  0.00  0.00    +0.000 C 
BRANCH  20  21
ATOM     21  C   UNL     1       7.597   7.724  17.350  0.00  0.00    +0.000 C 
BRANCH  21  22
ATOM     22  C   UNL     1       8.466   8.535  18.315  0.00  0.00    +0.000 C 
BRANCH  22  23
ATOM     23  C   UNL     1       8.266  10.048  18.189  0.00  0.00    +0.000 C 
BRANCH  23  24
ATOM     24  C   UNL     1       9.464  10.796  18.711  0.00  0.00    +0.000 A 
ATOM     25  C   UNL     1      10.481  11.197  17.836  0.00  0.00    +0.000 A 
ATOM     26  C   UNL     1      11.625  11.827  18.325  0.00  0.00    +0.000 A 
ATOM     27  C   UNL     1      11.762  12.062  19.691  0.00  0.00    +0.000 A 
ATOM     28  C   UNL     1      10.749  11.680  20.568  0.00  0.00    +0.000 A 
ATOM     29  C   UNL     1       9.603  11.050  20.082  0.00  0.00    +0.000 A 
ENDBRANCH  23  24
ENDBRANCH  22  23
ENDBRANCH  21  22
ENDBRANCH  20  21
BRANCH  20  30
ATOM     30  C   UNL     1       7.428   5.245  17.690  0.00  0.00    +0.000 C 
BRANCH  30  31
ATOM     31  C   UNL     1       7.054   4.698  16.336  0.00  0.00    +0.000 C 
ATOM     32  O   UNL     1       6.245   3.797  16.174  0.00  0.00    +0.000 OA
BRANCH  31  33
ATOM     33  O   UNL     1       7.665   5.323  15.307  0.00  0.00    +0.000 OA
ATOM     34  H   UNL     1       7.113   5.411  14.502  0.00  0.00    +0.000 HD
ENDBRANCH  31  33
ENDBRANCH  30  31
ENDBRANCH  20  30
ENDBRANCH   2  20
TORSDOF 12
ENDMDL
