MODEL 1
REMARK VINA RESULT:      -7.3      0.000      0.000
REMARK  Name = 
REMARK  4 active torsions:
REMARK  status: ('A' for Active; 'I' for Inactive)
REMARK    1  A    between atoms: C_1  and  N_2
REMARK    2  A    between atoms: C_3  and  C_5
REMARK    3  A    between atoms: C_5  and  N_6
REMARK    4  A    between atoms: C_13  and  C_15
REMARK                            x       y       z     vdW  Elec       q    Type
REMARK                         _______ _______ _______ _____ _____    ______ ____
ROOT
ATOM      1  N   UNL     1       5.370   4.926  15.677  0.00  0.00    +0.000 NA
ATOM      2  C   UNL     1       5.166   6.364  15.981  0.00  0.00    +0.000 C 
ATOM      3  C   UNL     1       5.688   6.851  17.344  0.00  0.00    +0.000 C 
ATOM      4  O   UNL     1       5.224   6.037  18.421  0.00  0.00    +0.000 OA
ATOM      5  C   UNL     1       5.573   4.656  18.226  0.00  0.00    +0.000 C 
ATOM      6  C   UNL     1       4.800   3.824  19.258  0.00  0.00    +0.000 C 
ATOM      7  N   UNL     1       3.516   3.547  18.624  0.00  0.00    +0.000 N 
ATOM      8  C   UNL     1       2.387   3.030  19.227  0.00  0.00    +0.000 C 
ATOM      9  O   UNL     1       1.336   2.846  18.624  0.00  0.00    +0.000 OA
ATOM     10  C   UNL     1       3.525   3.965  17.222  0.00  0.00    +0.000 C 
ATOM     11  C   UNL     1       5.028   4.117  16.882  0.00  0.00    +0.000 C 
ENDROOT
BRANCH   8  12
ATOM     12  C   UNL     1       2.503   2.650  20.671  0.00  0.00    +0.000 C 
ATOM     13  C   UNL     1       2.272   3.653  21.779  0.00  0.00    +0.000 C 
ATOM     14  C   UNL     1       1.254   2.585  21.520  0.00  0.00    +0.000 C 
ENDBRANCH   8  12
BRANCH   1  15
ATOM     15  C   UNL     1       6.783   4.640  15.286  0.00  0.00    +0.000 C 
BRANCH  15  18
ATOM     16  C   UNL     1       6.598   3.174  11.755  0.00  0.00    +0.000 C 
ATOM     17  N   UNL     1       6.436   3.423  13.164  0.00  0.00    +0.000 N 
ATOM     18  C   UNL     1       7.010   4.517  13.770  0.00  0.00    +0.000 C 
ATOM     19  O   UNL     1       7.710   5.322  13.164  0.00  0.00    +0.000 OA
ATOM     20  H   UNL     1       5.874   2.809  13.745  0.00  0.00    +0.000 HD
ENDBRANCH  15  18
ENDBRANCH   1  15
TORSDOF 3
ENDMDL
MODEL 2
REMARK VINA RESULT:      -7.2      1.037      1.111
REMARK  Name = 
REMARK  4 active torsions:
REMARK  status: ('A' for Active; 'I' for Inactive)
REMARK    1  A    between atoms: C_1  and  N_2
REMARK    2  A    between atoms: C_3  and  C_5
REMARK    3  A    between atoms: C_5  and  N_6
REMARK    4  A    between atoms: C_13  and  C_15
REMARK                            x       y       z     vdW  Elec       q    Type
REMARK                         _______ _______ _______ _____ _____    ______ ____
ROOT
ATOM      1  N   UNL     1       6.220   5.619  16.319  0.00  0.00    +0.000 NA
ATOM      2  C   UNL     1       6.745   6.646  17.253  0.00  0.00    +0.000 C 
ATOM      3  C   UNL     1       7.332   6.123  18.576  0.00  0.00    +0.000 C 
ATOM      4  O   UNL     1       6.439   5.237  19.250  0.00  0.00    +0.000 OA
ATOM      5  C   UNL     1       6.058   4.134  18.411  0.00  0.00    +0.000 C 
ATOM      6  C   UNL     1       4.893   3.403  19.092  0.00  0.00    +0.000 C 
ATOM      7  N   UNL     1       3.699   4.107  18.639  0.00  0.00    +0.000 N 
ATOM      8  C   UNL     1       2.420   3.981  19.143  0.00  0.00    +0.000 C 
ATOM      9  O   UNL     1       1.471   4.628  18.716  0.00  0.00    +0.000 OA
ATOM     10  C   UNL     1       4.027   5.067  17.584  0.00  0.00    +0.000 C 
ATOM     11  C   UNL     1       5.423   4.619  17.086  0.00  0.00    +0.000 C 
ENDROOT
BRANCH   8  12
ATOM     12  C   UNL     1       2.215   2.970  20.229  0.00  0.00    +0.000 C 
ATOM     13  C   UNL     1       2.187   3.364  21.688  0.00  0.00    +0.000 C 
ATOM     14  C   UNL     1       0.916   2.969  21.000  0.00  0.00    +0.000 C 
ENDBRANCH   8  12
BRANCH   1  15
ATOM     15  C   UNL     1       7.322   4.913  15.599  0.00  0.00    +0.000 C 
BRANCH  15  18
ATOM     16  C   UNL     1       6.010   3.352  12.360  0.00  0.00    +0.000 C 
ATOM     17  N   UNL     1       6.290   3.657  13.739  0.00  0.00    +0.000 N 
ATOM     18  C   UNL     1       7.079   4.727  14.092  0.00  0.00    +0.000 C 
ATOM     19  O   UNL     1       7.613   5.461  13.267  0.00  0.00    +0.000 OA
ATOM     20  H   UNL     1       5.892   3.102  14.491  0.00  0.00    +0.000 HD
ENDBRANCH  15  18
ENDBRANCH   1  15
TORSDOF 3
ENDMDL
MODEL 3
REMARK VINA RESULT:      -6.9      2.388      3.930
REMARK  Name = 
REMARK  4 active torsions:
REMARK  status: ('A' for Active; 'I' for Inactive)
REMARK    1  A    between atoms: C_1  and  N_2
REMARK    2  A    between atoms: C_3  and  C_5
REMARK    3  A    between atoms: C_5  and  N_6
REMARK    4  A    between atoms: C_13  and  C_15
REMARK                            x       y       z     vdW  Elec       q    Type
REMARK                         _______ _______ _______ _____ _____    ______ ____
ROOT
ATOM      1  N   UNL     1       6.904   5.511  17.366  0.00  0.00    +0.000 NA
ATOM      2  C   UNL     1       6.972   4.621  16.181  0.00  0.00    +0.000 C 
ATOM      3  C   UNL     1       5.703   4.548  15.313  0.00  0.00    +0.000 C 
ATOM      4  O   UNL     1       4.536   4.272  16.086  0.00  0.00    +0.000 OA
ATOM      5  C   UNL     1       4.358   5.237  17.137  0.00  0.00    +0.000 C 
ATOM      6  C   UNL     1       3.270   4.711  18.082  0.00  0.00    +0.000 C 
ATOM      7  N   UNL     1       3.983   3.866  19.034  0.00  0.00    +0.000 N 
ATOM      8  C   UNL     1       3.427   2.986  19.941  0.00  0.00    +0.000 C 
ATOM      9  O   UNL     1       4.101   2.295  20.696  0.00  0.00    +0.000 OA
ATOM     10  C   UNL     1       5.430   4.000  18.870  0.00  0.00    +0.000 C 
ATOM     11  C   UNL     1       5.599   5.308  18.059  0.00  0.00    +0.000 C 
ENDROOT
BRANCH   8  12
ATOM     12  C   UNL     1       1.931   2.934  20.007  0.00  0.00    +0.000 C 
ATOM     13  C   UNL     1       1.198   2.751  21.316  0.00  0.00    +0.000 C 
ATOM     14  C   UNL     1       1.179   4.085  20.635  0.00  0.00    +0.000 C 
ENDBRANCH   8  12
BRANCH   1  15
ATOM     15  C   UNL     1       7.033   6.949  16.984  0.00  0.00    +0.000 C 
BRANCH  15  18
ATOM     16  C   UNL     1       8.789  10.017  18.452  0.00  0.00    +0.000 C 
ATOM     17  N   UNL     1       7.991   9.127  17.650  0.00  0.00    +0.000 N 
ATOM     18  C   UNL     1       7.893   7.787  17.946  0.00  0.00    +0.000 C 
ATOM     19  O   UNL     1       8.494   7.266  18.880  0.00  0.00    +0.000 OA
ATOM     20  H   UNL     1       7.459   9.470  16.856  0.00  0.00    +0.000 HD
ENDBRANCH  15  18
ENDBRANCH   1  15
TORSDOF 3
ENDMDL
MODEL 4
REMARK VINA RESULT:      -6.9      0.961      1.084
REMARK  Name = 
REMARK  4 active torsions:
REMARK  status: ('A' for Active; 'I' for Inactive)
REMARK    1  A    between atoms: C_1  and  N_2
REMARK    2  A    between atoms: C_3  and  C_5
REMARK    3  A    between atoms: C_5  and  N_6
REMARK    4  A    between atoms: C_13  and  C_15
REMARK                            x       y       z     vdW  Elec       q    Type
REMARK                         _______ _______ _______ _____ _____    ______ ____
ROOT
ATOM      1  N   UNL     1       5.349   4.668  15.650  0.00  0.00    +0.000 NA
ATOM      2  C   UNL     1       5.208   6.120  15.924  0.00  0.00    +0.000 C 
ATOM      3  C   UNL     1       5.752   6.613  17.276  0.00  0.00    +0.000 C 
ATOM      4  O   UNL     1       5.257   5.842  18.370  0.00  0.00    +0.000 OA
ATOM      5  C   UNL     1       5.545   4.444  18.204  0.00  0.00    +0.000 C 
ATOM      6  C   UNL     1       4.739   3.668  19.254  0.00  0.00    +0.000 C 
ATOM      7  N   UNL     1       3.443   3.433  18.628  0.00  0.00    +0.000 N 
ATOM      8  C   UNL     1       2.295   2.978  19.243  0.00  0.00    +0.000 C 
ATOM      9  O   UNL     1       1.235   2.826  18.645  0.00  0.00    +0.000 OA
ATOM     10  C   UNL     1       3.468   3.820  17.217  0.00  0.00    +0.000 C 
ATOM     11  C   UNL     1       4.975   3.900  16.872  0.00  0.00    +0.000 C 
ENDROOT
BRANCH   8  12
ATOM     12  C   UNL     1       2.397   2.624  20.695  0.00  0.00    +0.000 C 
ATOM     13  C   UNL     1       2.248   3.665  21.781  0.00  0.00    +0.000 C 
ATOM     14  C   UNL     1       1.155   2.665  21.554  0.00  0.00    +0.000 C 
ENDBRANCH   8  12
BRANCH   1  15
ATOM     15  C   UNL     1       6.747   4.313  15.263  0.00  0.00    +0.000 C 
BRANCH  15  18
ATOM     16  C   UNL     1       8.369   5.970  12.218  0.00  0.00    +0.000 C 
ATOM     17  N   UNL     1       7.989   5.595  13.555  0.00  0.00    +0.000 N 
ATOM     18  C   UNL     1       7.086   4.584  13.788  0.00  0.00    +0.000 C 
ATOM     19  O   UNL     1       6.530   3.967  12.884  0.00  0.00    +0.000 OA
ATOM     20  H   UNL     1       8.397   6.053  14.364  0.00  0.00    +0.000 HD
ENDBRANCH  15  18
ENDBRANCH   1  15
TORSDOF 3
ENDMDL
MODEL 5
REMARK VINA RESULT:      -6.4      1.881      2.154
REMARK  Name = 
REMARK  4 active torsions:
REMARK  status: ('A' for Active; 'I' for Inactive)
REMARK    1  A    between atoms: C_1  and  N_2
REMARK    2  A    between atoms: C_3  and  C_5
REMARK    3  A    between atoms: C_5  and  N_6
REMARK    4  A    between atoms: C_13  and  C_15
REMARK                            x       y       z     vdW  Elec       q    Type
REMARK                         _______ _______ _______ _____ _____    ______ ____
ROOT
ATOM      1  N   UNL     1       6.604   5.878  16.850  0.00  0.00    +0.000 NA
ATOM      2  C   UNL     1       7.480   6.604  17.803  0.00  0.00    +0.000 C 
ATOM      3  C   UNL     1       7.878   5.839  19.077  0.00  0.00    +0.000 C 
ATOM      4  O   UNL     1       6.748   5.287  19.751  0.00  0.00    +0.000 OA
ATOM      5  C   UNL     1       5.982   4.434  18.883  0.00  0.00    +0.000 C 
ATOM      6  C   UNL     1       4.651   4.122  19.582  0.00  0.00    +0.000 C 
ATOM      7  N   UNL     1       3.770   5.223  19.209  0.00  0.00    +0.000 N 
ATOM      8  C   UNL     1       2.542   5.526  19.761  0.00  0.00    +0.000 C 
ATOM      9  O   UNL     1       1.871   6.487  19.402  0.00  0.00    +0.000 OA
ATOM     10  C   UNL     1       4.389   6.062  18.183  0.00  0.00    +0.000 C 
ATOM     11  C   UNL     1       5.525   5.181  17.608  0.00  0.00    +0.000 C 
ENDROOT
BRANCH   8  12
ATOM     12  C   UNL     1       2.021   4.594  20.812  0.00  0.00    +0.000 C 
ATOM     13  C   UNL     1       0.818   3.712  20.567  0.00  0.00    +0.000 C 
ATOM     14  C   UNL     1       2.186   3.104  20.623  0.00  0.00    +0.000 C 
ENDBRANCH   8  12
BRANCH   1  15
ATOM     15  C   UNL     1       7.368   4.871  16.056  0.00  0.00    +0.000 C 
BRANCH  15  18
ATOM     16  C   UNL     1       7.718   5.444  12.287  0.00  0.00    +0.000 C 
ATOM     17  N   UNL     1       7.943   5.384  13.708  0.00  0.00    +0.000 N 
ATOM     18  C   UNL     1       7.011   4.837  14.560  0.00  0.00    +0.000 C 
ATOM     19  O   UNL     1       5.931   4.401  14.174  0.00  0.00    +0.000 OA
ATOM     20  H   UNL     1       8.808   5.723  14.118  0.00  0.00    +0.000 HD
ENDBRANCH  15  18
ENDBRANCH   1  15
TORSDOF 3
ENDMDL
MODEL 6
REMARK VINA RESULT:      -6.2      3.888      5.477
REMARK  Name = 
REMARK  4 active torsions:
REMARK  status: ('A' for Active; 'I' for Inactive)
REMARK    1  A    between atoms: C_1  and  N_2
REMARK    2  A    between atoms: C_3  and  C_5
REMARK    3  A    between atoms: C_5  and  N_6
REMARK    4  A    between atoms: C_13  and  C_15
REMARK                            x       y       z     vdW  Elec       q    Type
REMARK                         _______ _______ _______ _____ _____    ______ ____
ROOT
ATOM      1  N   UNL     1       3.982   4.361  19.503  0.00  0.00    +0.000 NA
ATOM      2  C   UNL     1       2.864   3.509  19.025  0.00  0.00    +0.000 C 
ATOM      3  C   UNL     1       2.187   3.950  17.715  0.00  0.00    +0.000 C 
ATOM      4  O   UNL     1       1.799   5.323  17.744  0.00  0.00    +0.000 OA
ATOM      5  C   UNL     1       2.916   6.180  18.032  0.00  0.00    +0.000 C 
ATOM      6  C   UNL     1       2.370   7.583  18.330  0.00  0.00    +0.000 C 
ATOM      7  N   UNL     1       2.066   7.568  19.756  0.00  0.00    +0.000 N 
ATOM      8  C   UNL     1       1.343   8.510  20.461  0.00  0.00    +0.000 C 
ATOM      9  O   UNL     1       1.114   8.410  21.661  0.00  0.00    +0.000 OA
ATOM     10  C   UNL     1       2.572   6.348  20.385  0.00  0.00    +0.000 C 
ATOM     11  C   UNL     1       3.599   5.795  19.366  0.00  0.00    +0.000 C 
ENDROOT
BRANCH   8  12
ATOM     12  C   UNL     1       0.871   9.711  19.701  0.00  0.00    +0.000 C 
ATOM     13  C   UNL     1      -0.595  10.066  19.605  0.00  0.00    +0.000 C 
ATOM     14  C   UNL     1       0.316  10.893  20.460  0.00  0.00    +0.000 C 
ENDBRANCH   8  12
BRANCH   1  15
ATOM     15  C   UNL     1       5.234   4.116  18.724  0.00  0.00    +0.000 C 
BRANCH  15  18
ATOM     16  C   UNL     1       7.556   7.011  17.788  0.00  0.00    +0.000 C 
ATOM     17  N   UNL     1       6.554   5.977  17.777  0.00  0.00    +0.000 N 
ATOM     18  C   UNL     1       6.307   5.205  18.889  0.00  0.00    +0.000 C 
ATOM     19  O   UNL     1       6.936   5.325  19.936  0.00  0.00    +0.000 OA
ATOM     20  H   UNL     1       5.986   5.805  16.954  0.00  0.00    +0.000 HD
ENDBRANCH  15  18
ENDBRANCH   1  15
TORSDOF 3
ENDMDL
MODEL 7
REMARK VINA RESULT:      -6.1      1.347      1.536
REMARK  Name = 
REMARK  4 active torsions:
REMARK  status: ('A' for Active; 'I' for Inactive)
REMARK    1  A    between atoms: C_1  and  N_2
REMARK    2  A    between atoms: C_3  and  C_5
REMARK    3  A    between atoms: C_5  and  N_6
REMARK    4  A    between atoms: C_13  and  C_15
REMARK                            x       y       z     vdW  Elec       q    Type
REMARK                         _______ _______ _______ _____ _____    ______ ____
ROOT
ATOM      1  N   UNL     1       5.587   4.921  16.346  0.00  0.00    +0.000 NA
ATOM      2  C   UNL     1       6.660   5.729  16.977  0.00  0.00    +0.000 C 
ATOM      3  C   UNL     1       7.376   5.087  18.178  0.00  0.00    +0.000 C 
ATOM      4  O   UNL     1       6.458   4.609  19.161  0.00  0.00    +0.000 OA
ATOM      5  C   UNL     1       5.517   3.681  18.597  0.00  0.00    +0.000 C 
ATOM      6  C   UNL     1       4.408   3.446  19.631  0.00  0.00    +0.000 C 
ATOM      7  N   UNL     1       3.442   4.512  19.388  0.00  0.00    +0.000 N 
ATOM      8  C   UNL     1       2.384   4.874  20.197  0.00  0.00    +0.000 C 
ATOM      9  O   UNL     1       1.627   5.800  19.928  0.00  0.00    +0.000 OA
ATOM     10  C   UNL     1       3.771   5.245  18.165  0.00  0.00    +0.000 C 
ATOM     11  C   UNL     1       4.744   4.306  17.411  0.00  0.00    +0.000 C 
ENDROOT
BRANCH   8  12
ATOM     12  C   UNL     1       2.158   4.050  21.427  0.00  0.00    +0.000 C 
ATOM     13  C   UNL     1       1.150   2.924  21.457  0.00  0.00    +0.000 C 
ATOM     14  C   UNL     1       2.614   2.609  21.445  0.00  0.00    +0.000 C 
ENDBRANCH   8  12
BRANCH   1  15
ATOM     15  C   UNL     1       6.148   3.837  15.484  0.00  0.00    +0.000 C 
BRANCH  15  18
ATOM     16  C   UNL     1       6.792   3.704  11.714  0.00  0.00    +0.000 C 
ATOM     17  N   UNL     1       6.392   3.406  13.064  0.00  0.00    +0.000 N 
ATOM     18  C   UNL     1       6.594   4.302  14.088  0.00  0.00    +0.000 C 
ATOM     19  O   UNL     1       7.147   5.385  13.925  0.00  0.00    +0.000 OA
ATOM     20  H   UNL     1       5.928   2.532  13.293  0.00  0.00    +0.000 HD
ENDBRANCH  15  18
ENDBRANCH   1  15
TORSDOF 3
ENDMDL
MODEL 8
REMARK VINA RESULT:      -6.1      3.528      5.526
REMARK  Name = 
REMARK  4 active torsions:
REMARK  status: ('A' for Active; 'I' for Inactive)
REMARK    1  A    between atoms: C_1  and  N_2
REMARK    2  A    between atoms: C_3  and  C_5
REMARK    3  A    between atoms: C_5  and  N_6
REMARK    4  A    between atoms: C_13  and  C_15
REMARK                            x       y       z     vdW  Elec       q    Type
REMARK                         _______ _______ _______ _____ _____    ______ ____
ROOT
ATOM      1  N   UNL     1       3.394   3.888  19.920  0.00  0.00    +0.000 NA
ATOM      2  C   UNL     1       2.152   3.167  19.546  0.00  0.00    +0.000 C 
ATOM      3  C   UNL     1       1.629   3.411  18.120  0.00  0.00    +0.000 C 
ATOM      4  O   UNL     1       1.516   4.801  17.817  0.00  0.00    +0.000 OA
ATOM      5  C   UNL     1       2.767   5.484  18.005  0.00  0.00    +0.000 C 
ATOM      6  C   UNL     1       2.494   6.993  17.944  0.00  0.00    +0.000 C 
ATOM      7  N   UNL     1       2.134   7.361  19.309  0.00  0.00    +0.000 N 
ATOM      8  C   UNL     1       1.582   8.554  19.729  0.00  0.00    +0.000 C 
ATOM      9  O   UNL     1       1.289   8.776  20.898  0.00  0.00    +0.000 OA
ATOM     10  C   UNL     1       2.366   6.246  20.228  0.00  0.00    +0.000 C 
ATOM     11  C   UNL     1       3.306   5.298  19.444  0.00  0.00    +0.000 C 
ENDROOT
BRANCH   8  12
ATOM     12  C   UNL     1       1.385   9.614  18.689  0.00  0.00    +0.000 C 
ATOM     13  C   UNL     1       0.010   9.999  18.195  0.00  0.00    +0.000 C 
ATOM     14  C   UNL     1       0.767  10.934  19.088  0.00  0.00    +0.000 C 
ENDBRANCH   8  12
BRANCH   1  15
ATOM     15  C   UNL     1       4.604   3.248  19.322  0.00  0.00    +0.000 C 
BRANCH  15  18
ATOM     16  C   UNL     1       7.236   5.025  17.185  0.00  0.00    +0.000 C 
ATOM     17  N   UNL     1       6.169   4.178  17.651  0.00  0.00    +0.000 N 
ATOM     18  C   UNL     1       5.727   4.233  18.953  0.00  0.00    +0.000 C 
ATOM     19  O   UNL     1       6.225   4.973  19.795  0.00  0.00    +0.000 OA
ATOM     20  H   UNL     1       5.699   3.533  17.025  0.00  0.00    +0.000 HD
ENDBRANCH  15  18
ENDBRANCH   1  15
TORSDOF 3
ENDMDL
MODEL 9
REMARK VINA RESULT:      -6.0      3.245      4.147
REMARK  Name = 
REMARK  4 active torsions:
REMARK  status: ('A' for Active; 'I' for Inactive)
REMARK    1  A    between atoms: C_1  and  N_2
REMARK    2  A    between atoms: C_3  and  C_5
REMARK    3  A    between atoms: C_5  and  N_6
REMARK    4  A    between atoms: C_13  and  C_15
REMARK                            x       y       z     vdW  Elec       q    Type
REMARK                         _______ _______ _______ _____ _____    ______ ____
ROOT
ATOM      1  N   UNL     1       5.982   5.846  16.779  0.00  0.00    +0.000 NA
ATOM      2  C   UNL     1       6.632   5.804  18.113  0.00  0.00    +0.000 C 
ATOM      3  C   UNL     1       5.811   5.167  19.248  0.00  0.00    +0.000 C 
ATOM      4  O   UNL     1       4.500   5.723  19.343  0.00  0.00    +0.000 OA
ATOM      5  C   UNL     1       3.789   5.610  18.099  0.00  0.00    +0.000 C 
ATOM      6  C   UNL     1       2.525   6.475  18.198  0.00  0.00    +0.000 C 
ATOM      7  N   UNL     1       2.954   7.806  17.785  0.00  0.00    +0.000 N 
ATOM      8  C   UNL     1       2.247   8.984  17.919  0.00  0.00    +0.000 C 
ATOM      9  O   UNL     1       2.691  10.070  17.562  0.00  0.00    +0.000 OA
ATOM     10  C   UNL     1       4.315   7.773  17.249  0.00  0.00    +0.000 C 
ATOM     11  C   UNL     1       4.563   6.277  16.938  0.00  0.00    +0.000 C 
ENDROOT
BRANCH   8  12
ATOM     12  C   UNL     1       0.866   8.886  18.490  0.00  0.00    +0.000 C 
ATOM     13  C   UNL     1       0.502   9.534  19.806  0.00  0.00    +0.000 C 
ATOM     14  C   UNL     1      -0.007  10.119  18.525  0.00  0.00    +0.000 C 
ENDBRANCH   8  12
BRANCH   1  15
ATOM     15  C   UNL     1       6.012   4.512  16.109  0.00  0.00    +0.000 C 
BRANCH  15  18
ATOM     16  C   UNL     1       6.556   3.523  12.452  0.00  0.00    +0.000 C 
ATOM     17  N   UNL     1       6.064   3.633  13.800  0.00  0.00    +0.000 N 
ATOM     18  C   UNL     1       6.612   4.525  14.693  0.00  0.00    +0.000 C 
ATOM     19  O   UNL     1       7.561   5.251  14.412  0.00  0.00    +0.000 OA
ATOM     20  H   UNL     1       5.283   3.070  14.122  0.00  0.00    +0.000 HD
ENDBRANCH  15  18
ENDBRANCH   1  15
TORSDOF 3
ENDMDL
