MODEL 1
REMARK VINA RESULT:      -7.0      0.000      0.000
REMARK  Name = 
REMARK  2 active torsions:
REMARK  status: ('A' for Active; 'I' for Inactive)
REMARK    1  A    between atoms: C_2  and  C_14
REMARK    2  A    between atoms: C_8  and  C_9
REMARK                            x       y       z     vdW  Elec       q    Type
REMARK                         _______ _______ _______ _____ _____    ______ ____
ROOT
ATOM      1  O   UNL     1       1.929   6.090  20.562  0.00  0.00    +0.000 OA
ATOM      2  C   UNL     1       2.087   7.080  19.853  0.00  0.00    +0.000 C 
ATOM      3  N   UNL     1       2.831   7.155  18.692  0.00  0.00    +0.000 N 
ATOM      4  C   UNL     1       3.409   6.044  18.068  0.00  0.00    +0.000 A 
ATOM      5  C   UNL     1       4.369   6.246  17.086  0.00  0.00    +0.000 A 
ATOM      6  C   UNL     1       4.966   5.134  16.492  0.00  0.00    +0.000 A 
ATOM      7  C   UNL     1       4.562   3.854  16.865  0.00  0.00    +0.000 A 
ATOM      8  C   UNL     1       3.563   3.720  17.825  0.00  0.00    +0.000 A 
ATOM      9  N   UNL     1       3.009   4.809  18.421  0.00  0.00    +0.000 NA
ATOM     10  H   UNL     1       2.975   8.081  18.305  0.00  0.00    +0.000 HD
ENDROOT
BRANCH   2  11
ATOM     11  C   UNL     1       1.457   8.365  20.282  0.00  0.00    +0.000 A 
ATOM     12  C   UNL     1       1.131   8.534  21.626  0.00  0.00    +0.000 A 
ATOM     13  C   UNL     1       0.495   9.705  22.012  0.00  0.00    +0.000 A 
ATOM     14  C   UNL     1       0.198  10.662  21.049  0.00  0.00    +0.000 A 
ATOM     15  C   UNL     1       0.572  10.417  19.733  0.00  0.00    +0.000 A 
ATOM     16  N   UNL     1       1.208   9.296  19.317  0.00  0.00    +0.000 NA
ENDBRANCH   2  11
BRANCH   8  17
ATOM     17  C   UNL     1       3.046   2.346  18.221  0.00  0.00    +0.000 C 
ATOM     18  F   UNL     1       3.827   1.326  17.749  0.00  0.00    +0.000 F 
ATOM     19  F   UNL     1       2.985   2.152  19.570  0.00  0.00    +0.000 F 
ATOM     20  F   UNL     1       1.796   2.082  17.742  0.00  0.00    +0.000 F 
ENDBRANCH   8  17
TORSDOF 2
ENDMDL
MODEL 2
REMARK VINA RESULT:      -7.0      2.890      6.227
REMARK  Name = 
REMARK  2 active torsions:
REMARK  status: ('A' for Active; 'I' for Inactive)
REMARK    1  A    between atoms: C_2  and  C_14
REMARK    2  A    between atoms: C_8  and  C_9
REMARK                            x       y       z     vdW  Elec       q    Type
REMARK                         _______ _______ _______ _____ _____    ______ ____
ROOT
ATOM      1  O   UNL     1       3.993   3.091  17.037  0.00  0.00    +0.000 OA
ATOM      2  C   UNL     1       4.441   4.222  16.875  0.00  0.00    +0.000 C 
ATOM      3  N   UNL     1       4.097   5.358  17.580  0.00  0.00    +0.000 N 
ATOM      4  C   UNL     1       3.268   5.349  18.707  0.00  0.00    +0.000 A 
ATOM      5  C   UNL     1       2.746   6.549  19.169  0.00  0.00    +0.000 A 
ATOM      6  C   UNL     1       1.892   6.529  20.272  0.00  0.00    +0.000 A 
ATOM      7  C   UNL     1       1.615   5.321  20.907  0.00  0.00    +0.000 A 
ATOM      8  C   UNL     1       2.204   4.159  20.420  0.00  0.00    +0.000 A 
ATOM      9  N   UNL     1       3.010   4.183  19.325  0.00  0.00    +0.000 NA
ATOM     10  H   UNL     1       4.455   6.237  17.226  0.00  0.00    +0.000 HD
ENDROOT
BRANCH   2  11
ATOM     11  C   UNL     1       5.436   4.437  15.780  0.00  0.00    +0.000 A 
ATOM     12  C   UNL     1       5.189   3.869  14.532  0.00  0.00    +0.000 A 
ATOM     13  C   UNL     1       6.142   4.023  13.534  0.00  0.00    +0.000 A 
ATOM     14  C   UNL     1       7.307   4.728  13.814  0.00  0.00    +0.000 A 
ATOM     15  C   UNL     1       7.464   5.272  15.083  0.00  0.00    +0.000 A 
ATOM     16  N   UNL     1       6.554   5.159  16.080  0.00  0.00    +0.000 NA
ENDBRANCH   2  11
BRANCH   8  17
ATOM     17  C   UNL     1       1.980   2.824  21.115  0.00  0.00    +0.000 C 
ATOM     18  F   UNL     1       1.653   1.819  20.245  0.00  0.00    +0.000 F 
ATOM     19  F   UNL     1       3.075   2.368  21.789  0.00  0.00    +0.000 F 
ATOM     20  F   UNL     1       0.960   2.853  22.021  0.00  0.00    +0.000 F 
ENDBRANCH   8  17
TORSDOF 2
ENDMDL
MODEL 3
REMARK VINA RESULT:      -7.0      2.536      3.007
REMARK  Name = 
REMARK  2 active torsions:
REMARK  status: ('A' for Active; 'I' for Inactive)
REMARK    1  A    between atoms: C_2  and  C_14
REMARK    2  A    between atoms: C_8  and  C_9
REMARK                            x       y       z     vdW  Elec       q    Type
REMARK                         _______ _______ _______ _____ _____    ______ ____
ROOT
ATOM      1  O   UNL     1       2.070   8.264  18.085  0.00  0.00    +0.000 OA
ATOM      2  C   UNL     1       2.013   7.947  19.270  0.00  0.00    +0.000 C 
ATOM      3  N   UNL     1       2.527   6.802  19.846  0.00  0.00    +0.000 N 
ATOM      4  C   UNL     1       3.332   5.885  19.161  0.00  0.00    +0.000 A 
ATOM      5  C   UNL     1       3.556   4.635  19.723  0.00  0.00    +0.000 A 
ATOM      6  C   UNL     1       4.332   3.713  19.020  0.00  0.00    +0.000 A 
ATOM      7  C   UNL     1       4.894   4.075  17.798  0.00  0.00    +0.000 A 
ATOM      8  C   UNL     1       4.666   5.358  17.310  0.00  0.00    +0.000 A 
ATOM      9  N   UNL     1       3.883   6.240  17.987  0.00  0.00    +0.000 NA
ATOM     10  H   UNL     1       2.270   6.625  20.810  0.00  0.00    +0.000 HD
ENDROOT
BRANCH   2  11
ATOM     11  C   UNL     1       1.283   8.852  20.209  0.00  0.00    +0.000 A 
ATOM     12  C   UNL     1       1.162   8.470  21.544  0.00  0.00    +0.000 A 
ATOM     13  C   UNL     1       0.435   9.284  22.402  0.00  0.00    +0.000 A 
ATOM     14  C   UNL     1      -0.151  10.441  21.902  0.00  0.00    +0.000 A 
ATOM     15  C   UNL     1       0.032  10.751  20.560  0.00  0.00    +0.000 A 
ATOM     16  N   UNL     1       0.747   9.994  19.693  0.00  0.00    +0.000 NA
ENDBRANCH   2  11
BRANCH   8  17
ATOM     17  C   UNL     1       5.307   5.821  16.010  0.00  0.00    +0.000 C 
ATOM     18  F   UNL     1       6.653   6.037  16.128  0.00  0.00    +0.000 F 
ATOM     19  F   UNL     1       5.179   4.926  14.989  0.00  0.00    +0.000 F 
ATOM     20  F   UNL     1       4.799   7.000  15.550  0.00  0.00    +0.000 F 
ENDBRANCH   8  17
TORSDOF 2
ENDMDL
MODEL 4
REMARK VINA RESULT:      -7.0      4.644      5.460
REMARK  Name = 
REMARK  2 active torsions:
REMARK  status: ('A' for Active; 'I' for Inactive)
REMARK    1  A    between atoms: C_2  and  C_14
REMARK    2  A    between atoms: C_8  and  C_9
REMARK                            x       y       z     vdW  Elec       q    Type
REMARK                         _______ _______ _______ _____ _____    ______ ____
ROOT
ATOM      1  O   UNL     1       4.032   2.569  17.616  0.00  0.00    +0.000 OA
ATOM      2  C   UNL     1       3.921   3.397  18.515  0.00  0.00    +0.000 C 
ATOM      3  N   UNL     1       4.655   4.557  18.667  0.00  0.00    +0.000 N 
ATOM      4  C   UNL     1       5.558   5.033  17.711  0.00  0.00    +0.000 A 
ATOM      5  C   UNL     1       6.455   6.031  18.070  0.00  0.00    +0.000 A 
ATOM      6  C   UNL     1       7.375   6.478  17.121  0.00  0.00    +0.000 A 
ATOM      7  C   UNL     1       7.351   5.947  15.834  0.00  0.00    +0.000 A 
ATOM      8  C   UNL     1       6.399   4.980  15.526  0.00  0.00    +0.000 A 
ATOM      9  N   UNL     1       5.526   4.528  16.465  0.00  0.00    +0.000 NA
ATOM     10  H   UNL     1       4.536   5.057  19.541  0.00  0.00    +0.000 HD
ENDROOT
BRANCH   2  11
ATOM     11  C   UNL     1       2.924   3.136  19.598  0.00  0.00    +0.000 A 
ATOM     12  C   UNL     1       1.586   3.442  19.362  0.00  0.00    +0.000 A 
ATOM     13  C   UNL     1       0.671   3.252  20.388  0.00  0.00    +0.000 A 
ATOM     14  C   UNL     1       1.120   2.772  21.613  0.00  0.00    +0.000 A 
ATOM     15  C   UNL     1       2.471   2.480  21.756  0.00  0.00    +0.000 A 
ATOM     16  N   UNL     1       3.393   2.635  20.777  0.00  0.00    +0.000 NA
ENDBRANCH   2  11
BRANCH   8  17
ATOM     17  C   UNL     1       6.292   4.415  14.118  0.00  0.00    +0.000 C 
ATOM     18  F   UNL     1       5.058   4.605  13.559  0.00  0.00    +0.000 F 
ATOM     19  F   UNL     1       7.171   4.973  13.237  0.00  0.00    +0.000 F 
ATOM     20  F   UNL     1       6.500   3.067  14.062  0.00  0.00    +0.000 F 
ENDBRANCH   8  17
TORSDOF 2
ENDMDL
MODEL 5
REMARK VINA RESULT:      -6.9      2.533      3.268
REMARK  Name = 
REMARK  2 active torsions:
REMARK  status: ('A' for Active; 'I' for Inactive)
REMARK    1  A    between atoms: C_2  and  C_14
REMARK    2  A    between atoms: C_8  and  C_9
REMARK                            x       y       z     vdW  Elec       q    Type
REMARK                         _______ _______ _______ _____ _____    ______ ____
ROOT
ATOM      1  O   UNL     1       1.558   8.933  19.185  0.00  0.00    +0.000 OA
ATOM      2  C   UNL     1       1.248   8.589  20.322  0.00  0.00    +0.000 C 
ATOM      3  N   UNL     1       1.431   7.343  20.888  0.00  0.00    +0.000 N 
ATOM      4  C   UNL     1       2.146   6.310  20.273  0.00  0.00    +0.000 A 
ATOM      5  C   UNL     1       2.030   5.020  20.773  0.00  0.00    +0.000 A 
ATOM      6  C   UNL     1       2.719   3.988  20.134  0.00  0.00    +0.000 A 
ATOM      7  C   UNL     1       3.533   4.277  19.041  0.00  0.00    +0.000 A 
ATOM      8  C   UNL     1       3.639   5.597  18.615  0.00  0.00    +0.000 A 
ATOM      9  N   UNL     1       2.939   6.591  19.224  0.00  0.00    +0.000 NA
ATOM     10  H   UNL     1       0.989   7.184  21.787  0.00  0.00    +0.000 HD
ENDROOT
BRANCH   2  11
ATOM     11  C   UNL     1       0.561   9.585  21.199  0.00  0.00    +0.000 A 
ATOM     12  C   UNL     1      -0.062   9.133  22.361  0.00  0.00    +0.000 A 
ATOM     13  C   UNL     1      -0.748  10.051  23.145  0.00  0.00    +0.000 A 
ATOM     14  C   UNL     1      -0.797  11.381  22.743  0.00  0.00    +0.000 A 
ATOM     15  C   UNL     1      -0.136  11.745  21.576  0.00  0.00    +0.000 A 
ATOM     16  N   UNL     1       0.557  10.886  20.792  0.00  0.00    +0.000 NA
ENDBRANCH   2  11
BRANCH   8  17
ATOM     17  C   UNL     1       4.561   5.971  17.465  0.00  0.00    +0.000 C 
ATOM     18  F   UNL     1       4.643   4.994  16.509  0.00  0.00    +0.000 F 
ATOM     19  F   UNL     1       4.171   7.092  16.794  0.00  0.00    +0.000 F 
ATOM     20  F   UNL     1       5.849   6.190  17.857  0.00  0.00    +0.000 F 
ENDBRANCH   8  17
TORSDOF 2
ENDMDL
MODEL 6
REMARK VINA RESULT:      -6.9      2.538      3.076
REMARK  Name = 
REMARK  2 active torsions:
REMARK  status: ('A' for Active; 'I' for Inactive)
REMARK    1  A    between atoms: C_2  and  C_14
REMARK    2  A    between atoms: C_8  and  C_9
REMARK                            x       y       z     vdW  Elec       q    Type
REMARK                         _______ _______ _______ _____ _____    ______ ____
ROOT
ATOM      1  O   UNL     1       2.444   8.356  17.759  0.00  0.00    +0.000 OA
ATOM      2  C   UNL     1       2.166   7.867  18.850  0.00  0.00    +0.000 C 
ATOM      3  N   UNL     1       2.380   6.563  19.251  0.00  0.00    +0.000 N 
ATOM      4  C   UNL     1       3.094   5.627  18.494  0.00  0.00    +0.000 A 
ATOM      5  C   UNL     1       3.009   4.283  18.831  0.00  0.00    +0.000 A 
ATOM      6  C   UNL     1       3.696   3.351  18.053  0.00  0.00    +0.000 A 
ATOM      7  C   UNL     1       4.478   3.788  16.986  0.00  0.00    +0.000 A 
ATOM      8  C   UNL     1       4.555   5.153  16.727  0.00  0.00    +0.000 A 
ATOM      9  N   UNL     1       3.858   6.051  17.472  0.00  0.00    +0.000 NA
ATOM     10  H   UNL     1       1.964   6.285  20.132  0.00  0.00    +0.000 HD
ENDROOT
BRANCH   2  11
ATOM     11  C   UNL     1       1.487   8.733  19.861  0.00  0.00    +0.000 A 
ATOM     12  C   UNL     1       1.306   8.238  21.150  0.00  0.00    +0.000 A 
ATOM     13  C   UNL     1       0.625   9.021  22.072  0.00  0.00    +0.000 A 
ATOM     14  C   UNL     1       0.143  10.264  21.678  0.00  0.00    +0.000 A 
ATOM     15  C   UNL     1       0.381  10.684  20.374  0.00  0.00    +0.000 A 
ATOM     16  N   UNL     1       1.054   9.959  19.450  0.00  0.00    +0.000 NA
ENDBRANCH   2  11
BRANCH   8  17
ATOM     17  C   UNL     1       5.444   5.684  15.612  0.00  0.00    +0.000 C 
ATOM     18  F   UNL     1       5.531   4.827  14.548  0.00  0.00    +0.000 F 
ATOM     19  F   UNL     1       5.011   6.864  15.083  0.00  0.00    +0.000 F 
ATOM     20  F   UNL     1       6.734   5.891  16.004  0.00  0.00    +0.000 F 
ENDBRANCH   8  17
TORSDOF 2
ENDMDL
MODEL 7
REMARK VINA RESULT:      -6.9      0.651      1.407
REMARK  Name = 
REMARK  2 active torsions:
REMARK  status: ('A' for Active; 'I' for Inactive)
REMARK    1  A    between atoms: C_2  and  C_14
REMARK    2  A    between atoms: C_8  and  C_9
REMARK                            x       y       z     vdW  Elec       q    Type
REMARK                         _______ _______ _______ _____ _____    ______ ____
ROOT
ATOM      1  O   UNL     1       2.019   6.035  20.463  0.00  0.00    +0.000 OA
ATOM      2  C   UNL     1       2.179   7.021  19.749  0.00  0.00    +0.000 C 
ATOM      3  N   UNL     1       2.924   7.091  18.589  0.00  0.00    +0.000 N 
ATOM      4  C   UNL     1       3.502   5.977  17.970  0.00  0.00    +0.000 A 
ATOM      5  C   UNL     1       4.463   6.175  16.989  0.00  0.00    +0.000 A 
ATOM      6  C   UNL     1       5.060   5.059  16.400  0.00  0.00    +0.000 A 
ATOM      7  C   UNL     1       4.654   3.781  16.777  0.00  0.00    +0.000 A 
ATOM      8  C   UNL     1       3.655   3.652  17.737  0.00  0.00    +0.000 A 
ATOM      9  N   UNL     1       3.101   4.744  18.328  0.00  0.00    +0.000 NA
ATOM     10  H   UNL     1       3.069   8.016  18.198  0.00  0.00    +0.000 HD
ENDROOT
BRANCH   2  11
ATOM     11  C   UNL     1       1.550   8.309  20.172  0.00  0.00    +0.000 A 
ATOM     12  C   UNL     1       1.281   9.272  19.202  0.00  0.00    +0.000 A 
ATOM     13  C   UNL     1       0.749  10.489  19.604  0.00  0.00    +0.000 A 
ATOM     14  C   UNL     1       0.511  10.709  20.956  0.00  0.00    +0.000 A 
ATOM     15  C   UNL     1       0.798   9.688  21.854  0.00  0.00    +0.000 A 
ATOM     16  N   UNL     1       1.301   8.481  21.502  0.00  0.00    +0.000 NA
ENDBRANCH   2  11
BRANCH   8  17
ATOM     17  C   UNL     1       3.136   2.280  18.138  0.00  0.00    +0.000 C 
ATOM     18  F   UNL     1       1.897   2.008  17.624  0.00  0.00    +0.000 F 
ATOM     19  F   UNL     1       3.928   1.252  17.719  0.00  0.00    +0.000 F 
ATOM     20  F   UNL     1       2.998   2.130  19.487  0.00  0.00    +0.000 F 
ENDBRANCH   8  17
TORSDOF 2
ENDMDL
MODEL 8
REMARK VINA RESULT:      -6.9      3.617      6.777
REMARK  Name = 
REMARK  2 active torsions:
REMARK  status: ('A' for Active; 'I' for Inactive)
REMARK    1  A    between atoms: C_2  and  C_14
REMARK    2  A    between atoms: C_8  and  C_9
REMARK                            x       y       z     vdW  Elec       q    Type
REMARK                         _______ _______ _______ _____ _____    ______ ____
ROOT
ATOM      1  O   UNL     1       5.407   5.251  17.407  0.00  0.00    +0.000 OA
ATOM      2  C   UNL     1       5.091   4.499  16.490  0.00  0.00    +0.000 C 
ATOM      3  N   UNL     1       4.097   3.541  16.511  0.00  0.00    +0.000 N 
ATOM      4  C   UNL     1       3.190   3.388  17.565  0.00  0.00    +0.000 A 
ATOM      5  C   UNL     1       2.426   2.231  17.633  0.00  0.00    +0.000 A 
ATOM      6  C   UNL     1       1.548   2.070  18.705  0.00  0.00    +0.000 A 
ATOM      7  C   UNL     1       1.427   3.081  19.656  0.00  0.00    +0.000 A 
ATOM      8  C   UNL     1       2.191   4.235  19.506  0.00  0.00    +0.000 A 
ATOM      9  N   UNL     1       3.067   4.370  18.475  0.00  0.00    +0.000 NA
ATOM     10  H   UNL     1       4.060   2.909  15.719  0.00  0.00    +0.000 HD
ENDROOT
BRANCH   2  11
ATOM     11  C   UNL     1       5.870   4.571  15.217  0.00  0.00    +0.000 A 
ATOM     12  C   UNL     1       5.446   3.808  14.131  0.00  0.00    +0.000 A 
ATOM     13  C   UNL     1       6.204   3.833  12.967  0.00  0.00    +0.000 A 
ATOM     14  C   UNL     1       7.357   4.607  12.928  0.00  0.00    +0.000 A 
ATOM     15  C   UNL     1       7.698   5.347  14.054  0.00  0.00    +0.000 A 
ATOM     16  N   UNL     1       6.980   5.364  15.202  0.00  0.00    +0.000 NA
ENDBRANCH   2  11
BRANCH   8  17
ATOM     17  C   UNL     1       2.051   5.391  20.484  0.00  0.00    +0.000 C 
ATOM     18  F   UNL     1       0.747   5.746  20.705  0.00  0.00    +0.000 F 
ATOM     19  F   UNL     1       2.562   5.128  21.720  0.00  0.00    +0.000 F 
ATOM     20  F   UNL     1       2.659   6.535  20.055  0.00  0.00    +0.000 F 
ENDBRANCH   8  17
TORSDOF 2
ENDMDL
MODEL 9
REMARK VINA RESULT:      -6.9      2.953      6.434
REMARK  Name = 
REMARK  2 active torsions:
REMARK  status: ('A' for Active; 'I' for Inactive)
REMARK    1  A    between atoms: C_2  and  C_14
REMARK    2  A    between atoms: C_8  and  C_9
REMARK                            x       y       z     vdW  Elec       q    Type
REMARK                         _______ _______ _______ _____ _____    ______ ____
ROOT
ATOM      1  O   UNL     1       4.319   3.203  16.700  0.00  0.00    +0.000 OA
ATOM      2  C   UNL     1       4.693   4.334  16.405  0.00  0.00    +0.000 C 
ATOM      3  N   UNL     1       4.323   5.515  17.017  0.00  0.00    +0.000 N 
ATOM      4  C   UNL     1       3.556   5.574  18.186  0.00  0.00    +0.000 A 
ATOM      5  C   UNL     1       2.992   6.786  18.560  0.00  0.00    +0.000 A 
ATOM      6  C   UNL     1       2.200   6.831  19.708  0.00  0.00    +0.000 A 
ATOM      7  C   UNL     1       2.024   5.678  20.470  0.00  0.00    +0.000 A 
ATOM      8  C   UNL     1       2.652   4.505  20.063  0.00  0.00    +0.000 A 
ATOM      9  N   UNL     1       3.397   4.463  18.926  0.00  0.00    +0.000 NA
ATOM     10  H   UNL     1       4.612   6.372  16.560  0.00  0.00    +0.000 HD
ENDROOT
BRANCH   2  11
ATOM     11  C   UNL     1       5.616   4.491  15.239  0.00  0.00    +0.000 A 
ATOM     12  C   UNL     1       5.384   3.729  14.097  0.00  0.00    +0.000 A 
ATOM     13  C   UNL     1       6.275   3.835  13.037  0.00  0.00    +0.000 A 
ATOM     14  C   UNL     1       7.367   4.687  13.154  0.00  0.00    +0.000 A 
ATOM     15  C   UNL     1       7.513   5.420  14.326  0.00  0.00    +0.000 A 
ATOM     16  N   UNL     1       6.659   5.359  15.376  0.00  0.00    +0.000 NA
ENDBRANCH   2  11
BRANCH   8  17
ATOM     17  C   UNL     1       2.541   3.236  20.894  0.00  0.00    +0.000 C 
ATOM     18  F   UNL     1       2.303   3.486  22.219  0.00  0.00    +0.000 F 
ATOM     19  F   UNL     1       1.528   2.412  20.501  0.00  0.00    +0.000 F 
ATOM     20  F   UNL     1       3.677   2.480  20.876  0.00  0.00    +0.000 F 
ENDBRANCH   8  17
TORSDOF 2
ENDMDL
