MODEL 1
REMARK VINA RESULT:      -6.4      0.000      0.000
REMARK  Name = 
REMARK  6 active torsions:
REMARK  status: ('A' for Active; 'I' for Inactive)
REMARK    1  A    between atoms: C_1  and  O_2
REMARK    2  A    between atoms: O_2  and  C_3
REMARK    3  A    between atoms: C_6  and  S_7
REMARK    4  A    between atoms: S_7  and  C_8
REMARK    5  A    between atoms: C_14  and  O_15
REMARK    6  A    between atoms: O_15  and  C_16
REMARK                            x       y       z     vdW  Elec       q    Type
REMARK                         _______ _______ _______ _____ _____    ______ ____
ROOT
ATOM      1  C   UNL     1       6.264   6.069  16.754  0.00  0.00    +0.000 A 
ATOM      2  C   UNL     1       5.262   6.638  17.555  0.00  0.00    +0.000 A 
ATOM      3  C   UNL     1       4.084   5.946  17.838  0.00  0.00    +0.000 A 
ATOM      4  C   UNL     1       3.852   4.686  17.288  0.00  0.00    +0.000 A 
ATOM      5  C   UNL     1       4.797   4.169  16.396  0.00  0.00    +0.000 A 
ATOM      6  C   UNL     1       6.003   4.846  16.117  0.00  0.00    +0.000 A 
ENDROOT
BRANCH   1   8
ATOM      7  C   UNL     1       7.723   7.790  17.463  0.00  0.00    +0.000 C 
ATOM      8  O   UNL     1       7.458   6.708  16.566  0.00  0.00    +0.000 OA
ENDBRANCH   1   8
BRANCH   6   9
ATOM      9  O   UNL     1       6.778   4.161  15.218  0.00  0.00    +0.000 OA
ATOM     10  C   UNL     1       6.286   3.911  13.910  0.00  0.00    +0.000 C 
ENDBRANCH   6   9
BRANCH   4  11
ATOM     11  S   UNL     1       2.303   3.872  17.629  0.00  0.00    +0.000 S 
BRANCH  11  12
ATOM     12  C   UNL     1       2.729   2.906  19.112  0.00  0.00    +0.000 C 
ATOM     13  C   UNL     1       1.462   2.422  19.861  0.00  0.00    +0.000 C 
ATOM     14  C   UNL     1       2.119   3.100  21.074  0.00  0.00    +0.000 C 
ATOM     15  O   UNL     1       2.054   3.048  22.274  0.00  0.00    +0.000 OA
ATOM     16  N   UNL     1       2.974   3.783  20.259  0.00  0.00    +0.000 N 
ATOM     17  H   UNL     1       3.866   4.048  20.660  0.00  0.00    +0.000 HD
ENDBRANCH  11  12
ENDBRANCH   4  11
TORSDOF 4
ENDMDL
MODEL 2
REMARK VINA RESULT:      -6.3      0.994      2.708
REMARK  Name = 
REMARK  6 active torsions:
REMARK  status: ('A' for Active; 'I' for Inactive)
REMARK    1  A    between atoms: C_1  and  O_2
REMARK    2  A    between atoms: O_2  and  C_3
REMARK    3  A    between atoms: C_6  and  S_7
REMARK    4  A    between atoms: S_7  and  C_8
REMARK    5  A    between atoms: C_14  and  O_15
REMARK    6  A    between atoms: O_15  and  C_16
REMARK                            x       y       z     vdW  Elec       q    Type
REMARK                         _______ _______ _______ _____ _____    ______ ____
ROOT
ATOM      1  C   UNL     1       6.127   4.702  15.717  0.00  0.00    +0.000 A 
ATOM      2  C   UNL     1       5.005   3.899  15.981  0.00  0.00    +0.000 A 
ATOM      3  C   UNL     1       4.052   4.278  16.927  0.00  0.00    +0.000 A 
ATOM      4  C   UNL     1       4.218   5.446  17.671  0.00  0.00    +0.000 A 
ATOM      5  C   UNL     1       5.393   6.183  17.493  0.00  0.00    +0.000 A 
ATOM      6  C   UNL     1       6.355   5.826  16.526  0.00  0.00    +0.000 A 
ENDROOT
BRANCH   1   8
ATOM      7  C   UNL     1       6.400   3.968  13.486  0.00  0.00    +0.000 C 
ATOM      8  O   UNL     1       7.001   4.377  14.717  0.00  0.00    +0.000 OA
ENDBRANCH   1   8
BRANCH   6   9
ATOM      9  O   UNL     1       7.422   6.685  16.523  0.00  0.00    +0.000 OA
ATOM     10  C   UNL     1       7.645   7.535  17.639  0.00  0.00    +0.000 C 
ENDBRANCH   6   9
BRANCH   4  11
ATOM     11  S   UNL     1       3.005   5.851  18.913  0.00  0.00    +0.000 S 
BRANCH  11  12
ATOM     12  C   UNL     1       3.253   4.499  20.106  0.00  0.00    +0.000 C 
ATOM     13  C   UNL     1       2.307   3.305  19.821  0.00  0.00    +0.000 C 
ATOM     14  C   UNL     1       1.909   3.480  21.295  0.00  0.00    +0.000 C 
ATOM     15  O   UNL     1       1.405   2.827  22.171  0.00  0.00    +0.000 OA
ATOM     16  N   UNL     1       2.473   4.722  21.325  0.00  0.00    +0.000 N 
ATOM     17  H   UNL     1       2.806   5.046  22.226  0.00  0.00    +0.000 HD
ENDBRANCH  11  12
ENDBRANCH   4  11
TORSDOF 4
ENDMDL
MODEL 3
REMARK VINA RESULT:      -6.2      1.069      1.139
REMARK  Name = 
REMARK  6 active torsions:
REMARK  status: ('A' for Active; 'I' for Inactive)
REMARK    1  A    between atoms: C_1  and  O_2
REMARK    2  A    between atoms: O_2  and  C_3
REMARK    3  A    between atoms: C_6  and  S_7
REMARK    4  A    between atoms: S_7  and  C_8
REMARK    5  A    between atoms: C_14  and  O_15
REMARK    6  A    between atoms: O_15  and  C_16
REMARK                            x       y       z     vdW  Elec       q    Type
REMARK                         _______ _______ _______ _____ _____    ______ ____
ROOT
ATOM      1  C   UNL     1       6.692   6.023  17.000  0.00  0.00    +0.000 A 
ATOM      2  C   UNL     1       6.233   5.865  18.318  0.00  0.00    +0.000 A 
ATOM      3  C   UNL     1       5.261   4.917  18.636  0.00  0.00    +0.000 A 
ATOM      4  C   UNL     1       4.683   4.132  17.638  0.00  0.00    +0.000 A 
ATOM      5  C   UNL     1       5.054   4.371  16.310  0.00  0.00    +0.000 A 
ATOM      6  C   UNL     1       6.051   5.310  15.975  0.00  0.00    +0.000 A 
ENDROOT
BRANCH   1   8
ATOM      7  C   UNL     1       7.795   8.043  17.542  0.00  0.00    +0.000 C 
ATOM      8  O   UNL     1       7.718   6.880  16.714  0.00  0.00    +0.000 OA
ENDBRANCH   1   8
BRANCH   6   9
ATOM      9  O   UNL     1       6.254   5.380  14.622  0.00  0.00    +0.000 OA
ATOM     10  C   UNL     1       6.373   4.185  13.865  0.00  0.00    +0.000 C 
ENDBRANCH   6   9
BRANCH   4  11
ATOM     11  S   UNL     1       3.398   2.981  18.087  0.00  0.00    +0.000 S 
BRANCH  11  12
ATOM     12  C   UNL     1       2.954   3.577  19.749  0.00  0.00    +0.000 C 
ATOM     13  C   UNL     1       3.403   2.583  20.851  0.00  0.00    +0.000 C 
ATOM     14  C   UNL     1       1.931   2.658  21.287  0.00  0.00    +0.000 C 
ATOM     15  O   UNL     1       1.277   2.444  22.274  0.00  0.00    +0.000 OA
ATOM     16  N   UNL     1       1.578   3.210  20.091  0.00  0.00    +0.000 N 
ATOM     17  H   UNL     1       0.758   3.804  20.090  0.00  0.00    +0.000 HD
ENDBRANCH  11  12
ENDBRANCH   4  11
TORSDOF 4
ENDMDL
MODEL 4
REMARK VINA RESULT:      -6.1      2.337      5.667
REMARK  Name = 
REMARK  6 active torsions:
REMARK  status: ('A' for Active; 'I' for Inactive)
REMARK    1  A    between atoms: C_1  and  O_2
REMARK    2  A    between atoms: O_2  and  C_3
REMARK    3  A    between atoms: C_6  and  S_7
REMARK    4  A    between atoms: S_7  and  C_8
REMARK    5  A    between atoms: C_14  and  O_15
REMARK    6  A    between atoms: O_15  and  C_16
REMARK                            x       y       z     vdW  Elec       q    Type
REMARK                         _______ _______ _______ _____ _____    ______ ____
ROOT
ATOM      1  C   UNL     1       1.825   4.176  19.712  0.00  0.00    +0.000 A 
ATOM      2  C   UNL     1       2.150   5.497  20.057  0.00  0.00    +0.000 A 
ATOM      3  C   UNL     1       2.953   6.282  19.229  0.00  0.00    +0.000 A 
ATOM      4  C   UNL     1       3.495   5.753  18.058  0.00  0.00    +0.000 A 
ATOM      5  C   UNL     1       3.268   4.402  17.775  0.00  0.00    +0.000 A 
ATOM      6  C   UNL     1       2.440   3.601  18.589  0.00  0.00    +0.000 A 
ENDROOT
BRANCH   1   8
ATOM      7  C   UNL     1       1.539   2.748  21.576  0.00  0.00    +0.000 C 
ATOM      8  O   UNL     1       0.954   3.448  20.475  0.00  0.00    +0.000 OA
ENDBRANCH   1   8
BRANCH   6   9
ATOM      9  O   UNL     1       2.358   2.314  18.128  0.00  0.00    +0.000 OA
ATOM     10  C   UNL     1       3.382   1.384  18.449  0.00  0.00    +0.000 C 
ENDBRANCH   6   9
BRANCH   4  11
ATOM     11  S   UNL     1       4.567   6.777  17.069  0.00  0.00    +0.000 S 
BRANCH  11  12
ATOM     12  C   UNL     1       6.180   6.464  17.854  0.00  0.00    +0.000 C 
ATOM     13  C   UNL     1       7.279   6.169  16.803  0.00  0.00    +0.000 C 
ATOM     14  C   UNL     1       7.508   4.900  17.639  0.00  0.00    +0.000 C 
ATOM     15  O   UNL     1       8.381   4.092  17.822  0.00  0.00    +0.000 OA
ATOM     16  N   UNL     1       6.305   5.063  18.261  0.00  0.00    +0.000 N 
ATOM     17  H   UNL     1       6.221   4.676  19.194  0.00  0.00    +0.000 HD
ENDBRANCH  11  12
ENDBRANCH   4  11
TORSDOF 4
ENDMDL
MODEL 5
REMARK VINA RESULT:      -6.1      1.005      1.017
REMARK  Name = 
REMARK  6 active torsions:
REMARK  status: ('A' for Active; 'I' for Inactive)
REMARK    1  A    between atoms: C_1  and  O_2
REMARK    2  A    between atoms: O_2  and  C_3
REMARK    3  A    between atoms: C_6  and  S_7
REMARK    4  A    between atoms: S_7  and  C_8
REMARK    5  A    between atoms: C_14  and  O_15
REMARK    6  A    between atoms: O_15  and  C_16
REMARK                            x       y       z     vdW  Elec       q    Type
REMARK                         _______ _______ _______ _____ _____    ______ ____
ROOT
ATOM      1  C   UNL     1       6.121   5.342  17.831  0.00  0.00    +0.000 A 
ATOM      2  C   UNL     1       5.180   5.918  18.700  0.00  0.00    +0.000 A 
ATOM      3  C   UNL     1       3.844   5.516  18.686  0.00  0.00    +0.000 A 
ATOM      4  C   UNL     1       3.400   4.563  17.770  0.00  0.00    +0.000 A 
ATOM      5  C   UNL     1       4.311   4.076  16.827  0.00  0.00    +0.000 A 
ATOM      6  C   UNL     1       5.669   4.455  16.841  0.00  0.00    +0.000 A 
ENDROOT
BRANCH   1   8
ATOM      7  C   UNL     1       7.737   7.065  17.950  0.00  0.00    +0.000 C 
ATOM      8  O   UNL     1       7.446   5.665  17.920  0.00  0.00    +0.000 OA
ENDBRANCH   1   8
BRANCH   6   9
ATOM      9  O   UNL     1       6.378   3.859  15.832  0.00  0.00    +0.000 OA
ATOM     10  C   UNL     1       5.939   3.995  14.488  0.00  0.00    +0.000 C 
ENDBRANCH   6   9
BRANCH   4  11
ATOM     11  S   UNL     1       1.671   4.131  17.751  0.00  0.00    +0.000 S 
BRANCH  11  12
ATOM     12  C   UNL     1       1.611   2.847  19.041  0.00  0.00    +0.000 C 
ATOM     13  C   UNL     1       1.059   3.405  20.377  0.00  0.00    +0.000 C 
ATOM     14  C   UNL     1       2.356   2.827  20.964  0.00  0.00    +0.000 C 
ATOM     15  O   UNL     1       2.777   2.479  22.037  0.00  0.00    +0.000 OA
ATOM     16  N   UNL     1       2.903   2.721  19.719  0.00  0.00    +0.000 N 
ATOM     17  H   UNL     1       3.605   2.002  19.592  0.00  0.00    +0.000 HD
ENDBRANCH  11  12
ENDBRANCH   4  11
TORSDOF 4
ENDMDL
MODEL 6
REMARK VINA RESULT:      -6.1      1.600      2.237
REMARK  Name = 
REMARK  6 active torsions:
REMARK  status: ('A' for Active; 'I' for Inactive)
REMARK    1  A    between atoms: C_1  and  O_2
REMARK    2  A    between atoms: O_2  and  C_3
REMARK    3  A    between atoms: C_6  and  S_7
REMARK    4  A    between atoms: S_7  and  C_8
REMARK    5  A    between atoms: C_14  and  O_15
REMARK    6  A    between atoms: O_15  and  C_16
REMARK                            x       y       z     vdW  Elec       q    Type
REMARK                         _______ _______ _______ _____ _____    ______ ____
ROOT
ATOM      1  C   UNL     1       6.654   6.173  17.052  0.00  0.00    +0.000 A 
ATOM      2  C   UNL     1       5.442   6.282  16.353  0.00  0.00    +0.000 A 
ATOM      3  C   UNL     1       4.335   5.507  16.701  0.00  0.00    +0.000 A 
ATOM      4  C   UNL     1       4.424   4.566  17.727  0.00  0.00    +0.000 A 
ATOM      5  C   UNL     1       5.664   4.374  18.344  0.00  0.00    +0.000 A 
ATOM      6  C   UNL     1       6.785   5.164  18.020  0.00  0.00    +0.000 A 
ENDROOT
BRANCH   1   8
ATOM      7  C   UNL     1       7.764   8.198  17.565  0.00  0.00    +0.000 C 
ATOM      8  O   UNL     1       7.700   7.008  16.774  0.00  0.00    +0.000 OA
ENDBRANCH   1   8
BRANCH   6   9
ATOM      9  O   UNL     1       7.892   4.807  18.744  0.00  0.00    +0.000 OA
ATOM     10  C   UNL     1       8.177   5.469  19.967  0.00  0.00    +0.000 C 
ENDBRANCH   6   9
BRANCH   4  11
ATOM     11  S   UNL     1       3.000   3.555  18.090  0.00  0.00    +0.000 S 
BRANCH  11  12
ATOM     12  C   UNL     1       2.781   3.877  19.868  0.00  0.00    +0.000 C 
ATOM     13  C   UNL     1       3.250   2.677  20.728  0.00  0.00    +0.000 C 
ATOM     14  C   UNL     1       1.842   2.774  21.337  0.00  0.00    +0.000 C 
ATOM     15  O   UNL     1       1.276   2.435  22.343  0.00  0.00    +0.000 OA
ATOM     16  N   UNL     1       1.420   3.552  20.299  0.00  0.00    +0.000 N 
ATOM     17  H   UNL     1       0.659   4.192  20.493  0.00  0.00    +0.000 HD
ENDBRANCH  11  12
ENDBRANCH   4  11
TORSDOF 4
ENDMDL
MODEL 7
REMARK VINA RESULT:      -6.0      2.765      5.684
REMARK  Name = 
REMARK  6 active torsions:
REMARK  status: ('A' for Active; 'I' for Inactive)
REMARK    1  A    between atoms: C_1  and  O_2
REMARK    2  A    between atoms: O_2  and  C_3
REMARK    3  A    between atoms: C_6  and  S_7
REMARK    4  A    between atoms: S_7  and  C_8
REMARK    5  A    between atoms: C_14  and  O_15
REMARK    6  A    between atoms: O_15  and  C_16
REMARK                            x       y       z     vdW  Elec       q    Type
REMARK                         _______ _______ _______ _____ _____    ______ ____
ROOT
ATOM      1  C   UNL     1       2.457   4.861  19.054  0.00  0.00    +0.000 A 
ATOM      2  C   UNL     1       2.826   3.643  18.462  0.00  0.00    +0.000 A 
ATOM      3  C   UNL     1       3.775   3.596  17.440  0.00  0.00    +0.000 A 
ATOM      4  C   UNL     1       4.345   4.769  16.947  0.00  0.00    +0.000 A 
ATOM      5  C   UNL     1       3.891   5.990  17.455  0.00  0.00    +0.000 A 
ATOM      6  C   UNL     1       2.949   6.055  18.503  0.00  0.00    +0.000 A 
ENDROOT
BRANCH   1   8
ATOM      7  C   UNL     1       0.966   3.649  20.433  0.00  0.00    +0.000 C 
ATOM      8  O   UNL     1       1.606   4.890  20.124  0.00  0.00    +0.000 OA
ENDBRANCH   1   8
BRANCH   6   9
ATOM      9  O   UNL     1       2.648   7.347  18.843  0.00  0.00    +0.000 OA
ATOM     10  C   UNL     1       2.408   8.306  17.823  0.00  0.00    +0.000 C 
ENDBRANCH   6   9
BRANCH   4  11
ATOM     11  S   UNL     1       5.504   4.659  15.597  0.00  0.00    +0.000 S 
BRANCH  11  12
ATOM     12  C   UNL     1       7.083   4.933  16.462  0.00  0.00    +0.000 C 
ATOM     13  C   UNL     1       6.903   4.908  18.000  0.00  0.00    +0.000 C 
ATOM     14  C   UNL     1       7.600   6.277  17.939  0.00  0.00    +0.000 C 
ATOM     15  O   UNL     1       8.212   7.004  18.677  0.00  0.00    +0.000 OA
ATOM     16  N   UNL     1       7.367   6.363  16.598  0.00  0.00    +0.000 N 
ATOM     17  H   UNL     1       8.020   6.922  16.060  0.00  0.00    +0.000 HD
ENDBRANCH  11  12
ENDBRANCH   4  11
TORSDOF 4
ENDMDL
MODEL 8
REMARK VINA RESULT:      -5.9      2.877      6.187
REMARK  Name = 
REMARK  6 active torsions:
REMARK  status: ('A' for Active; 'I' for Inactive)
REMARK    1  A    between atoms: C_1  and  O_2
REMARK    2  A    between atoms: O_2  and  C_3
REMARK    3  A    between atoms: C_6  and  S_7
REMARK    4  A    between atoms: S_7  and  C_8
REMARK    5  A    between atoms: C_14  and  O_15
REMARK    6  A    between atoms: O_15  and  C_16
REMARK                            x       y       z     vdW  Elec       q    Type
REMARK                         _______ _______ _______ _____ _____    ______ ____
ROOT
ATOM      1  C   UNL     1       3.087   4.447  20.046  0.00  0.00    +0.000 A 
ATOM      2  C   UNL     1       3.955   3.377  19.773  0.00  0.00    +0.000 A 
ATOM      3  C   UNL     1       5.155   3.578  19.090  0.00  0.00    +0.000 A 
ATOM      4  C   UNL     1       5.497   4.844  18.616  0.00  0.00    +0.000 A 
ATOM      5  C   UNL     1       4.579   5.885  18.784  0.00  0.00    +0.000 A 
ATOM      6  C   UNL     1       3.373   5.704  19.492  0.00  0.00    +0.000 A 
ENDROOT
BRANCH   1   8
ATOM      7  C   UNL     1       0.858   3.661  20.130  0.00  0.00    +0.000 C 
ATOM      8  O   UNL     1       1.966   4.262  20.806  0.00  0.00    +0.000 OA
ENDBRANCH   1   8
BRANCH   6   9
ATOM      9  O   UNL     1       2.627   6.852  19.535  0.00  0.00    +0.000 OA
ATOM     10  C   UNL     1       2.494   7.650  18.367  0.00  0.00    +0.000 C 
ENDBRANCH   6   9
BRANCH   4  11
ATOM     11  S   UNL     1       7.010   5.034  17.692  0.00  0.00    +0.000 S 
BRANCH  11  12
ATOM     12  C   UNL     1       6.366   5.395  16.028  0.00  0.00    +0.000 C 
ATOM     13  C   UNL     1       5.583   4.192  15.446  0.00  0.00    +0.000 C 
ATOM     14  C   UNL     1       6.541   4.355  14.255  0.00  0.00    +0.000 C 
ATOM     15  O   UNL     1       6.582   4.055  13.090  0.00  0.00    +0.000 OA
ATOM     16  N   UNL     1       7.377   5.130  15.002  0.00  0.00    +0.000 N 
ATOM     17  H   UNL     1       7.943   5.803  14.498  0.00  0.00    +0.000 HD
ENDBRANCH  11  12
ENDBRANCH   4  11
TORSDOF 4
ENDMDL
MODEL 9
REMARK VINA RESULT:      -5.9      2.602      6.200
REMARK  Name = 
REMARK  6 active torsions:
REMARK  status: ('A' for Active; 'I' for Inactive)
REMARK    1  A    between atoms: C_1  and  O_2
REMARK    2  A    between atoms: O_2  and  C_3
REMARK    3  A    between atoms: C_6  and  S_7
REMARK    4  A    between atoms: S_7  and  C_8
REMARK    5  A    between atoms: C_14  and  O_15
REMARK    6  A    between atoms: O_15  and  C_16
REMARK                            x       y       z     vdW  Elec       q    Type
REMARK                         _______ _______ _______ _____ _____    ______ ____
ROOT
ATOM      1  C   UNL     1       1.999   6.045  20.157  0.00  0.00    +0.000 A 
ATOM      2  C   UNL     1       3.006   6.650  19.388  0.00  0.00    +0.000 A 
ATOM      3  C   UNL     1       3.674   5.942  18.388  0.00  0.00    +0.000 A 
ATOM      4  C   UNL     1       3.389   4.595  18.163  0.00  0.00    +0.000 A 
ATOM      5  C   UNL     1       2.472   3.961  19.007  0.00  0.00    +0.000 A 
ATOM      6  C   UNL     1       1.772   4.668  20.007  0.00  0.00    +0.000 A 
ENDROOT
BRANCH   1   8
ATOM      7  C   UNL     1       1.366   8.193  20.919  0.00  0.00    +0.000 C 
ATOM      8  O   UNL     1       1.278   6.772  21.063  0.00  0.00    +0.000 OA
ENDBRANCH   1   8
BRANCH   6   9
ATOM      9  O   UNL     1       0.927   3.853  20.714  0.00  0.00    +0.000 OA
ATOM     10  C   UNL     1       1.460   2.795  21.497  0.00  0.00    +0.000 C 
ENDBRANCH   6   9
BRANCH   4  11
ATOM     11  S   UNL     1       4.317   3.719  16.917  0.00  0.00    +0.000 S 
BRANCH  11  12
ATOM     12  C   UNL     1       5.662   4.899  16.581  0.00  0.00    +0.000 C 
ATOM     13  C   UNL     1       5.486   5.588  15.205  0.00  0.00    +0.000 C 
ATOM     14  C   UNL     1       6.919   5.091  14.957  0.00  0.00    +0.000 C 
ATOM     15  O   UNL     1       7.849   5.356  14.240  0.00  0.00    +0.000 OA
ATOM     16  N   UNL     1       6.825   4.223  16.005  0.00  0.00    +0.000 N 
ATOM     17  H   UNL     1       7.692   3.974  16.466  0.00  0.00    +0.000 HD
ENDBRANCH  11  12
ENDBRANCH   4  11
TORSDOF 4
ENDMDL
