MODEL 1
REMARK VINA RESULT:      -7.0      0.000      0.000
REMARK  Name = 
REMARK  3 active torsions:
REMARK  status: ('A' for Active; 'I' for Inactive)
REMARK    1  A    between atoms: C_1  and  N_2
REMARK    2  A    between atoms: C_9  and  C_11
REMARK    3  A    between atoms: C_21  and  O_22
REMARK                            x       y       z     vdW  Elec       q    Type
REMARK                         _______ _______ _______ _____ _____    ______ ____
ROOT
ATOM      1  C   UNL     1      -4.374  11.649  19.079  0.00  0.00    +0.000 C 
ATOM      2  N   UNL     1      -3.213  12.373  19.529  0.00  0.00    +0.000 N 
ATOM      3  C   UNL     1      -1.928  12.271  18.905  0.00  0.00    +0.000 C 
ATOM      4  C   UNL     1      -1.058  13.007  19.919  0.00  0.00    +0.000 C 
ATOM      5  C   UNL     1       0.069  13.841  19.288  0.00  0.00    +0.000 C 
ATOM      6  C   UNL     1       1.204  12.971  18.747  0.00  0.00    +0.000 C 
ATOM      7  C   UNL     1       1.713  12.008  19.826  0.00  0.00    +0.000 C 
ATOM      8  N   UNL     1       0.595  11.207  20.330  0.00  0.00    +0.000 N 
ATOM      9  C   UNL     1       0.346   9.843  20.116  0.00  0.00    +0.000 C 
ATOM     10  O   UNL     1      -0.702   9.312  20.482  0.00  0.00    +0.000 OA
ATOM     11  C   UNL     1      -0.466  12.021  20.951  0.00  0.00    +0.000 C 
ATOM     12  O   UNL     1      -1.977  13.914  20.567  0.00  0.00    +0.000 OA
ATOM     13  C   UNL     1      -3.252  13.449  20.377  0.00  0.00    +0.000 C 
ATOM     14  O   UNL     1      -4.240  13.952  20.882  0.00  0.00    +0.000 OA
ENDROOT
BRANCH   9  15
ATOM     15  C   UNL     1       1.317   9.000  19.376  0.00  0.00    +0.000 A 
ATOM     16  C   UNL     1       1.631   9.293  18.064  0.00  0.00    +0.000 A 
ATOM     17  N   UNL     1       2.560   8.642  17.331  0.00  0.00    +0.000 NA
ATOM     18  C   UNL     1       3.153   7.573  17.875  0.00  0.00    +0.000 A 
ATOM     19  C   UNL     1       4.136   6.943  17.126  0.00  0.00    +0.000 A 
ATOM     20  C   UNL     1       4.776   5.790  17.577  0.00  0.00    +0.000 A 
ATOM     21  C   UNL     1       4.405   5.256  18.795  0.00  0.00    +0.000 A 
ATOM     22  F   UNL     1       4.985   4.130  19.228  0.00  0.00    +0.000 F 
ATOM     23  C   UNL     1       3.441   5.878  19.586  0.00  0.00    +0.000 A 
ATOM     24  C   UNL     1       2.819   7.075  19.156  0.00  0.00    +0.000 A 
ATOM     25  C   UNL     1       1.883   7.838  19.910  0.00  0.00    +0.000 A 
BRANCH  25  26
ATOM     26  O   UNL     1       1.540   7.482  21.189  0.00  0.00    +0.000 OA
ATOM     27  H   UNL     1       0.585   7.373  21.291  0.00  0.00    +0.000 HD
ENDBRANCH  25  26
ENDBRANCH   9  15
TORSDOF 2
ENDMDL
MODEL 2
REMARK VINA RESULT:      -6.8      2.332      3.589
REMARK  Name = 
REMARK  3 active torsions:
REMARK  status: ('A' for Active; 'I' for Inactive)
REMARK    1  A    between atoms: C_1  and  N_2
REMARK    2  A    between atoms: C_9  and  C_11
REMARK    3  A    between atoms: C_21  and  O_22
REMARK                            x       y       z     vdW  Elec       q    Type
REMARK                         _______ _______ _______ _____ _____    ______ ____
ROOT
ATOM      1  C   UNL     1       3.435  14.759  19.772  0.00  0.00    +0.000 C 
ATOM      2  N   UNL     1       2.055  14.348  19.742  0.00  0.00    +0.000 N 
ATOM      3  C   UNL     1       1.565  13.178  20.406  0.00  0.00    +0.000 C 
ATOM      4  C   UNL     1       0.155  13.092  19.832  0.00  0.00    +0.000 C 
ATOM      5  C   UNL     1      -0.901  12.603  20.837  0.00  0.00    +0.000 C 
ATOM      6  C   UNL     1      -0.784  11.105  21.123  0.00  0.00    +0.000 C 
ATOM      7  C   UNL     1      -0.792  10.301  19.817  0.00  0.00    +0.000 C 
ATOM      8  N   UNL     1       0.280  10.782  18.942  0.00  0.00    +0.000 N 
ATOM      9  C   UNL     1       1.476  10.131  18.604  0.00  0.00    +0.000 C 
ATOM     10  O   UNL     1       2.362  10.698  17.965  0.00  0.00    +0.000 OA
ATOM     11  C   UNL     1       0.129  12.201  18.570  0.00  0.00    +0.000 C 
ATOM     12  O   UNL     1      -0.159  14.458  19.484  0.00  0.00    +0.000 OA
ATOM     13  C   UNL     1       1.014  15.155  19.360  0.00  0.00    +0.000 C 
ATOM     14  O   UNL     1       1.081  16.313  18.984  0.00  0.00    +0.000 OA
ENDROOT
BRANCH   9  15
ATOM     15  C   UNL     1       1.745   8.748  19.067  0.00  0.00    +0.000 A 
ATOM     16  C   UNL     1       1.454   8.382  20.366  0.00  0.00    +0.000 A 
ATOM     17  N   UNL     1       1.583   7.132  20.861  0.00  0.00    +0.000 NA
ATOM     18  C   UNL     1       2.121   6.196  20.071  0.00  0.00    +0.000 A 
ATOM     19  C   UNL     1       2.205   4.908  20.579  0.00  0.00    +0.000 A 
ATOM     20  C   UNL     1       2.797   3.872  19.859  0.00  0.00    +0.000 A 
ATOM     21  C   UNL     1       3.330   4.146  18.615  0.00  0.00    +0.000 A 
ATOM     22  F   UNL     1       3.933   3.171  17.924  0.00  0.00    +0.000 F 
ATOM     23  C   UNL     1       3.239   5.422  18.062  0.00  0.00    +0.000 A 
ATOM     24  C   UNL     1       2.598   6.468  18.768  0.00  0.00    +0.000 A 
ATOM     25  C   UNL     1       2.376   7.785  18.272  0.00  0.00    +0.000 A 
BRANCH  25  26
ATOM     26  O   UNL     1       2.737   8.137  16.998  0.00  0.00    +0.000 OA
ATOM     27  H   UNL     1       2.906   9.086  16.918  0.00  0.00    +0.000 HD
ENDBRANCH  25  26
ENDBRANCH   9  15
TORSDOF 2
ENDMDL
MODEL 3
REMARK VINA RESULT:      -6.8      3.057      4.255
REMARK  Name = 
REMARK  3 active torsions:
REMARK  status: ('A' for Active; 'I' for Inactive)
REMARK    1  A    between atoms: C_1  and  N_2
REMARK    2  A    between atoms: C_9  and  C_11
REMARK    3  A    between atoms: C_21  and  O_22
REMARK                            x       y       z     vdW  Elec       q    Type
REMARK                         _______ _______ _______ _____ _____    ______ ____
ROOT
ATOM      1  C   UNL     1      -6.061  14.666  23.093  0.00  0.00    +0.000 C 
ATOM      2  N   UNL     1      -4.751  15.231  23.291  0.00  0.00    +0.000 N 
ATOM      3  C   UNL     1      -3.678  15.083  22.353  0.00  0.00    +0.000 C 
ATOM      4  C   UNL     1      -2.509  15.625  23.169  0.00  0.00    +0.000 C 
ATOM      5  C   UNL     1      -1.484  16.420  22.343  0.00  0.00    +0.000 C 
ATOM      6  C   UNL     1      -0.621  15.516  21.460  0.00  0.00    +0.000 C 
ATOM      7  C   UNL     1       0.025  14.400  22.291  0.00  0.00    +0.000 C 
ATOM      8  N   UNL     1      -1.019  13.652  22.996  0.00  0.00    +0.000 N 
ATOM      9  C   UNL     1      -1.466  12.347  22.741  0.00  0.00    +0.000 C 
ATOM     10  O   UNL     1      -2.446  11.875  23.317  0.00  0.00    +0.000 OA
ATOM     11  C   UNL     1      -1.797  14.485  23.932  0.00  0.00    +0.000 C 
ATOM     12  O   UNL     1      -3.132  16.535  24.102  0.00  0.00    +0.000 OA
ATOM     13  C   UNL     1      -4.459  16.209  24.206  0.00  0.00    +0.000 C 
ATOM     14  O   UNL     1      -5.230  16.740  24.986  0.00  0.00    +0.000 OA
ENDROOT
BRANCH   9  15
ATOM     15  C   UNL     1      -0.808  11.506  21.711  0.00  0.00    +0.000 A 
ATOM     16  C   UNL     1      -0.955  11.807  20.372  0.00  0.00    +0.000 A 
ATOM     17  N   UNL     1      -0.333  11.158  19.364  0.00  0.00    +0.000 NA
ATOM     18  C   UNL     1       0.404  10.084  19.669  0.00  0.00    +0.000 A 
ATOM     19  C   UNL     1       1.071   9.455  18.628  0.00  0.00    +0.000 A 
ATOM     20  C   UNL     1       1.821   8.298  18.829  0.00  0.00    +0.000 A 
ATOM     21  C   UNL     1       1.882   7.757  20.098  0.00  0.00    +0.000 A 
ATOM     22  F   UNL     1       2.569   6.626  20.303  0.00  0.00    +0.000 F 
ATOM     23  C   UNL     1       1.247   8.376  21.172  0.00  0.00    +0.000 A 
ATOM     24  C   UNL     1       0.521   9.578  20.985  0.00  0.00    +0.000 A 
ATOM     25  C   UNL     1      -0.099  10.338  22.016  0.00  0.00    +0.000 A 
BRANCH  25  26
ATOM     26  O   UNL     1       0.009   9.976  23.333  0.00  0.00    +0.000 OA
ATOM     27  H   UNL     1      -0.759   9.473  23.636  0.00  0.00    +0.000 HD
ENDBRANCH  25  26
ENDBRANCH   9  15
TORSDOF 2
ENDMDL
MODEL 4
REMARK VINA RESULT:      -6.7      1.688      2.454
REMARK  Name = 
REMARK  3 active torsions:
REMARK  status: ('A' for Active; 'I' for Inactive)
REMARK    1  A    between atoms: C_1  and  N_2
REMARK    2  A    between atoms: C_9  and  C_11
REMARK    3  A    between atoms: C_21  and  O_22
REMARK                            x       y       z     vdW  Elec       q    Type
REMARK                         _______ _______ _______ _____ _____    ______ ____
ROOT
ATOM      1  C   UNL     1      -1.809  13.271  23.517  0.00  0.00    +0.000 C 
ATOM      2  N   UNL     1      -2.206  13.283  22.134  0.00  0.00    +0.000 N 
ATOM      3  C   UNL     1      -2.219  12.114  21.306  0.00  0.00    +0.000 C 
ATOM      4  C   UNL     1      -2.450  12.738  19.933  0.00  0.00    +0.000 C 
ATOM      5  C   UNL     1      -3.347  11.900  19.008  0.00  0.00    +0.000 C 
ATOM      6  C   UNL     1      -2.631  10.659  18.470  0.00  0.00    +0.000 C 
ATOM      7  C   UNL     1      -1.297  11.042  17.816  0.00  0.00    +0.000 C 
ATOM      8  N   UNL     1      -0.477  11.780  18.779  0.00  0.00    +0.000 N 
ATOM      9  C   UNL     1       0.686  11.345  19.433  0.00  0.00    +0.000 C 
ATOM     10  O   UNL     1       1.212  12.009  20.325  0.00  0.00    +0.000 OA
ATOM     11  C   UNL     1      -1.105  13.034  19.232  0.00  0.00    +0.000 C 
ATOM     12  O   UNL     1      -3.140  13.972  20.227  0.00  0.00    +0.000 OA
ATOM     13  C   UNL     1      -2.899  14.303  21.535  0.00  0.00    +0.000 C 
ATOM     14  O   UNL     1      -3.274  15.341  22.053  0.00  0.00    +0.000 OA
ENDROOT
BRANCH   9  15
ATOM     15  C   UNL     1       1.288  10.027  19.116  0.00  0.00    +0.000 A 
ATOM     16  C   UNL     1       1.835   9.796  17.870  0.00  0.00    +0.000 A 
ATOM     17  N   UNL     1       2.479   8.665  17.510  0.00  0.00    +0.000 NA
ATOM     18  C   UNL     1       2.509   7.653  18.384  0.00  0.00    +0.000 A 
ATOM     19  C   UNL     1       3.211   6.515  18.015  0.00  0.00    +0.000 A 
ATOM     20  C   UNL     1       3.258   5.385  18.829  0.00  0.00    +0.000 A 
ATOM     21  C   UNL     1       2.569   5.398  20.026  0.00  0.00    +0.000 A 
ATOM     22  F   UNL     1       2.575   4.309  20.805  0.00  0.00    +0.000 F 
ATOM     23  C   UNL     1       1.875   6.533  20.440  0.00  0.00    +0.000 A 
ATOM     24  C   UNL     1       1.861   7.701  19.640  0.00  0.00    +0.000 A 
ATOM     25  C   UNL     1       1.255   8.940  19.996  0.00  0.00    +0.000 A 
BRANCH  25  26
ATOM     26  O   UNL     1       0.660   9.117  21.218  0.00  0.00    +0.000 OA
ATOM     27  H   UNL     1      -0.188   8.657  21.279  0.00  0.00    +0.000 HD
ENDBRANCH  25  26
ENDBRANCH   9  15
TORSDOF 2
ENDMDL
MODEL 5
REMARK VINA RESULT:      -6.7      6.280      8.323
REMARK  Name = 
REMARK  3 active torsions:
REMARK  status: ('A' for Active; 'I' for Inactive)
REMARK    1  A    between atoms: C_1  and  N_2
REMARK    2  A    between atoms: C_9  and  C_11
REMARK    3  A    between atoms: C_21  and  O_22
REMARK                            x       y       z     vdW  Elec       q    Type
REMARK                         _______ _______ _______ _____ _____    ______ ____
ROOT
ATOM      1  C   UNL     1       2.387   1.144  20.498  0.00  0.00    +0.000 C 
ATOM      2  N   UNL     1       2.253   2.577  20.458  0.00  0.00    +0.000 N 
ATOM      3  C   UNL     1       2.314   3.342  19.248  0.00  0.00    +0.000 C 
ATOM      4  C   UNL     1       2.384   4.758  19.809  0.00  0.00    +0.000 C 
ATOM      5  C   UNL     1       1.618   5.799  18.976  0.00  0.00    +0.000 C 
ATOM      6  C   UNL     1       2.333   6.140  17.668  0.00  0.00    +0.000 C 
ATOM      7  C   UNL     1       3.788   6.548  17.934  0.00  0.00    +0.000 C 
ATOM      8  N   UNL     1       4.465   5.480  18.673  0.00  0.00    +0.000 N 
ATOM      9  C   UNL     1       5.454   4.601  18.206  0.00  0.00    +0.000 C 
ATOM     10  O   UNL     1       5.851   3.655  18.885  0.00  0.00    +0.000 OA
ATOM     11  C   UNL     1       3.852   5.206  19.986  0.00  0.00    +0.000 C 
ATOM     12  O   UNL     1       1.737   4.652  21.096  0.00  0.00    +0.000 OA
ATOM     13  C   UNL     1       1.755   3.337  21.483  0.00  0.00    +0.000 C 
ATOM     14  O   UNL     1       1.364   2.944  22.568  0.00  0.00    +0.000 OA
ENDROOT
BRANCH   9  15
ATOM     15  C   UNL     1       6.012   4.743  16.839  0.00  0.00    +0.000 A 
ATOM     16  C   UNL     1       6.989   5.684  16.583  0.00  0.00    +0.000 A 
ATOM     17  N   UNL     1       7.619   5.836  15.398  0.00  0.00    +0.000 NA
ATOM     18  C   UNL     1       7.206   5.092  14.366  0.00  0.00    +0.000 A 
ATOM     19  C   UNL     1       7.893   5.230  13.169  0.00  0.00    +0.000 A 
ATOM     20  C   UNL     1       7.509   4.542  12.019  0.00  0.00    +0.000 A 
ATOM     21  C   UNL     1       6.403   3.717  12.076  0.00  0.00    +0.000 A 
ATOM     22  F   UNL     1       5.999   3.074  10.972  0.00  0.00    +0.000 F 
ATOM     23  C   UNL     1       5.706   3.534  13.268  0.00  0.00    +0.000 A 
ATOM     24  C   UNL     1       6.117   4.193  14.451  0.00  0.00    +0.000 A 
ATOM     25  C   UNL     1       5.533   4.023  15.739  0.00  0.00    +0.000 A 
BRANCH  25  26
ATOM     26  O   UNL     1       4.518   3.126  15.948  0.00  0.00    +0.000 OA
ATOM     27  H   UNL     1       4.230   3.113  16.871  0.00  0.00    +0.000 HD
ENDBRANCH  25  26
ENDBRANCH   9  15
TORSDOF 2
ENDMDL
MODEL 6
REMARK VINA RESULT:      -6.6      2.343      3.586
REMARK  Name = 
REMARK  3 active torsions:
REMARK  status: ('A' for Active; 'I' for Inactive)
REMARK    1  A    between atoms: C_1  and  N_2
REMARK    2  A    between atoms: C_9  and  C_11
REMARK    3  A    between atoms: C_21  and  O_22
REMARK                            x       y       z     vdW  Elec       q    Type
REMARK                         _______ _______ _______ _____ _____    ______ ____
ROOT
ATOM      1  C   UNL     1       1.639  16.136  21.863  0.00  0.00    +0.000 C 
ATOM      2  N   UNL     1       0.462  15.664  21.180  0.00  0.00    +0.000 N 
ATOM      3  C   UNL     1      -0.093  14.358  21.375  0.00  0.00    +0.000 C 
ATOM      4  C   UNL     1      -1.119  14.311  20.248  0.00  0.00    +0.000 C 
ATOM      5  C   UNL     1      -2.416  13.572  20.612  0.00  0.00    +0.000 C 
ATOM      6  C   UNL     1      -2.224  12.056  20.678  0.00  0.00    +0.000 C 
ATOM      7  C   UNL     1      -1.587  11.532  19.385  0.00  0.00    +0.000 C 
ATOM      8  N   UNL     1      -0.327  12.240  19.142  0.00  0.00    +0.000 N 
ATOM      9  C   UNL     1       0.979  11.738  19.249  0.00  0.00    +0.000 C 
ATOM     10  O   UNL     1       1.963  12.470  19.149  0.00  0.00    +0.000 OA
ATOM     11  C   UNL     1      -0.504  13.694  18.972  0.00  0.00    +0.000 C 
ATOM     12  O   UNL     1      -1.445  15.700  20.021  0.00  0.00    +0.000 OA
ATOM     13  C   UNL     1      -0.430  16.472  20.524  0.00  0.00    +0.000 C 
ATOM     14  O   UNL     1      -0.374  17.683  20.402  0.00  0.00    +0.000 OA
ENDROOT
BRANCH   9  15
ATOM     15  C   UNL     1       1.220  10.306  19.555  0.00  0.00    +0.000 A 
ATOM     16  C   UNL     1       1.036   9.831  20.838  0.00  0.00    +0.000 A 
ATOM     17  N   UNL     1       1.147   8.535  21.202  0.00  0.00    +0.000 NA
ATOM     18  C   UNL     1       1.560   7.657  20.281  0.00  0.00    +0.000 A 
ATOM     19  C   UNL     1       1.627   6.324  20.660  0.00  0.00    +0.000 A 
ATOM     20  C   UNL     1       2.095   5.338  19.793  0.00  0.00    +0.000 A 
ATOM     21  C   UNL     1       2.519   5.707  18.532  0.00  0.00    +0.000 A 
ATOM     22  F   UNL     1       3.005   4.778  17.699  0.00  0.00    +0.000 F 
ATOM     23  C   UNL     1       2.442   7.032  18.109  0.00  0.00    +0.000 A 
ATOM     24  C   UNL     1       1.924   8.033  18.967  0.00  0.00    +0.000 A 
ATOM     25  C   UNL     1       1.724   9.398  18.618  0.00  0.00    +0.000 A 
BRANCH  25  26
ATOM     26  O   UNL     1       1.979   9.855  17.351  0.00  0.00    +0.000 OA
ATOM     27  H   UNL     1       1.800   9.183  16.680  0.00  0.00    +0.000 HD
ENDBRANCH  25  26
ENDBRANCH   9  15
TORSDOF 2
ENDMDL
MODEL 7
REMARK VINA RESULT:      -6.5      1.968      2.781
REMARK  Name = 
REMARK  3 active torsions:
REMARK  status: ('A' for Active; 'I' for Inactive)
REMARK    1  A    between atoms: C_1  and  N_2
REMARK    2  A    between atoms: C_9  and  C_11
REMARK    3  A    between atoms: C_21  and  O_22
REMARK                            x       y       z     vdW  Elec       q    Type
REMARK                         _______ _______ _______ _____ _____    ______ ____
ROOT
ATOM      1  C   UNL     1      -2.075  13.480  23.216  0.00  0.00    +0.000 C 
ATOM      2  N   UNL     1      -2.367  13.301  21.817  0.00  0.00    +0.000 N 
ATOM      3  C   UNL     1      -2.354  12.026  21.165  0.00  0.00    +0.000 C 
ATOM      4  C   UNL     1      -2.462  12.450  19.704  0.00  0.00    +0.000 C 
ATOM      5  C   UNL     1      -3.313  11.506  18.839  0.00  0.00    +0.000 C 
ATOM      6  C   UNL     1      -2.598  10.187  18.541  0.00  0.00    +0.000 C 
ATOM      7  C   UNL     1      -1.208  10.444  17.946  0.00  0.00    +0.000 C 
ATOM      8  N   UNL     1      -0.439  11.296  18.856  0.00  0.00    +0.000 N 
ATOM      9  C   UNL     1       0.657  10.936  19.655  0.00  0.00    +0.000 C 
ATOM     10  O   UNL     1       1.136  11.711  20.482  0.00  0.00    +0.000 OA
ATOM     11  C   UNL     1      -1.059  12.615  19.076  0.00  0.00    +0.000 C 
ATOM     12  O   UNL     1      -3.134  13.727  19.765  0.00  0.00    +0.000 OA
ATOM     13  C   UNL     1      -2.981  14.238  21.027  0.00  0.00    +0.000 C 
ATOM     14  O   UNL     1      -3.361  15.347  21.362  0.00  0.00    +0.000 OA
ENDROOT
BRANCH   9  15
ATOM     15  C   UNL     1       1.240   9.575  19.576  0.00  0.00    +0.000 A 
ATOM     16  C   UNL     1       1.115   8.704  20.640  0.00  0.00    +0.000 A 
ATOM     17  N   UNL     1       1.535   7.420  20.638  0.00  0.00    +0.000 NA
ATOM     18  C   UNL     1       2.208   6.981  19.569  0.00  0.00    +0.000 A 
ATOM     19  C   UNL     1       2.594   5.649  19.564  0.00  0.00    +0.000 A 
ATOM     20  C   UNL     1       3.346   5.106  18.523  0.00  0.00    +0.000 A 
ATOM     21  C   UNL     1       3.730   5.927  17.481  0.00  0.00    +0.000 A 
ATOM     22  F   UNL     1       4.482   5.431  16.490  0.00  0.00    +0.000 F 
ATOM     23  C   UNL     1       3.338   7.263  17.440  0.00  0.00    +0.000 A 
ATOM     24  C   UNL     1       2.535   7.811  18.470  0.00  0.00    +0.000 A 
ATOM     25  C   UNL     1       2.010   9.134  18.494  0.00  0.00    +0.000 A 
BRANCH  25  26
ATOM     26  O   UNL     1       2.208   9.999  17.450  0.00  0.00    +0.000 OA
ATOM     27  H   UNL     1       1.378  10.246  17.021  0.00  0.00    +0.000 HD
ENDBRANCH  25  26
ENDBRANCH   9  15
TORSDOF 2
ENDMDL
MODEL 8
REMARK VINA RESULT:      -6.4      2.410      3.719
REMARK  Name = 
REMARK  3 active torsions:
REMARK  status: ('A' for Active; 'I' for Inactive)
REMARK    1  A    between atoms: C_1  and  N_2
REMARK    2  A    between atoms: C_9  and  C_11
REMARK    3  A    between atoms: C_21  and  O_22
REMARK                            x       y       z     vdW  Elec       q    Type
REMARK                         _______ _______ _______ _____ _____    ______ ____
ROOT
ATOM      1  C   UNL     1       2.868  15.968  20.831  0.00  0.00    +0.000 C 
ATOM      2  N   UNL     1       1.526  15.499  21.060  0.00  0.00    +0.000 N 
ATOM      3  C   UNL     1       1.224  14.225  21.642  0.00  0.00    +0.000 C 
ATOM      4  C   UNL     1      -0.280  14.151  21.402  0.00  0.00    +0.000 C 
ATOM      5  C   UNL     1      -1.064  13.477  22.541  0.00  0.00    +0.000 C 
ATOM      6  C   UNL     1      -0.859  11.962  22.571  0.00  0.00    +0.000 C 
ATOM      7  C   UNL     1      -1.161  11.345  21.200  0.00  0.00    +0.000 C 
ATOM      8  N   UNL     1      -0.331  11.994  20.181  0.00  0.00    +0.000 N 
ATOM      9  C   UNL     1       0.762  11.455  19.487  0.00  0.00    +0.000 C 
ATOM     10  O   UNL     1       1.465  12.146  18.750  0.00  0.00    +0.000 OA
ATOM     11  C   UNL     1      -0.587  13.441  20.063  0.00  0.00    +0.000 C 
ATOM     12  O   UNL     1      -0.688  15.535  21.336  0.00  0.00    +0.000 OA
ATOM     13  C   UNL     1       0.413  16.298  21.048  0.00  0.00    +0.000 C 
ATOM     14  O   UNL     1       0.371  17.498  20.840  0.00  0.00    +0.000 OA
ENDROOT
BRANCH   9  15
ATOM     15  C   UNL     1       1.153  10.035  19.670  0.00  0.00    +0.000 A 
ATOM     16  C   UNL     1       1.108   9.460  20.924  0.00  0.00    +0.000 A 
ATOM     17  N   UNL     1       1.363   8.159  21.183  0.00  0.00    +0.000 NA
ATOM     18  C   UNL     1       1.783   7.388  20.174  0.00  0.00    +0.000 A 
ATOM     19  C   UNL     1       1.998   6.045  20.448  0.00  0.00    +0.000 A 
ATOM     20  C   UNL     1       2.487   5.168  19.482  0.00  0.00    +0.000 A 
ATOM     21  C   UNL     1       2.783   5.659  18.226  0.00  0.00    +0.000 A 
ATOM     22  F   UNL     1       3.287   4.838  17.296  0.00  0.00    +0.000 F 
ATOM     23  C   UNL     1       2.555   6.996  17.908  0.00  0.00    +0.000 A 
ATOM     24  C   UNL     1       2.014   7.883  18.870  0.00  0.00    +0.000 A 
ATOM     25  C   UNL     1       1.666   9.244  18.636  0.00  0.00    +0.000 A 
BRANCH  25  26
ATOM     26  O   UNL     1       1.785   9.807  17.392  0.00  0.00    +0.000 OA
ATOM     27  H   UNL     1       2.692  10.084  17.204  0.00  0.00    +0.000 HD
ENDBRANCH  25  26
ENDBRANCH   9  15
TORSDOF 2
ENDMDL
MODEL 9
REMARK VINA RESULT:      -6.3      5.121      6.460
REMARK  Name = 
REMARK  3 active torsions:
REMARK  status: ('A' for Active; 'I' for Inactive)
REMARK    1  A    between atoms: C_1  and  N_2
REMARK    2  A    between atoms: C_9  and  C_11
REMARK    3  A    between atoms: C_21  and  O_22
REMARK                            x       y       z     vdW  Elec       q    Type
REMARK                         _______ _______ _______ _____ _____    ______ ____
ROOT
ATOM      1  C   UNL     1      -7.017  13.048  21.539  0.00  0.00    +0.000 C 
ATOM      2  N   UNL     1      -6.032  12.987  22.587  0.00  0.00    +0.000 N 
ATOM      3  C   UNL     1      -4.911  13.875  22.669  0.00  0.00    +0.000 C 
ATOM      4  C   UNL     1      -4.095  13.205  23.770  0.00  0.00    +0.000 C 
ATOM      5  C   UNL     1      -3.378  14.192  24.706  0.00  0.00    +0.000 C 
ATOM      6  C   UNL     1      -2.175  14.859  24.038  0.00  0.00    +0.000 C 
ATOM      7  C   UNL     1      -1.227  13.806  23.449  0.00  0.00    +0.000 C 
ATOM      8  N   UNL     1      -1.970  12.948  22.522  0.00  0.00    +0.000 N 
ATOM      9  C   UNL     1      -1.877  12.907  21.122  0.00  0.00    +0.000 C 
ATOM     10  O   UNL     1      -2.653  12.236  20.443  0.00  0.00    +0.000 OA
ATOM     11  C   UNL     1      -3.072  12.215  23.170  0.00  0.00    +0.000 C 
ATOM     12  O   UNL     1      -5.083  12.492  24.546  0.00  0.00    +0.000 OA
ATOM     13  C   UNL     1      -6.197  12.312  23.768  0.00  0.00    +0.000 C 
ATOM     14  O   UNL     1      -7.169  11.663  24.114  0.00  0.00    +0.000 OA
ENDROOT
BRANCH   9  15
ATOM     15  C   UNL     1      -0.875  13.730  20.403  0.00  0.00    +0.000 A 
ATOM     16  C   UNL     1      -1.166  15.035  20.058  0.00  0.00    +0.000 A 
ATOM     17  N   UNL     1      -0.297  15.891  19.479  0.00  0.00    +0.000 NA
ATOM     18  C   UNL     1       0.903  15.421  19.121  0.00  0.00    +0.000 A 
ATOM     19  C   UNL     1       1.799  16.324  18.567  0.00  0.00    +0.000 A 
ATOM     20  C   UNL     1       3.055  15.926  18.112  0.00  0.00    +0.000 A 
ATOM     21  C   UNL     1       3.403  14.592  18.199  0.00  0.00    +0.000 A 
ATOM     22  F   UNL     1       4.591  14.186  17.734  0.00  0.00    +0.000 F 
ATOM     23  C   UNL     1       2.538  13.663  18.774  0.00  0.00    +0.000 A 
ATOM     24  C   UNL     1       1.280  14.067  19.282  0.00  0.00    +0.000 A 
ATOM     25  C   UNL     1       0.352  13.225  19.958  0.00  0.00    +0.000 A 
BRANCH  25  26
ATOM     26  O   UNL     1       0.644  11.913  20.227  0.00  0.00    +0.000 OA
ATOM     27  H   UNL     1      -0.107  11.446  20.617  0.00  0.00    +0.000 HD
ENDBRANCH  25  26
ENDBRANCH   9  15
TORSDOF 2
ENDMDL
