MODEL 1
REMARK VINA RESULT:      -7.1      0.000      0.000
REMARK  Name = 
REMARK  12 active torsions:
REMARK  status: ('A' for Active; 'I' for Inactive)
REMARK    1  A    between atoms: C_1  and  C_2
REMARK    2  A    between atoms: C_2  and  C_3
REMARK    3  A    between atoms: C_2  and  O_4
REMARK    4  A    between atoms: O_4  and  P_5
REMARK    5  A    between atoms: P_5  and  O_7
REMARK    6  A    between atoms: P_5  and  C_11
REMARK    7  A    between atoms: O_7  and  C_8
REMARK    8  A    between atoms: C_8  and  C_9
REMARK    9  A    between atoms: C_8  and  C_10
REMARK   10  A    between atoms: C_11  and  N_12
REMARK   11  A    between atoms: C_11  and  C_22
REMARK   12  A    between atoms: C_13  and  C_15
REMARK                            x       y       z     vdW  Elec       q    Type
REMARK                         _______ _______ _______ _____ _____    ______ ____
ROOT
ATOM      1  C   UNL     1       2.446   5.099  20.614  0.00  0.00    +0.000 C 
ENDROOT
BRANCH   1   2
ATOM      2  C   UNL     1       1.839   3.860  21.292  0.00  0.00    +0.000 C 
ATOM      3  N   UNL     1       0.698   3.322  20.760  0.00  0.00    +0.000 N 
ATOM      4  O   UNL     1       2.369   3.316  22.260  0.00  0.00    +0.000 OA
ATOM      5  H   UNL     1       0.420   3.605  19.812  0.00  0.00    +0.000 HD
ATOM      6  H   UNL     1       0.389   2.410  21.063  0.00  0.00    +0.000 HD
ENDBRANCH   1   2
BRANCH   1   7
ATOM      7  N   UNL     1       1.583   6.318  20.923  0.00  0.00    +0.000 N 
ATOM      8  C   UNL     1       1.759   7.580  20.364  0.00  0.00    +0.000 C 
ATOM      9  O   UNL     1       2.500   7.791  19.403  0.00  0.00    +0.000 OA
ATOM     10  H   UNL     1       0.956   6.242  21.711  0.00  0.00    +0.000 HD
BRANCH   8  11
ATOM     11  C   UNL     1       0.935   8.728  20.844  0.00  0.00    +0.000 A 
ATOM     12  C   UNL     1       0.703   8.746  22.239  0.00  0.00    +0.000 A 
ATOM     13  C   UNL     1      -0.024   9.770  22.849  0.00  0.00    +0.000 A 
ATOM     14  C   UNL     1      -0.549  10.788  22.066  0.00  0.00    +0.000 A 
ATOM     15  C   UNL     1      -0.347  10.778  20.692  0.00  0.00    +0.000 A 
ATOM     16  C   UNL     1       0.382   9.750  20.070  0.00  0.00    +0.000 A 
ATOM     17 BR   UNL     1       0.470   9.824  18.173  0.00  0.00    +0.000 Br
ENDBRANCH   8  11
ENDBRANCH   1   7
BRANCH   1  18
ATOM     18  P   UNL     1       2.920   4.931  18.855  0.00  0.00    +0.000 P 
ATOM     19  O   UNL     1       1.577   4.310  18.473  0.00  0.00    +0.000 OA
BRANCH  18  20
ATOM     20  O   UNL     1       3.369   4.773  17.191  0.00  0.00    +0.000 OA
BRANCH  20  22
ATOM     21  C   UNL     1       5.314   4.152  15.916  0.00  0.00    +0.000 C 
ATOM     22  C   UNL     1       4.742   5.115  16.947  0.00  0.00    +0.000 C 
ATOM     23  C   UNL     1       4.929   6.552  16.449  0.00  0.00    +0.000 C 
ENDBRANCH  20  22
ENDBRANCH  18  20
BRANCH  18  24
ATOM     24  O   UNL     1       4.033   3.734  19.146  0.00  0.00    +0.000 OA
BRANCH  24  25
ATOM     25  C   UNL     1       3.733   2.341  19.303  0.00  0.00    +0.000 C 
ATOM     26  C   UNL     1       3.684   1.491  18.036  0.00  0.00    +0.000 C 
ATOM     27  C   UNL     1       4.769   1.751  20.267  0.00  0.00    +0.000 C 
ENDBRANCH  24  25
ENDBRANCH  18  24
ENDBRANCH   1  18
TORSDOF 8
ENDMDL
MODEL 2
REMARK VINA RESULT:      -7.1      2.309      3.377
REMARK  Name = 
REMARK  12 active torsions:
REMARK  status: ('A' for Active; 'I' for Inactive)
REMARK    1  A    between atoms: C_1  and  C_2
REMARK    2  A    between atoms: C_2  and  C_3
REMARK    3  A    between atoms: C_2  and  O_4
REMARK    4  A    between atoms: O_4  and  P_5
REMARK    5  A    between atoms: P_5  and  O_7
REMARK    6  A    between atoms: P_5  and  C_11
REMARK    7  A    between atoms: O_7  and  C_8
REMARK    8  A    between atoms: C_8  and  C_9
REMARK    9  A    between atoms: C_8  and  C_10
REMARK   10  A    between atoms: C_11  and  N_12
REMARK   11  A    between atoms: C_11  and  C_22
REMARK   12  A    between atoms: C_13  and  C_15
REMARK                            x       y       z     vdW  Elec       q    Type
REMARK                         _______ _______ _______ _____ _____    ______ ____
ROOT
ATOM      1  C   UNL     1       3.141   5.193  18.755  0.00  0.00    +0.000 C 
ENDROOT
BRANCH   1   2
ATOM      2  C   UNL     1       1.869   4.353  18.552  0.00  0.00    +0.000 C 
ATOM      3  N   UNL     1       1.262   3.816  19.654  0.00  0.00    +0.000 N 
ATOM      4  O   UNL     1       1.361   4.191  17.443  0.00  0.00    +0.000 OA
ATOM      5  H   UNL     1       1.525   4.174  20.582  0.00  0.00    +0.000 HD
ATOM      6  H   UNL     1       0.334   3.427  19.573  0.00  0.00    +0.000 HD
ENDBRANCH   1   2
BRANCH   1   7
ATOM      7  N   UNL     1       2.778   6.674  18.737  0.00  0.00    +0.000 N 
ATOM      8  C   UNL     1       1.990   7.311  19.690  0.00  0.00    +0.000 C 
ATOM      9  O   UNL     1       1.677   6.788  20.761  0.00  0.00    +0.000 OA
ATOM     10  H   UNL     1       2.982   7.181  17.888  0.00  0.00    +0.000 HD
BRANCH   8  11
ATOM     11  C   UNL     1       1.592   8.736  19.496  0.00  0.00    +0.000 A 
ATOM     12  C   UNL     1       2.004   9.302  18.266  0.00  0.00    +0.000 A 
ATOM     13  C   UNL     1       1.685  10.616  17.919  0.00  0.00    +0.000 A 
ATOM     14  C   UNL     1       0.962  11.395  18.809  0.00  0.00    +0.000 A 
ATOM     15  C   UNL     1       0.564  10.864  20.029  0.00  0.00    +0.000 A 
ATOM     16  C   UNL     1       0.883   9.542  20.388  0.00  0.00    +0.000 A 
ATOM     17 BR   UNL     1       0.363   9.006  22.135  0.00  0.00    +0.000 Br
ENDBRANCH   8  11
ENDBRANCH   1   7
BRANCH   1  18
ATOM     18  P   UNL     1       4.593   4.755  17.729  0.00  0.00    +0.000 P 
ATOM     19  O   UNL     1       4.698   3.357  18.339  0.00  0.00    +0.000 OA
BRANCH  18  20
ATOM     20  O   UNL     1       5.965   4.342  16.760  0.00  0.00    +0.000 OA
BRANCH  20  22
ATOM     21  C   UNL     1       5.121   5.982  15.213  0.00  0.00    +0.000 C 
ATOM     22  C   UNL     1       5.764   4.610  15.364  0.00  0.00    +0.000 C 
ATOM     23  C   UNL     1       7.059   4.571  14.546  0.00  0.00    +0.000 C 
ENDBRANCH  20  22
ENDBRANCH  18  20
BRANCH  18  24
ATOM     24  O   UNL     1       5.616   5.794  18.524  0.00  0.00    +0.000 OA
BRANCH  24  25
ATOM     25  C   UNL     1       7.026   5.911  18.294  0.00  0.00    +0.000 C 
ATOM     26  C   UNL     1       7.533   7.235  17.730  0.00  0.00    +0.000 C 
ATOM     27  C   UNL     1       7.735   5.623  19.623  0.00  0.00    +0.000 C 
ENDBRANCH  24  25
ENDBRANCH  18  24
ENDBRANCH   1  18
TORSDOF 8
ENDMDL
MODEL 3
REMARK VINA RESULT:      -7.0      2.061      2.731
REMARK  Name = 
REMARK  12 active torsions:
REMARK  status: ('A' for Active; 'I' for Inactive)
REMARK    1  A    between atoms: C_1  and  C_2
REMARK    2  A    between atoms: C_2  and  C_3
REMARK    3  A    between atoms: C_2  and  O_4
REMARK    4  A    between atoms: O_4  and  P_5
REMARK    5  A    between atoms: P_5  and  O_7
REMARK    6  A    between atoms: P_5  and  C_11
REMARK    7  A    between atoms: O_7  and  C_8
REMARK    8  A    between atoms: C_8  and  C_9
REMARK    9  A    between atoms: C_8  and  C_10
REMARK   10  A    between atoms: C_11  and  N_12
REMARK   11  A    between atoms: C_11  and  C_22
REMARK   12  A    between atoms: C_13  and  C_15
REMARK                            x       y       z     vdW  Elec       q    Type
REMARK                         _______ _______ _______ _____ _____    ______ ____
ROOT
ATOM      1  C   UNL     1       2.836   5.457  19.823  0.00  0.00    +0.000 C 
ENDROOT
BRANCH   1   2
ATOM      2  C   UNL     1       1.742   4.653  19.102  0.00  0.00    +0.000 C 
ATOM      3  N   UNL     1       1.714   4.676  17.734  0.00  0.00    +0.000 N 
ATOM      4  O   UNL     1       0.929   3.960  19.712  0.00  0.00    +0.000 OA
ATOM      5  H   UNL     1       2.541   5.023  17.232  0.00  0.00    +0.000 HD
ATOM      6  H   UNL     1       1.135   4.015  17.236  0.00  0.00    +0.000 HD
ENDBRANCH   1   2
BRANCH   1   7
ATOM      7  N   UNL     1       2.503   6.943  19.749  0.00  0.00    +0.000 N 
ATOM      8  C   UNL     1       1.479   7.565  20.454  0.00  0.00    +0.000 C 
ATOM      9  O   UNL     1       0.868   7.018  21.374  0.00  0.00    +0.000 OA
ATOM     10  H   UNL     1       2.945   7.471  19.010  0.00  0.00    +0.000 HD
BRANCH   8  11
ATOM     11  C   UNL     1       1.163   9.001  20.199  0.00  0.00    +0.000 A 
ATOM     12  C   UNL     1       1.518   9.464  18.910  0.00  0.00    +0.000 A 
ATOM     13  C   UNL     1       1.261  10.775  18.503  0.00  0.00    +0.000 A 
ATOM     14  C   UNL     1       0.660  11.654  19.392  0.00  0.00    +0.000 A 
ATOM     15  C   UNL     1       0.321  11.224  20.668  0.00  0.00    +0.000 A 
ATOM     16  C   UNL     1       0.577   9.907  21.086  0.00  0.00    +0.000 A 
ATOM     17 BR   UNL     1       0.157   9.512  22.897  0.00  0.00    +0.000 Br
ENDBRANCH   8  11
ENDBRANCH   1   7
BRANCH   1  18
ATOM     18  P   UNL     1       4.572   5.047  19.411  0.00  0.00    +0.000 P 
ATOM     19  O   UNL     1       4.650   6.127  18.331  0.00  0.00    +0.000 OA
BRANCH  18  20
ATOM     20  O   UNL     1       6.212   4.660  19.021  0.00  0.00    +0.000 OA
BRANCH  20  22
ATOM     21  C   UNL     1       7.849   6.366  18.566  0.00  0.00    +0.000 C 
ATOM     22  C   UNL     1       6.750   5.489  17.979  0.00  0.00    +0.000 C 
ATOM     23  C   UNL     1       7.320   4.692  16.802  0.00  0.00    +0.000 C 
ENDBRANCH  20  22
ENDBRANCH  18  20
BRANCH  18  24
ATOM     24  O   UNL     1       4.187   3.587  18.720  0.00  0.00    +0.000 OA
BRANCH  24  25
ATOM     25  C   UNL     1       4.369   2.304  19.332  0.00  0.00    +0.000 C 
ATOM     26  C   UNL     1       4.008   2.179  20.809  0.00  0.00    +0.000 C 
ATOM     27  C   UNL     1       3.553   1.287  18.525  0.00  0.00    +0.000 C 
ENDBRANCH  24  25
ENDBRANCH  18  24
ENDBRANCH   1  18
TORSDOF 8
ENDMDL
MODEL 4
REMARK VINA RESULT:      -6.9      2.281      3.219
REMARK  Name = 
REMARK  12 active torsions:
REMARK  status: ('A' for Active; 'I' for Inactive)
REMARK    1  A    between atoms: C_1  and  C_2
REMARK    2  A    between atoms: C_2  and  C_3
REMARK    3  A    between atoms: C_2  and  O_4
REMARK    4  A    between atoms: O_4  and  P_5
REMARK    5  A    between atoms: P_5  and  O_7
REMARK    6  A    between atoms: P_5  and  C_11
REMARK    7  A    between atoms: O_7  and  C_8
REMARK    8  A    between atoms: C_8  and  C_9
REMARK    9  A    between atoms: C_8  and  C_10
REMARK   10  A    between atoms: C_11  and  N_12
REMARK   11  A    between atoms: C_11  and  C_22
REMARK   12  A    between atoms: C_13  and  C_15
REMARK                            x       y       z     vdW  Elec       q    Type
REMARK                         _______ _______ _______ _____ _____    ______ ____
ROOT
ATOM      1  C   UNL     1       3.741   4.919  19.877  0.00  0.00    +0.000 C 
ENDROOT
BRANCH   1   2
ATOM      2  C   UNL     1       2.645   3.874  20.143  0.00  0.00    +0.000 C 
ATOM      3  N   UNL     1       1.848   3.489  19.099  0.00  0.00    +0.000 N 
ATOM      4  O   UNL     1       2.497   3.345  21.244  0.00  0.00    +0.000 OA
ATOM      5  H   UNL     1       2.146   3.721  18.143  0.00  0.00    +0.000 HD
ATOM      6  H   UNL     1       1.255   2.677  19.197  0.00  0.00    +0.000 HD
ENDBRANCH   1   2
BRANCH   1   7
ATOM      7  N   UNL     1       3.125   6.314  19.899  0.00  0.00    +0.000 N 
ATOM      8  C   UNL     1       2.395   6.878  18.859  0.00  0.00    +0.000 C 
ATOM      9  O   UNL     1       1.991   6.228  17.893  0.00  0.00    +0.000 OA
ATOM     10  H   UNL     1       3.415   6.926  20.648  0.00  0.00    +0.000 HD
BRANCH   8  11
ATOM     11  C   UNL     1       1.955   8.301  18.942  0.00  0.00    +0.000 A 
ATOM     12  C   UNL     1       2.352   9.107  17.849  0.00  0.00    +0.000 A 
ATOM     13  C   UNL     1       1.995  10.454  17.762  0.00  0.00    +0.000 A 
ATOM     14  C   UNL     1       1.247  11.024  18.781  0.00  0.00    +0.000 A 
ATOM     15  C   UNL     1       0.863  10.254  19.871  0.00  0.00    +0.000 A 
ATOM     16  C   UNL     1       1.220   8.898  19.968  0.00  0.00    +0.000 A 
ATOM     17 BR   UNL     1       0.713   8.018  21.574  0.00  0.00    +0.000 Br
ENDBRANCH   8  11
ENDBRANCH   1   7
BRANCH   1  18
ATOM     18  P   UNL     1       4.858   4.606  18.462  0.00  0.00    +0.000 P 
ATOM     19  O   UNL     1       4.551   3.108  18.453  0.00  0.00    +0.000 OA
BRANCH  18  20
ATOM     20  O   UNL     1       5.914   4.309  17.124  0.00  0.00    +0.000 OA
BRANCH  20  22
ATOM     21  C   UNL     1       5.178   6.045  15.627  0.00  0.00    +0.000 C 
ATOM     22  C   UNL     1       5.286   4.543  15.854  0.00  0.00    +0.000 C 
ATOM     23  C   UNL     1       6.040   3.912  14.679  0.00  0.00    +0.000 C 
ENDBRANCH  20  22
ENDBRANCH  18  20
BRANCH  18  24
ATOM     24  O   UNL     1       6.240   4.892  19.337  0.00  0.00    +0.000 OA
BRANCH  24  25
ATOM     25  C   UNL     1       7.457   5.439  18.813  0.00  0.00    +0.000 C 
ATOM     26  C   UNL     1       7.381   6.822  18.173  0.00  0.00    +0.000 C 
ATOM     27  C   UNL     1       8.480   5.467  19.955  0.00  0.00    +0.000 C 
ENDBRANCH  24  25
ENDBRANCH  18  24
ENDBRANCH   1  18
TORSDOF 8
ENDMDL
MODEL 5
REMARK VINA RESULT:      -6.9      3.923      7.831
REMARK  Name = 
REMARK  12 active torsions:
REMARK  status: ('A' for Active; 'I' for Inactive)
REMARK    1  A    between atoms: C_1  and  C_2
REMARK    2  A    between atoms: C_2  and  C_3
REMARK    3  A    between atoms: C_2  and  O_4
REMARK    4  A    between atoms: O_4  and  P_5
REMARK    5  A    between atoms: P_5  and  O_7
REMARK    6  A    between atoms: P_5  and  C_11
REMARK    7  A    between atoms: O_7  and  C_8
REMARK    8  A    between atoms: C_8  and  C_9
REMARK    9  A    between atoms: C_8  and  C_10
REMARK   10  A    between atoms: C_11  and  N_12
REMARK   11  A    between atoms: C_11  and  C_22
REMARK   12  A    between atoms: C_13  and  C_15
REMARK                            x       y       z     vdW  Elec       q    Type
REMARK                         _______ _______ _______ _____ _____    ______ ____
ROOT
ATOM      1  C   UNL     1       6.555   5.300  17.712  0.00  0.00    +0.000 C 
ENDROOT
BRANCH   1   2
ATOM      2  C   UNL     1       7.435   6.545  17.914  0.00  0.00    +0.000 C 
ATOM      3  N   UNL     1       7.300   7.586  17.036  0.00  0.00    +0.000 N 
ATOM      4  O   UNL     1       8.215   6.649  18.860  0.00  0.00    +0.000 OA
ATOM      5  H   UNL     1       6.471   7.608  16.427  0.00  0.00    +0.000 HD
ATOM      6  H   UNL     1       7.719   8.479  17.253  0.00  0.00    +0.000 HD
ENDBRANCH   1   2
BRANCH   1   7
ATOM      7  N   UNL     1       6.752   4.766  16.297  0.00  0.00    +0.000 N 
ATOM      8  C   UNL     1       6.101   5.247  15.167  0.00  0.00    +0.000 C 
ATOM      9  O   UNL     1       5.453   6.295  15.161  0.00  0.00    +0.000 OA
ATOM     10  H   UNL     1       7.258   3.896  16.206  0.00  0.00    +0.000 HD
BRANCH   8  11
ATOM     11  C   UNL     1       6.274   4.557  13.855  0.00  0.00    +0.000 A 
ATOM     12  C   UNL     1       5.266   3.614  13.546  0.00  0.00    +0.000 A 
ATOM     13  C   UNL     1       5.268   2.905  12.343  0.00  0.00    +0.000 A 
ATOM     14  C   UNL     1       6.293   3.116  11.434  0.00  0.00    +0.000 A 
ATOM     15  C   UNL     1       7.302   4.024  11.727  0.00  0.00    +0.000 A 
ATOM     16  C   UNL     1       7.310   4.740  12.936  0.00  0.00    +0.000 A 
ATOM     17 BR   UNL     1       8.818   5.858  13.232  0.00  0.00    +0.000 Br
ENDBRANCH   8  11
ENDBRANCH   1   7
BRANCH   1  18
ATOM     18  P   UNL     1       4.807   5.428  18.237  0.00  0.00    +0.000 P 
ATOM     19  O   UNL     1       5.183   5.628  19.705  0.00  0.00    +0.000 OA
BRANCH  18  20
ATOM     20  O   UNL     1       3.154   5.549  18.733  0.00  0.00    +0.000 OA
BRANCH  20  22
ATOM     21  C   UNL     1       2.277   7.721  18.177  0.00  0.00    +0.000 C 
ATOM     22  C   UNL     1       2.829   6.835  19.285  0.00  0.00    +0.000 C 
ATOM     23  C   UNL     1       1.809   6.765  20.426  0.00  0.00    +0.000 C 
ENDBRANCH  20  22
ENDBRANCH  18  20
BRANCH  18  24
ATOM     24  O   UNL     1       4.480   3.825  17.952  0.00  0.00    +0.000 OA
BRANCH  24  25
ATOM     25  C   UNL     1       3.471   3.052  18.615  0.00  0.00    +0.000 C 
ATOM     26  C   UNL     1       2.637   2.109  17.752  0.00  0.00    +0.000 C 
ATOM     27  C   UNL     1       4.159   2.246  19.723  0.00  0.00    +0.000 C 
ENDBRANCH  24  25
ENDBRANCH  18  24
ENDBRANCH   1  18
TORSDOF 8
ENDMDL
MODEL 6
REMARK VINA RESULT:      -6.9      2.945      4.347
REMARK  Name = 
REMARK  12 active torsions:
REMARK  status: ('A' for Active; 'I' for Inactive)
REMARK    1  A    between atoms: C_1  and  C_2
REMARK    2  A    between atoms: C_2  and  C_3
REMARK    3  A    between atoms: C_2  and  O_4
REMARK    4  A    between atoms: O_4  and  P_5
REMARK    5  A    between atoms: P_5  and  O_7
REMARK    6  A    between atoms: P_5  and  C_11
REMARK    7  A    between atoms: O_7  and  C_8
REMARK    8  A    between atoms: C_8  and  C_9
REMARK    9  A    between atoms: C_8  and  C_10
REMARK   10  A    between atoms: C_11  and  N_12
REMARK   11  A    between atoms: C_11  and  C_22
REMARK   12  A    between atoms: C_13  and  C_15
REMARK                            x       y       z     vdW  Elec       q    Type
REMARK                         _______ _______ _______ _____ _____    ______ ____
ROOT
ATOM      1  C   UNL     1       5.355   4.632  18.791  0.00  0.00    +0.000 C 
ENDROOT
BRANCH   1   2
ATOM      2  C   UNL     1       4.555   3.326  18.923  0.00  0.00    +0.000 C 
ATOM      3  N   UNL     1       4.284   2.613  17.786  0.00  0.00    +0.000 N 
ATOM      4  O   UNL     1       4.194   2.885  20.013  0.00  0.00    +0.000 OA
ATOM      5  H   UNL     1       4.811   2.834  16.932  0.00  0.00    +0.000 HD
ATOM      6  H   UNL     1       3.932   1.669  17.862  0.00  0.00    +0.000 HD
ENDBRANCH   1   2
BRANCH   1   7
ATOM      7  N   UNL     1       4.439   5.817  19.078  0.00  0.00    +0.000 N 
ATOM      8  C   UNL     1       3.282   6.119  18.369  0.00  0.00    +0.000 C 
ATOM      9  O   UNL     1       2.763   5.339  17.569  0.00  0.00    +0.000 OA
ATOM     10  H   UNL     1       4.793   6.521  19.711  0.00  0.00    +0.000 HD
BRANCH   8  11
ATOM     11  C   UNL     1       2.539   7.381  18.655  0.00  0.00    +0.000 A 
ATOM     12  C   UNL     1       2.705   8.397  17.685  0.00  0.00    +0.000 A 
ATOM     13  C   UNL     1       2.053   9.627  17.791  0.00  0.00    +0.000 A 
ATOM     14  C   UNL     1       1.235   9.868  18.885  0.00  0.00    +0.000 A 
ATOM     15  C   UNL     1       1.074   8.890  19.857  0.00  0.00    +0.000 A 
ATOM     16  C   UNL     1       1.728   7.650  19.760  0.00  0.00    +0.000 A 
ATOM     17 BR   UNL     1       1.493   6.467  21.229  0.00  0.00    +0.000 Br
ENDBRANCH   8  11
ENDBRANCH   1   7
BRANCH   1  18
ATOM     18  P   UNL     1       6.392   4.820  17.295  0.00  0.00    +0.000 P 
ATOM     19  O   UNL     1       7.587   4.120  17.943  0.00  0.00    +0.000 OA
BRANCH  18  20
ATOM     20  O   UNL     1       7.372   4.997  15.881  0.00  0.00    +0.000 OA
BRANCH  20  22
ATOM     21  C   UNL     1       6.967   4.074  13.694  0.00  0.00    +0.000 C 
ATOM     22  C   UNL     1       6.599   5.173  14.683  0.00  0.00    +0.000 C 
ATOM     23  C   UNL     1       5.087   5.142  14.927  0.00  0.00    +0.000 C 
ENDBRANCH  20  22
ENDBRANCH  18  20
BRANCH  18  24
ATOM     24  O   UNL     1       6.544   6.465  17.462  0.00  0.00    +0.000 OA
BRANCH  24  25
ATOM     25  C   UNL     1       7.771   7.167  17.697  0.00  0.00    +0.000 C 
ATOM     26  C   UNL     1       7.735   8.689  17.590  0.00  0.00    +0.000 C 
ATOM     27  C   UNL     1       8.269   6.771  19.092  0.00  0.00    +0.000 C 
ENDBRANCH  24  25
ENDBRANCH  18  24
ENDBRANCH   1  18
TORSDOF 8
ENDMDL
MODEL 7
REMARK VINA RESULT:      -6.9      1.786      2.426
REMARK  Name = 
REMARK  12 active torsions:
REMARK  status: ('A' for Active; 'I' for Inactive)
REMARK    1  A    between atoms: C_1  and  C_2
REMARK    2  A    between atoms: C_2  and  C_3
REMARK    3  A    between atoms: C_2  and  O_4
REMARK    4  A    between atoms: O_4  and  P_5
REMARK    5  A    between atoms: P_5  and  O_7
REMARK    6  A    between atoms: P_5  and  C_11
REMARK    7  A    between atoms: O_7  and  C_8
REMARK    8  A    between atoms: C_8  and  C_9
REMARK    9  A    between atoms: C_8  and  C_10
REMARK   10  A    between atoms: C_11  and  N_12
REMARK   11  A    between atoms: C_11  and  C_22
REMARK   12  A    between atoms: C_13  and  C_15
REMARK                            x       y       z     vdW  Elec       q    Type
REMARK                         _______ _______ _______ _____ _____    ______ ____
ROOT
ATOM      1  C   UNL     1       2.820   5.937  20.227  0.00  0.00    +0.000 C 
ENDROOT
BRANCH   1   2
ATOM      2  C   UNL     1       1.845   4.842  20.691  0.00  0.00    +0.000 C 
ATOM      3  N   UNL     1       2.268   3.958  21.646  0.00  0.00    +0.000 N 
ATOM      4  O   UNL     1       0.693   4.768  20.266  0.00  0.00    +0.000 OA
ATOM      5  H   UNL     1       3.113   4.186  22.186  0.00  0.00    +0.000 HD
ATOM      6  H   UNL     1       1.597   3.356  22.101  0.00  0.00    +0.000 HD
ENDBRANCH   1   2
BRANCH   1   7
ATOM      7  N   UNL     1       2.032   7.181  19.832  0.00  0.00    +0.000 N 
ATOM      8  C   UNL     1       1.554   8.137  20.722  0.00  0.00    +0.000 C 
ATOM      9  O   UNL     1       1.900   8.186  21.903  0.00  0.00    +0.000 OA
ATOM     10  H   UNL     1       1.690   7.219  18.882  0.00  0.00    +0.000 HD
BRANCH   8  11
ATOM     11  C   UNL     1       0.680   9.243  20.231  0.00  0.00    +0.000 A 
ATOM     12  C   UNL     1       0.822   9.540  18.855  0.00  0.00    +0.000 A 
ATOM     13  C   UNL     1       0.054  10.528  18.234  0.00  0.00    +0.000 A 
ATOM     14  C   UNL     1      -0.858  11.250  18.988  0.00  0.00    +0.000 A 
ATOM     15  C   UNL     1      -0.998  10.986  20.344  0.00  0.00    +0.000 A 
ATOM     16  C   UNL     1      -0.228   9.995  20.978  0.00  0.00    +0.000 A 
ATOM     17 BR   UNL     1      -0.460   9.836  22.857  0.00  0.00    +0.000 Br
ENDBRANCH   8  11
ENDBRANCH   1   7
BRANCH   1  18
ATOM     18  P   UNL     1       4.110   5.443  19.027  0.00  0.00    +0.000 P 
ATOM     19  O   UNL     1       3.385   6.111  17.858  0.00  0.00    +0.000 OA
BRANCH  18  20
ATOM     20  O   UNL     1       5.329   4.975  17.892  0.00  0.00    +0.000 OA
BRANCH  20  22
ATOM     21  C   UNL     1       6.935   6.662  17.283  0.00  0.00    +0.000 C 
ATOM     22  C   UNL     1       5.613   5.997  16.924  0.00  0.00    +0.000 C 
ATOM     23  C   UNL     1       5.691   5.468  15.488  0.00  0.00    +0.000 C 
ENDBRANCH  20  22
ENDBRANCH  18  20
BRANCH  18  24
ATOM     24  O   UNL     1       3.715   3.831  19.087  0.00  0.00    +0.000 OA
BRANCH  24  25
ATOM     25  C   UNL     1       3.606   2.959  17.955  0.00  0.00    +0.000 C 
ATOM     26  C   UNL     1       3.721   1.460  18.216  0.00  0.00    +0.000 C 
ATOM     27  C   UNL     1       2.262   3.251  17.275  0.00  0.00    +0.000 C 
ENDBRANCH  24  25
ENDBRANCH  18  24
ENDBRANCH   1  18
TORSDOF 8
ENDMDL
MODEL 8
REMARK VINA RESULT:      -6.9      2.139      3.304
REMARK  Name = 
REMARK  12 active torsions:
REMARK  status: ('A' for Active; 'I' for Inactive)
REMARK    1  A    between atoms: C_1  and  C_2
REMARK    2  A    between atoms: C_2  and  C_3
REMARK    3  A    between atoms: C_2  and  O_4
REMARK    4  A    between atoms: O_4  and  P_5
REMARK    5  A    between atoms: P_5  and  O_7
REMARK    6  A    between atoms: P_5  and  C_11
REMARK    7  A    between atoms: O_7  and  C_8
REMARK    8  A    between atoms: C_8  and  C_9
REMARK    9  A    between atoms: C_8  and  C_10
REMARK   10  A    between atoms: C_11  and  N_12
REMARK   11  A    between atoms: C_11  and  C_22
REMARK   12  A    between atoms: C_13  and  C_15
REMARK                            x       y       z     vdW  Elec       q    Type
REMARK                         _______ _______ _______ _____ _____    ______ ____
ROOT
ATOM      1  C   UNL     1       3.533   5.421  18.353  0.00  0.00    +0.000 C 
ENDROOT
BRANCH   1   2
ATOM      2  C   UNL     1       2.430   4.359  18.212  0.00  0.00    +0.000 C 
ATOM      3  N   UNL     1       2.442   3.291  19.067  0.00  0.00    +0.000 N 
ATOM      4  O   UNL     1       1.519   4.465  17.390  0.00  0.00    +0.000 OA
ATOM      5  H   UNL     1       3.028   3.345  19.910  0.00  0.00    +0.000 HD
ATOM      6  H   UNL     1       1.635   2.687  19.123  0.00  0.00    +0.000 HD
ENDBRANCH   1   2
BRANCH   1   7
ATOM      7  N   UNL     1       2.933   6.700  18.927  0.00  0.00    +0.000 N 
ATOM      8  C   UNL     1       2.098   6.759  20.038  0.00  0.00    +0.000 C 
ATOM      9  O   UNL     1       1.926   5.806  20.799  0.00  0.00    +0.000 OA
ATOM     10  H   UNL     1       3.010   7.532  18.359  0.00  0.00    +0.000 HD
BRANCH   8  11
ATOM     11  C   UNL     1       1.464   8.053  20.426  0.00  0.00    +0.000 A 
ATOM     12  C   UNL     1       1.001   8.106  21.762  0.00  0.00    +0.000 A 
ATOM     13  C   UNL     1       0.411   9.256  22.290  0.00  0.00    +0.000 A 
ATOM     14  C   UNL     1       0.257  10.371  21.480  0.00  0.00    +0.000 A 
ATOM     15  C   UNL     1       0.687  10.332  20.160  0.00  0.00    +0.000 A 
ATOM     16  C   UNL     1       1.280   9.178  19.620  0.00  0.00    +0.000 A 
ATOM     17 BR   UNL     1       1.710   9.251  17.770  0.00  0.00    +0.000 Br
ENDBRANCH   8  11
ENDBRANCH   1   7
BRANCH   1  18
ATOM     18  P   UNL     1       4.625   5.677  16.907  0.00  0.00    +0.000 P 
ATOM     19  O   UNL     1       5.198   4.263  16.993  0.00  0.00    +0.000 OA
BRANCH  18  20
ATOM     20  O   UNL     1       5.657   5.920  15.540  0.00  0.00    +0.000 OA
BRANCH  20  22
ATOM     21  C   UNL     1       5.204   4.258  13.858  0.00  0.00    +0.000 C 
ATOM     22  C   UNL     1       6.140   4.689  14.979  0.00  0.00    +0.000 C 
ATOM     23  C   UNL     1       7.566   4.791  14.430  0.00  0.00    +0.000 C 
ENDBRANCH  20  22
ENDBRANCH  18  20
BRANCH  18  24
ATOM     24  O   UNL     1       5.624   6.739  17.701  0.00  0.00    +0.000 OA
BRANCH  24  25
ATOM     25  C   UNL     1       7.054   6.768  17.600  0.00  0.00    +0.000 C 
ATOM     26  C   UNL     1       7.722   8.140  17.560  0.00  0.00    +0.000 C 
ATOM     27  C   UNL     1       7.617   5.967  18.780  0.00  0.00    +0.000 C 
ENDBRANCH  24  25
ENDBRANCH  18  24
ENDBRANCH   1  18
TORSDOF 8
ENDMDL
MODEL 9
REMARK VINA RESULT:      -6.8      3.125      4.577
REMARK  Name = 
REMARK  12 active torsions:
REMARK  status: ('A' for Active; 'I' for Inactive)
REMARK    1  A    between atoms: C_1  and  C_2
REMARK    2  A    between atoms: C_2  and  C_3
REMARK    3  A    between atoms: C_2  and  O_4
REMARK    4  A    between atoms: O_4  and  P_5
REMARK    5  A    between atoms: P_5  and  O_7
REMARK    6  A    between atoms: P_5  and  C_11
REMARK    7  A    between atoms: O_7  and  C_8
REMARK    8  A    between atoms: C_8  and  C_9
REMARK    9  A    between atoms: C_8  and  C_10
REMARK   10  A    between atoms: C_11  and  N_12
REMARK   11  A    between atoms: C_11  and  C_22
REMARK   12  A    between atoms: C_13  and  C_15
REMARK                            x       y       z     vdW  Elec       q    Type
REMARK                         _______ _______ _______ _____ _____    ______ ____
ROOT
ATOM      1  C   UNL     1       5.568   5.131  17.969  0.00  0.00    +0.000 C 
ENDROOT
BRANCH   1   2
ATOM      2  C   UNL     1       4.991   3.754  18.337  0.00  0.00    +0.000 C 
ATOM      3  N   UNL     1       4.397   3.014  17.350  0.00  0.00    +0.000 N 
ATOM      4  O   UNL     1       5.086   3.284  19.470  0.00  0.00    +0.000 OA
ATOM      5  H   UNL     1       4.560   3.283  16.371  0.00  0.00    +0.000 HD
ATOM      6  H   UNL     1       4.183   2.041  17.517  0.00  0.00    +0.000 HD
ENDBRANCH   1   2
BRANCH   1   7
ATOM      7  N   UNL     1       4.623   6.223  18.459  0.00  0.00    +0.000 N 
ATOM      8  C   UNL     1       3.280   6.326  18.114  0.00  0.00    +0.000 C 
ATOM      9  O   UNL     1       2.662   5.425  17.545  0.00  0.00    +0.000 OA
ATOM     10  H   UNL     1       5.046   7.015  18.922  0.00  0.00    +0.000 HD
BRANCH   8  11
ATOM     11  C   UNL     1       2.488   7.514  18.548  0.00  0.00    +0.000 A 
ATOM     12  C   UNL     1       2.554   8.621  17.669  0.00  0.00    +0.000 A 
ATOM     13  C   UNL     1       1.846   9.798  17.916  0.00  0.00    +0.000 A 
ATOM     14  C   UNL     1       1.071   9.894  19.062  0.00  0.00    +0.000 A 
ATOM     15  C   UNL     1       1.008   8.826  19.947  0.00  0.00    +0.000 A 
ATOM     16  C   UNL     1       1.719   7.637  19.707  0.00  0.00    +0.000 A 
ATOM     17 BR   UNL     1       1.616   6.316  21.069  0.00  0.00    +0.000 Br
ENDBRANCH   8  11
ENDBRANCH   1   7
BRANCH   1  18
ATOM     18  P   UNL     1       6.154   5.350  16.249  0.00  0.00    +0.000 P 
ATOM     19  O   UNL     1       6.765   3.949  16.199  0.00  0.00    +0.000 OA
BRANCH  18  20
ATOM     20  O   UNL     1       6.708   5.556  14.623  0.00  0.00    +0.000 OA
BRANCH  20  22
ATOM     21  C   UNL     1       5.159   4.031  13.589  0.00  0.00    +0.000 C 
ATOM     22  C   UNL     1       6.626   4.351  13.847  0.00  0.00    +0.000 C 
ATOM     23  C   UNL     1       7.363   4.440  12.508  0.00  0.00    +0.000 C 
ENDBRANCH  20  22
ENDBRANCH  18  20
BRANCH  18  24
ATOM     24  O   UNL     1       7.320   6.458  16.662  0.00  0.00    +0.000 OA
BRANCH  24  25
ATOM     25  C   UNL     1       7.429   7.117  17.930  0.00  0.00    +0.000 C 
ATOM     26  C   UNL     1       8.262   6.425  19.005  0.00  0.00    +0.000 C 
ATOM     27  C   UNL     1       7.996   8.518  17.675  0.00  0.00    +0.000 C 
ENDBRANCH  24  25
ENDBRANCH  18  24
ENDBRANCH   1  18
TORSDOF 8
ENDMDL
