MODEL 1
REMARK VINA RESULT:      -7.8      0.000      0.000
REMARK  Name = 
REMARK  6 active torsions:
REMARK  status: ('A' for Active; 'I' for Inactive)
REMARK    1  A    between atoms: O_1  and  C_2
REMARK    2  A    between atoms: C_7  and  O_8
REMARK    3  A    between atoms: C_9  and  O_10
REMARK    4  A    between atoms: N_13  and  C_14
REMARK    5  A    between atoms: C_14  and  C_15
REMARK    6  A    between atoms: C_23  and  O_24
REMARK                            x       y       z     vdW  Elec       q    Type
REMARK                         _______ _______ _______ _____ _____    ______ ____
ROOT
ATOM      1  C   UNL     1       2.242   3.515  21.234  0.00  0.00    +0.000 A 
ATOM      2  C   UNL     1       1.791   4.827  21.077  0.00  0.00    +0.000 A 
ATOM      3  C   UNL     1       2.302   5.611  20.016  0.00  0.00    +0.000 A 
ATOM      4  C   UNL     1       2.051   6.948  19.578  0.00  0.00    +0.000 A 
ATOM      5  C   UNL     1       1.221   7.988  20.060  0.00  0.00    +0.000 A 
ATOM      6  C   UNL     1       1.189   9.194  19.368  0.00  0.00    +0.000 A 
ATOM      7  C   UNL     1       1.931   9.372  18.208  0.00  0.00    +0.000 A 
ATOM      8  C   UNL     1       2.748   8.367  17.702  0.00  0.00    +0.000 A 
ATOM      9  C   UNL     1       2.817   7.164  18.428  0.00  0.00    +0.000 A 
ATOM     10  N   UNL     1       3.576   6.027  18.228  0.00  0.00    +0.000 N 
ATOM     11  C   UNL     1       3.253   5.053  19.160  0.00  0.00    +0.000 A 
ATOM     12  C   UNL     1       3.719   3.733  19.317  0.00  0.00    +0.000 A 
ATOM     13  C   UNL     1       3.190   2.979  20.368  0.00  0.00    +0.000 A 
ENDROOT
BRANCH   1  14
ATOM     14  O   UNL     1       1.744   2.737  22.245  0.00  0.00    +0.000 OA
ATOM     15  H   UNL     1       2.465   2.498  22.845  0.00  0.00    +0.000 HD
ENDBRANCH   1  14
BRANCH   6  16
ATOM     16  O   UNL     1       0.428  10.249  19.799  0.00  0.00    +0.000 OA
ATOM     17  H   UNL     1       0.188  10.783  19.023  0.00  0.00    +0.000 HD
ENDBRANCH   6  16
BRANCH   7  18
ATOM     18  O   UNL     1       1.875  10.565  17.542  0.00  0.00    +0.000 OA
ATOM     19  H   UNL     1       2.226  11.215  18.183  0.00  0.00    +0.000 HD
ENDBRANCH   7  18
BRANCH  13  20
ATOM     20  O   UNL     1       3.605   1.688  20.554  0.00  0.00    +0.000 OA
ATOM     21  H   UNL     1       2.980   1.237  21.142  0.00  0.00    +0.000 HD
ENDBRANCH  13  20
BRANCH  10  22
ATOM     22  C   UNL     1       4.630   5.899  17.221  0.00  0.00    +0.000 C 
BRANCH  22  23
ATOM     23  C   UNL     1       5.996   6.365  17.668  0.00  0.00    +0.000 A 
ATOM     24  C   UNL     1       6.785   5.678  18.601  0.00  0.00    +0.000 A 
ATOM     25  C   UNL     1       8.003   6.206  19.032  0.00  0.00    +0.000 A 
ATOM     26  C   UNL     1       8.464   7.415  18.517  0.00  0.00    +0.000 A 
ATOM     27  C   UNL     1       7.722   8.082  17.548  0.00  0.00    +0.000 A 
ATOM     28  C   UNL     1       6.500   7.559  17.122  0.00  0.00    +0.000 A 
ENDBRANCH  22  23
ENDBRANCH  10  22
TORSDOF 6
ENDMDL
MODEL 2
REMARK VINA RESULT:      -7.4      0.216      1.005
REMARK  Name = 
REMARK  6 active torsions:
REMARK  status: ('A' for Active; 'I' for Inactive)
REMARK    1  A    between atoms: O_1  and  C_2
REMARK    2  A    between atoms: C_7  and  O_8
REMARK    3  A    between atoms: C_9  and  O_10
REMARK    4  A    between atoms: N_13  and  C_14
REMARK    5  A    between atoms: C_14  and  C_15
REMARK    6  A    between atoms: C_23  and  O_24
REMARK                            x       y       z     vdW  Elec       q    Type
REMARK                         _______ _______ _______ _____ _____    ______ ____
ROOT
ATOM      1  C   UNL     1       2.201   3.531  21.223  0.00  0.00    +0.000 A 
ATOM      2  C   UNL     1       1.734   4.844  21.128  0.00  0.00    +0.000 A 
ATOM      3  C   UNL     1       2.209   5.672  20.084  0.00  0.00    +0.000 A 
ATOM      4  C   UNL     1       1.934   7.022  19.704  0.00  0.00    +0.000 A 
ATOM      5  C   UNL     1       1.109   8.036  20.249  0.00  0.00    +0.000 A 
ATOM      6  C   UNL     1       1.047   9.267  19.605  0.00  0.00    +0.000 A 
ATOM      7  C   UNL     1       1.754   9.495  18.431  0.00  0.00    +0.000 A 
ATOM      8  C   UNL     1       2.565   8.518  17.864  0.00  0.00    +0.000 A 
ATOM      9  C   UNL     1       2.665   7.289  18.542  0.00  0.00    +0.000 A 
ATOM     10  N   UNL     1       3.427   6.167  18.277  0.00  0.00    +0.000 N 
ATOM     11  C   UNL     1       3.139   5.156  19.181  0.00  0.00    +0.000 A 
ATOM     12  C   UNL     1       3.620   3.836  19.274  0.00  0.00    +0.000 A 
ATOM     13  C   UNL     1       3.128   3.038  20.310  0.00  0.00    +0.000 A 
ENDROOT
BRANCH   1  14
ATOM     14  O   UNL     1       1.739   2.711  22.217  0.00  0.00    +0.000 OA
ATOM     15  H   UNL     1       2.327   2.780  22.983  0.00  0.00    +0.000 HD
ENDBRANCH   1  14
BRANCH   6  16
ATOM     16  O   UNL     1       0.291  10.297  20.097  0.00  0.00    +0.000 OA
ATOM     17  H   UNL     1       0.878  11.058  20.242  0.00  0.00    +0.000 HD
ENDBRANCH   6  16
BRANCH   7  18
ATOM     18  O   UNL     1       1.669  10.712  17.814  0.00  0.00    +0.000 OA
ATOM     19  H   UNL     1       0.722  10.946  17.870  0.00  0.00    +0.000 HD
ENDBRANCH   7  18
BRANCH  13  20
ATOM     20  O   UNL     1       3.559   1.744  20.436  0.00  0.00    +0.000 OA
ATOM     21  H   UNL     1       3.010   1.291  21.093  0.00  0.00    +0.000 HD
ENDBRANCH  13  20
BRANCH  10  22
ATOM     22  C   UNL     1       4.452   6.087  17.237  0.00  0.00    +0.000 C 
BRANCH  22  23
ATOM     23  C   UNL     1       5.823   6.568  17.657  0.00  0.00    +0.000 A 
ATOM     24  C   UNL     1       6.408   7.752  17.188  0.00  0.00    +0.000 A 
ATOM     25  C   UNL     1       7.711   8.096  17.551  0.00  0.00    +0.000 A 
ATOM     26  C   UNL     1       8.438   7.278  18.412  0.00  0.00    +0.000 A 
ATOM     27  C   UNL     1       7.852   6.128  18.933  0.00  0.00    +0.000 A 
ATOM     28  C   UNL     1       6.552   5.778  18.564  0.00  0.00    +0.000 A 
ENDBRANCH  22  23
ENDBRANCH  10  22
TORSDOF 6
ENDMDL
MODEL 3
REMARK VINA RESULT:      -7.4      1.029      1.452
REMARK  Name = 
REMARK  6 active torsions:
REMARK  status: ('A' for Active; 'I' for Inactive)
REMARK    1  A    between atoms: O_1  and  C_2
REMARK    2  A    between atoms: C_7  and  O_8
REMARK    3  A    between atoms: C_9  and  O_10
REMARK    4  A    between atoms: N_13  and  C_14
REMARK    5  A    between atoms: C_14  and  C_15
REMARK    6  A    between atoms: C_23  and  O_24
REMARK                            x       y       z     vdW  Elec       q    Type
REMARK                         _______ _______ _______ _____ _____    ______ ____
ROOT
ATOM      1  C   UNL     1       2.442   3.815  20.904  0.00  0.00    +0.000 A 
ATOM      2  C   UNL     1       1.962   5.123  21.005  0.00  0.00    +0.000 A 
ATOM      3  C   UNL     1       2.243   6.044  19.969  0.00  0.00    +0.000 A 
ATOM      4  C   UNL     1       1.902   7.416  19.760  0.00  0.00    +0.000 A 
ATOM      5  C   UNL     1       1.182   8.365  20.524  0.00  0.00    +0.000 A 
ATOM      6  C   UNL     1       1.003   9.645  20.008  0.00  0.00    +0.000 A 
ATOM      7  C   UNL     1       1.493   9.983  18.753  0.00  0.00    +0.000 A 
ATOM      8  C   UNL     1       2.196   9.072  17.972  0.00  0.00    +0.000 A 
ATOM      9  C   UNL     1       2.416   7.793  18.515  0.00  0.00    +0.000 A 
ATOM     10  N   UNL     1       3.124   6.711  18.026  0.00  0.00    +0.000 N 
ATOM     11  C   UNL     1       3.002   5.622  18.876  0.00  0.00    +0.000 A 
ATOM     12  C   UNL     1       3.497   4.308  18.771  0.00  0.00    +0.000 A 
ATOM     13  C   UNL     1       3.196   3.417  19.805  0.00  0.00    +0.000 A 
ENDROOT
BRANCH   1  14
ATOM     14  O   UNL     1       2.164   2.907  21.889  0.00  0.00    +0.000 OA
ATOM     15  H   UNL     1       2.524   2.045  21.637  0.00  0.00    +0.000 HD
ENDBRANCH   1  14
BRANCH   6  16
ATOM     16  O   UNL     1       0.341  10.616  20.711  0.00  0.00    +0.000 OA
ATOM     17  H   UNL     1      -0.229  10.177  21.366  0.00  0.00    +0.000 HD
ENDBRANCH   6  16
BRANCH   7  18
ATOM     18  O   UNL     1       1.298  11.246  18.266  0.00  0.00    +0.000 OA
ATOM     19  H   UNL     1       1.219  11.803  19.066  0.00  0.00    +0.000 HD
ENDBRANCH   7  18
BRANCH  13  20
ATOM     20  O   UNL     1       3.647   2.126  19.742  0.00  0.00    +0.000 OA
ATOM     21  H   UNL     1       4.234   1.960  20.496  0.00  0.00    +0.000 HD
ENDBRANCH  13  20
BRANCH  10  22
ATOM     22  C   UNL     1       3.952   6.737  16.820  0.00  0.00    +0.000 C 
BRANCH  22  23
ATOM     23  C   UNL     1       5.271   6.008  16.939  0.00  0.00    +0.000 A 
ATOM     24  C   UNL     1       5.643   4.936  16.115  0.00  0.00    +0.000 A 
ATOM     25  C   UNL     1       6.842   4.253  16.330  0.00  0.00    +0.000 A 
ATOM     26  C   UNL     1       7.699   4.648  17.353  0.00  0.00    +0.000 A 
ATOM     27  C   UNL     1       7.373   5.746  18.145  0.00  0.00    +0.000 A 
ATOM     28  C   UNL     1       6.171   6.425  17.936  0.00  0.00    +0.000 A 
ENDBRANCH  22  23
ENDBRANCH  10  22
TORSDOF 6
ENDMDL
MODEL 4
REMARK VINA RESULT:      -7.2      1.091      1.561
REMARK  Name = 
REMARK  6 active torsions:
REMARK  status: ('A' for Active; 'I' for Inactive)
REMARK    1  A    between atoms: O_1  and  C_2
REMARK    2  A    between atoms: C_7  and  O_8
REMARK    3  A    between atoms: C_9  and  O_10
REMARK    4  A    between atoms: N_13  and  C_14
REMARK    5  A    between atoms: C_14  and  C_15
REMARK    6  A    between atoms: C_23  and  O_24
REMARK                            x       y       z     vdW  Elec       q    Type
REMARK                         _______ _______ _______ _____ _____    ______ ____
ROOT
ATOM      1  C   UNL     1       2.565   3.485  20.987  0.00  0.00    +0.000 A 
ATOM      2  C   UNL     1       2.039   4.764  21.183  0.00  0.00    +0.000 A 
ATOM      3  C   UNL     1       2.254   5.757  20.198  0.00  0.00    +0.000 A 
ATOM      4  C   UNL     1       1.856   7.125  20.085  0.00  0.00    +0.000 A 
ATOM      5  C   UNL     1       1.125   7.997  20.928  0.00  0.00    +0.000 A 
ATOM      6  C   UNL     1       0.883   9.297  20.497  0.00  0.00    +0.000 A 
ATOM      7  C   UNL     1       1.321   9.730  19.253  0.00  0.00    +0.000 A 
ATOM      8  C   UNL     1       2.033   8.897  18.397  0.00  0.00    +0.000 A 
ATOM      9  C   UNL     1       2.318   7.597  18.852  0.00  0.00    +0.000 A 
ATOM     10  N   UNL     1       3.050   6.575  18.278  0.00  0.00    +0.000 N 
ATOM     11  C   UNL     1       2.995   5.433  19.061  0.00  0.00    +0.000 A 
ATOM     12  C   UNL     1       3.535   4.148  18.860  0.00  0.00    +0.000 A 
ATOM     13  C   UNL     1       3.299   3.184  19.845  0.00  0.00    +0.000 A 
ENDROOT
BRANCH   1  14
ATOM     14  O   UNL     1       2.351   2.508  21.921  0.00  0.00    +0.000 OA
ATOM     15  H   UNL     1       1.940   1.743  21.492  0.00  0.00    +0.000 HD
ENDBRANCH   1  14
BRANCH   6  16
ATOM     16  O   UNL     1       0.207  10.197  21.278  0.00  0.00    +0.000 OA
ATOM     17  H   UNL     1       0.609  11.073  21.143  0.00  0.00    +0.000 HD
ENDBRANCH   6  16
BRANCH   7  18
ATOM     18  O   UNL     1       1.064  11.012  18.851  0.00  0.00    +0.000 OA
ATOM     19  H   UNL     1       1.943  11.440  18.830  0.00  0.00    +0.000 HD
ENDBRANCH   7  18
BRANCH  13  20
ATOM     20  O   UNL     1       3.796   1.918  19.689  0.00  0.00    +0.000 OA
ATOM     21  H   UNL     1       4.716   1.900  19.993  0.00  0.00    +0.000 HD
ENDBRANCH  13  20
BRANCH  10  22
ATOM     22  C   UNL     1       3.839   6.707  17.053  0.00  0.00    +0.000 C 
BRANCH  22  23
ATOM     23  C   UNL     1       5.157   5.967  17.062  0.00  0.00    +0.000 A 
ATOM     24  C   UNL     1       6.207   6.261  17.945  0.00  0.00    +0.000 A 
ATOM     25  C   UNL     1       7.429   5.594  17.846  0.00  0.00    +0.000 A 
ATOM     26  C   UNL     1       7.612   4.604  16.884  0.00  0.00    +0.000 A 
ATOM     27  C   UNL     1       6.562   4.259  16.038  0.00  0.00    +0.000 A 
ATOM     28  C   UNL     1       5.342   4.931  16.130  0.00  0.00    +0.000 A 
ENDBRANCH  22  23
ENDBRANCH  10  22
TORSDOF 6
ENDMDL
MODEL 5
REMARK VINA RESULT:      -7.2      2.497      5.054
REMARK  Name = 
REMARK  6 active torsions:
REMARK  status: ('A' for Active; 'I' for Inactive)
REMARK    1  A    between atoms: O_1  and  C_2
REMARK    2  A    between atoms: C_7  and  O_8
REMARK    3  A    between atoms: C_9  and  O_10
REMARK    4  A    between atoms: N_13  and  C_14
REMARK    5  A    between atoms: C_14  and  C_15
REMARK    6  A    between atoms: C_23  and  O_24
REMARK                            x       y       z     vdW  Elec       q    Type
REMARK                         _______ _______ _______ _____ _____    ______ ____
ROOT
ATOM      1  C   UNL     1       5.459   6.000  16.125  0.00  0.00    +0.000 A 
ATOM      2  C   UNL     1       4.580   7.054  16.382  0.00  0.00    +0.000 A 
ATOM      3  C   UNL     1       3.799   7.030  17.562  0.00  0.00    +0.000 A 
ATOM      4  C   UNL     1       2.838   7.930  18.117  0.00  0.00    +0.000 A 
ATOM      5  C   UNL     1       2.293   9.161  17.678  0.00  0.00    +0.000 A 
ATOM      6  C   UNL     1       1.370   9.811  18.490  0.00  0.00    +0.000 A 
ATOM      7  C   UNL     1       1.008   9.285  19.724  0.00  0.00    +0.000 A 
ATOM      8  C   UNL     1       1.532   8.084  20.189  0.00  0.00    +0.000 A 
ATOM      9  C   UNL     1       2.430   7.403  19.346  0.00  0.00    +0.000 A 
ATOM     10  N   UNL     1       3.056   6.179  19.489  0.00  0.00    +0.000 N 
ATOM     11  C   UNL     1       3.923   5.947  18.433  0.00  0.00    +0.000 A 
ATOM     12  C   UNL     1       4.801   4.877  18.177  0.00  0.00    +0.000 A 
ATOM     13  C   UNL     1       5.566   4.931  17.009  0.00  0.00    +0.000 A 
ENDROOT
BRANCH   1  14
ATOM     14  O   UNL     1       6.235   6.016  14.997  0.00  0.00    +0.000 OA
ATOM     15  H   UNL     1       5.805   6.564  14.325  0.00  0.00    +0.000 HD
ENDBRANCH   1  14
BRANCH   6  16
ATOM     16  O   UNL     1       0.784  10.990  18.110  0.00  0.00    +0.000 OA
ATOM     17  H   UNL     1       0.663  11.536  18.906  0.00  0.00    +0.000 HD
ENDBRANCH   6  16
BRANCH   7  18
ATOM     18  O   UNL     1       0.104   9.949  20.506  0.00  0.00    +0.000 OA
ATOM     19  H   UNL     1       0.022  10.829  20.087  0.00  0.00    +0.000 HD
ENDBRANCH   7  18
BRANCH  13  20
ATOM     20  O   UNL     1       6.441   3.917  16.722  0.00  0.00    +0.000 OA
ATOM     21  H   UNL     1       6.865   3.624  17.543  0.00  0.00    +0.000 HD
ENDBRANCH  13  20
BRANCH  10  22
ATOM     22  C   UNL     1       2.780   5.227  20.565  0.00  0.00    +0.000 C 
BRANCH  22  23
ATOM     23  C   UNL     1       2.233   3.893  20.108  0.00  0.00    +0.000 A 
ATOM     24  C   UNL     1       2.932   2.684  20.229  0.00  0.00    +0.000 A 
ATOM     25  C   UNL     1       2.404   1.500  19.713  0.00  0.00    +0.000 A 
ATOM     26  C   UNL     1       1.157   1.500  19.094  0.00  0.00    +0.000 A 
ATOM     27  C   UNL     1       0.423   2.680  19.016  0.00  0.00    +0.000 A 
ATOM     28  C   UNL     1       0.954   3.867  19.525  0.00  0.00    +0.000 A 
ENDBRANCH  22  23
ENDBRANCH  10  22
TORSDOF 6
ENDMDL
MODEL 6
REMARK VINA RESULT:      -7.1      2.872      5.468
REMARK  Name = 
REMARK  6 active torsions:
REMARK  status: ('A' for Active; 'I' for Inactive)
REMARK    1  A    between atoms: O_1  and  C_2
REMARK    2  A    between atoms: C_7  and  O_8
REMARK    3  A    between atoms: C_9  and  O_10
REMARK    4  A    between atoms: N_13  and  C_14
REMARK    5  A    between atoms: C_14  and  C_15
REMARK    6  A    between atoms: C_23  and  O_24
REMARK                            x       y       z     vdW  Elec       q    Type
REMARK                         _______ _______ _______ _____ _____    ______ ____
ROOT
ATOM      1  C   UNL     1       1.330   2.361  18.575  0.00  0.00    +0.000 A 
ATOM      2  C   UNL     1       2.321   2.449  17.594  0.00  0.00    +0.000 A 
ATOM      3  C   UNL     1       3.192   3.564  17.592  0.00  0.00    +0.000 A 
ATOM      4  C   UNL     1       4.290   3.946  16.761  0.00  0.00    +0.000 A 
ATOM      5  C   UNL     1       4.891   3.365  15.618  0.00  0.00    +0.000 A 
ATOM      6  C   UNL     1       5.991   3.997  15.046  0.00  0.00    +0.000 A 
ATOM      7  C   UNL     1       6.514   5.159  15.598  0.00  0.00    +0.000 A 
ATOM      8  C   UNL     1       5.953   5.750  16.726  0.00  0.00    +0.000 A 
ATOM      9  C   UNL     1       4.813   5.137  17.276  0.00  0.00    +0.000 A 
ATOM     10  N   UNL     1       4.002   5.511  18.330  0.00  0.00    +0.000 N 
ATOM     11  C   UNL     1       3.031   4.551  18.565  0.00  0.00    +0.000 A 
ATOM     12  C   UNL     1       2.029   4.472  19.552  0.00  0.00    +0.000 A 
ATOM     13  C   UNL     1       1.188   3.356  19.536  0.00  0.00    +0.000 A 
ENDROOT
BRANCH   1  14
ATOM     14  O   UNL     1       0.490   1.280  18.601  0.00  0.00    +0.000 OA
ATOM     15  H   UNL     1      -0.260   1.476  19.181  0.00  0.00    +0.000 HD
ENDBRANCH   1  14
BRANCH   6  16
ATOM     16  O   UNL     1       6.599   3.501  13.924  0.00  0.00    +0.000 OA
ATOM     17  H   UNL     1       5.994   2.861  13.512  0.00  0.00    +0.000 HD
ENDBRANCH   6  16
BRANCH   7  18
ATOM     18  O   UNL     1       7.600   5.756  15.020  0.00  0.00    +0.000 OA
ATOM     19  H   UNL     1       7.570   6.678  15.343  0.00  0.00    +0.000 HD
ENDBRANCH   7  18
BRANCH  13  20
ATOM     20  O   UNL     1       0.206   3.231  20.481  0.00  0.00    +0.000 OA
ATOM     21  H   UNL     1       0.491   2.591  21.150  0.00  0.00    +0.000 HD
ENDBRANCH  13  20
BRANCH  10  22
ATOM     22  C   UNL     1       4.106   6.783  19.046  0.00  0.00    +0.000 C 
BRANCH  22  23
ATOM     23  C   UNL     1       2.904   7.689  18.910  0.00  0.00    +0.000 A 
ATOM     24  C   UNL     1       2.558   8.348  17.722  0.00  0.00    +0.000 A 
ATOM     25  C   UNL     1       1.481   9.236  17.687  0.00  0.00    +0.000 A 
ATOM     26  C   UNL     1       0.718   9.458  18.830  0.00  0.00    +0.000 A 
ATOM     27  C   UNL     1       1.012   8.770  20.003  0.00  0.00    +0.000 A 
ATOM     28  C   UNL     1       2.093   7.887  20.042  0.00  0.00    +0.000 A 
ENDBRANCH  22  23
ENDBRANCH  10  22
TORSDOF 6
ENDMDL
MODEL 7
REMARK VINA RESULT:      -7.1      1.054      5.049
REMARK  Name = 
REMARK  6 active torsions:
REMARK  status: ('A' for Active; 'I' for Inactive)
REMARK    1  A    between atoms: O_1  and  C_2
REMARK    2  A    between atoms: C_7  and  O_8
REMARK    3  A    between atoms: C_9  and  O_10
REMARK    4  A    between atoms: N_13  and  C_14
REMARK    5  A    between atoms: C_14  and  C_15
REMARK    6  A    between atoms: C_23  and  O_24
REMARK                            x       y       z     vdW  Elec       q    Type
REMARK                         _______ _______ _______ _____ _____    ______ ____
ROOT
ATOM      1  C   UNL     1       0.914   9.608  19.917  0.00  0.00    +0.000 A 
ATOM      2  C   UNL     1       1.082   8.329  20.452  0.00  0.00    +0.000 A 
ATOM      3  C   UNL     1       1.877   7.388  19.755  0.00  0.00    +0.000 A 
ATOM      4  C   UNL     1       2.252   6.035  20.023  0.00  0.00    +0.000 A 
ATOM      5  C   UNL     1       1.945   5.131  21.068  0.00  0.00    +0.000 A 
ATOM      6  C   UNL     1       2.510   3.860  21.040  0.00  0.00    +0.000 A 
ATOM      7  C   UNL     1       3.384   3.489  20.028  0.00  0.00    +0.000 A 
ATOM      8  C   UNL     1       3.714   4.357  18.992  0.00  0.00    +0.000 A 
ATOM      9  C   UNL     1       3.106   5.625  18.995  0.00  0.00    +0.000 A 
ATOM     10  N   UNL     1       3.174   6.664  18.086  0.00  0.00    +0.000 N 
ATOM     11  C   UNL     1       2.463   7.762  18.546  0.00  0.00    +0.000 A 
ATOM     12  C   UNL     1       2.292   9.048  17.996  0.00  0.00    +0.000 A 
ATOM     13  C   UNL     1       1.509   9.959  18.710  0.00  0.00    +0.000 A 
ENDROOT
BRANCH   1  14
ATOM     14  O   UNL     1       0.163  10.536  20.587  0.00  0.00    +0.000 OA
ATOM     15  H   UNL     1      -0.564  10.086  21.043  0.00  0.00    +0.000 HD
ENDBRANCH   1  14
BRANCH   6  16
ATOM     16  O   UNL     1       2.230   2.930  22.006  0.00  0.00    +0.000 OA
ATOM     17  H   UNL     1       1.315   3.073  22.305  0.00  0.00    +0.000 HD
ENDBRANCH   6  16
BRANCH   7  18
ATOM     18  O   UNL     1       3.931   2.235  20.029  0.00  0.00    +0.000 OA
ATOM     19  H   UNL     1       3.729   1.882  19.140  0.00  0.00    +0.000 HD
ENDBRANCH   7  18
BRANCH  13  20
ATOM     20  O   UNL     1       1.322  11.224  18.220  0.00  0.00    +0.000 OA
ATOM     21  H   UNL     1       0.531  11.607  18.629  0.00  0.00    +0.000 HD
ENDBRANCH  13  20
BRANCH  10  22
ATOM     22  C   UNL     1       3.837   6.587  16.785  0.00  0.00    +0.000 C 
BRANCH  22  23
ATOM     23  C   UNL     1       5.183   5.898  16.797  0.00  0.00    +0.000 A 
ATOM     24  C   UNL     1       5.509   4.817  15.966  0.00  0.00    +0.000 A 
ATOM     25  C   UNL     1       6.742   4.173  16.085  0.00  0.00    +0.000 A 
ATOM     26  C   UNL     1       7.678   4.617  17.015  0.00  0.00    +0.000 A 
ATOM     27  C   UNL     1       7.393   5.725  17.808  0.00  0.00    +0.000 A 
ATOM     28  C   UNL     1       6.158   6.365  17.696  0.00  0.00    +0.000 A 
ENDBRANCH  22  23
ENDBRANCH  10  22
TORSDOF 6
ENDMDL
MODEL 8
REMARK VINA RESULT:      -7.0      0.231      4.856
REMARK  Name = 
REMARK  6 active torsions:
REMARK  status: ('A' for Active; 'I' for Inactive)
REMARK    1  A    between atoms: O_1  and  C_2
REMARK    2  A    between atoms: C_7  and  O_8
REMARK    3  A    between atoms: C_9  and  O_10
REMARK    4  A    between atoms: N_13  and  C_14
REMARK    5  A    between atoms: C_14  and  C_15
REMARK    6  A    between atoms: C_23  and  O_24
REMARK                            x       y       z     vdW  Elec       q    Type
REMARK                         _______ _______ _______ _____ _____    ______ ____
ROOT
ATOM      1  C   UNL     1       0.948   9.194  19.177  0.00  0.00    +0.000 A 
ATOM      2  C   UNL     1       0.929   7.974  19.856  0.00  0.00    +0.000 A 
ATOM      3  C   UNL     1       1.877   6.980  19.518  0.00  0.00    +0.000 A 
ATOM      4  C   UNL     1       2.133   5.663  20.012  0.00  0.00    +0.000 A 
ATOM      5  C   UNL     1       1.516   4.860  21.000  0.00  0.00    +0.000 A 
ATOM      6  C   UNL     1       2.042   3.599  21.262  0.00  0.00    +0.000 A 
ATOM      7  C   UNL     1       3.170   3.142  20.593  0.00  0.00    +0.000 A 
ATOM      8  C   UNL     1       3.805   3.911  19.623  0.00  0.00    +0.000 A 
ATOM      9  C   UNL     1       3.245   5.166  19.325  0.00  0.00    +0.000 A 
ATOM     10  N   UNL     1       3.596   6.114  18.383  0.00  0.00    +0.000 N 
ATOM     11  C   UNL     1       2.801   7.243  18.505  0.00  0.00    +0.000 A 
ATOM     12  C   UNL     1       2.821   8.467  17.810  0.00  0.00    +0.000 A 
ATOM     13  C   UNL     1       1.879   9.434  18.171  0.00  0.00    +0.000 A 
ENDROOT
BRANCH   1  14
ATOM     14  O   UNL     1       0.048  10.173  19.504  0.00  0.00    +0.000 OA
ATOM     15  H   UNL     1      -0.615  10.241  18.802  0.00  0.00    +0.000 HD
ENDBRANCH   1  14
BRANCH   6  16
ATOM     16  O   UNL     1       1.473   2.762  22.186  0.00  0.00    +0.000 OA
ATOM     17  H   UNL     1       2.190   2.293  22.647  0.00  0.00    +0.000 HD
ENDBRANCH   6  16
BRANCH   7  18
ATOM     18  O   UNL     1       3.670   1.901  20.874  0.00  0.00    +0.000 OA
ATOM     19  H   UNL     1       4.293   1.721  20.143  0.00  0.00    +0.000 HD
ENDBRANCH   7  18
BRANCH  13  20
ATOM     20  O   UNL     1       1.866  10.644  17.530  0.00  0.00    +0.000 OA
ATOM     21  H   UNL     1       1.290  11.253  18.017  0.00  0.00    +0.000 HD
ENDBRANCH  13  20
BRANCH  10  22
ATOM     22  C   UNL     1       4.612   5.920  17.349  0.00  0.00    +0.000 C 
BRANCH  22  23
ATOM     23  C   UNL     1       5.997   6.401  17.719  0.00  0.00    +0.000 A 
ATOM     24  C   UNL     1       6.845   5.720  18.604  0.00  0.00    +0.000 A 
ATOM     25  C   UNL     1       8.079   6.261  18.967  0.00  0.00    +0.000 A 
ATOM     26  C   UNL     1       8.497   7.476  18.431  0.00  0.00    +0.000 A 
ATOM     27  C   UNL     1       7.693   8.138  17.507  0.00  0.00    +0.000 A 
ATOM     28  C   UNL     1       6.455   7.602  17.149  0.00  0.00    +0.000 A 
ENDBRANCH  22  23
ENDBRANCH  10  22
TORSDOF 6
ENDMDL
MODEL 9
REMARK VINA RESULT:      -7.0      1.113      5.046
REMARK  Name = 
REMARK  6 active torsions:
REMARK  status: ('A' for Active; 'I' for Inactive)
REMARK    1  A    between atoms: O_1  and  C_2
REMARK    2  A    between atoms: C_7  and  O_8
REMARK    3  A    between atoms: C_9  and  O_10
REMARK    4  A    between atoms: N_13  and  C_14
REMARK    5  A    between atoms: C_14  and  C_15
REMARK    6  A    between atoms: C_23  and  O_24
REMARK                            x       y       z     vdW  Elec       q    Type
REMARK                         _______ _______ _______ _____ _____    ______ ____
ROOT
ATOM      1  C   UNL     1       0.765   9.281  20.477  0.00  0.00    +0.000 A 
ATOM      2  C   UNL     1       0.978   7.966  20.900  0.00  0.00    +0.000 A 
ATOM      3  C   UNL     1       1.783   7.110  20.112  0.00  0.00    +0.000 A 
ATOM      4  C   UNL     1       2.200   5.751  20.259  0.00  0.00    +0.000 A 
ATOM      5  C   UNL     1       1.937   4.754  21.229  0.00  0.00    +0.000 A 
ATOM      6  C   UNL     1       2.535   3.506  21.085  0.00  0.00    +0.000 A 
ATOM      7  C   UNL     1       3.400   3.246  20.030  0.00  0.00    +0.000 A 
ATOM      8  C   UNL     1       3.687   4.206  19.066  0.00  0.00    +0.000 A 
ATOM      9  C   UNL     1       3.045   5.452  19.185  0.00  0.00    +0.000 A 
ATOM     10  N   UNL     1       3.067   6.565  18.367  0.00  0.00    +0.000 N 
ATOM     11  C   UNL     1       2.337   7.601  18.929  0.00  0.00    +0.000 A 
ATOM     12  C   UNL     1       2.120   8.922  18.493  0.00  0.00    +0.000 A 
ATOM     13  C   UNL     1       1.328   9.748  19.294  0.00  0.00    +0.000 A 
ENDROOT
BRANCH   1  14
ATOM     14  O   UNL     1       0.003  10.127  21.236  0.00  0.00    +0.000 OA
ATOM     15  H   UNL     1       0.518  10.417  22.003  0.00  0.00    +0.000 HD
ENDBRANCH   1  14
BRANCH   6  16
ATOM     16  O   UNL     1       2.299   2.491  21.974  0.00  0.00    +0.000 OA
ATOM     17  H   UNL     1       1.353   2.503  22.199  0.00  0.00    +0.000 HD
ENDBRANCH   6  16
BRANCH   7  18
ATOM     18  O   UNL     1       3.980   2.013  19.917  0.00  0.00    +0.000 OA
ATOM     19  H   UNL     1       3.250   1.428  19.631  0.00  0.00    +0.000 HD
ENDBRANCH   7  18
BRANCH  13  20
ATOM     20  O   UNL     1       1.097  11.044  18.916  0.00  0.00    +0.000 OA
ATOM     21  H   UNL     1       0.259  11.086  18.430  0.00  0.00    +0.000 HD
ENDBRANCH  13  20
BRANCH  10  22
ATOM     22  C   UNL     1       3.707   6.616  17.052  0.00  0.00    +0.000 C 
BRANCH  22  23
ATOM     23  C   UNL     1       5.053   5.933  16.974  0.00  0.00    +0.000 A 
ATOM     24  C   UNL     1       6.169   6.326  17.727  0.00  0.00    +0.000 A 
ATOM     25  C   UNL     1       7.406   5.705  17.546  0.00  0.00    +0.000 A 
ATOM     26  C   UNL     1       7.540   4.664  16.632  0.00  0.00    +0.000 A 
ATOM     27  C   UNL     1       6.431   4.222  15.917  0.00  0.00    +0.000 A 
ATOM     28  C   UNL     1       5.195   4.848  16.090  0.00  0.00    +0.000 A 
ENDBRANCH  22  23
ENDBRANCH  10  22
TORSDOF 6
ENDMDL
