MODEL 1
REMARK VINA RESULT:      -8.5      0.000      0.000
REMARK  Name = 
REMARK  4 active torsions:
REMARK  status: ('A' for Active; 'I' for Inactive)
REMARK    1  A    between atoms: C_1  and  C_2
REMARK    2  A    between atoms: C_2  and  C_3
REMARK    3  A    between atoms: C_7  and  S_8
REMARK    4  A    between atoms: S_8  and  C_9
REMARK                            x       y       z     vdW  Elec       q    Type
REMARK                         _______ _______ _______ _____ _____    ______ ____
ROOT
ATOM      1  C   UNL     1       2.379   4.674  20.905  0.00  0.00    +0.000 A 
ATOM      2  N   UNL     1       1.691   5.860  20.958  0.00  0.00    +0.000 N 
ATOM      3  C   UNL     1       2.056   6.658  19.908  0.00  0.00    +0.000 A 
ATOM      4  N   UNL     1       1.589   7.896  19.715  0.00  0.00    +0.000 NA
ATOM      5  C   UNL     1       2.141   8.485  18.641  0.00  0.00    +0.000 A 
ATOM      6  N   UNL     1       3.071   7.955  17.812  0.00  0.00    +0.000 NA
ATOM      7  C   UNL     1       3.497   6.678  18.016  0.00  0.00    +0.000 A 
ATOM      8  N   UNL     1       4.477   6.122  17.232  0.00  0.00    +0.000 N 
ATOM      9  C   UNL     1       5.516   6.924  16.598  0.00  0.00    +0.000 C 
ATOM     10  C   UNL     1       6.347   5.875  15.810  0.00  0.00    +0.000 C 
ATOM     11  C   UNL     1       7.617   5.437  16.531  0.00  0.00    +0.000 C 
ATOM     12  C   UNL     1       7.125   4.385  17.498  0.00  0.00    +0.000 C 
ATOM     13  N   UNL     1       6.150   3.635  16.701  0.00  0.00    +0.000 NA
ATOM     14  C   UNL     1       5.480   4.601  15.794  0.00  0.00    +0.000 C 
ATOM     15  C   UNL     1       4.097   5.089  16.275  0.00  0.00    +0.000 C 
ATOM     16  C   UNL     1       2.971   5.976  19.125  0.00  0.00    +0.000 A 
ATOM     17  C   UNL     1       3.146   4.706  19.756  0.00  0.00    +0.000 A 
ATOM     18 CL   UNL     1       4.154   3.425  19.267  0.00  0.00    +0.000 Cl
ATOM     19  H   UNL     1       1.040   6.144  21.677  0.00  0.00    +0.000 HD
ATOM     20  H   UNL     1       5.462   3.223  17.340  0.00  0.00    +0.000 HD
ENDROOT
BRANCH   1  22
ATOM     21  C   UNL     1       1.422   2.452  21.520  0.00  0.00    +0.000 C 
ATOM     22  C   UNL     1       2.275   3.627  21.962  0.00  0.00    +0.000 C 
ENDBRANCH   1  22
BRANCH   5  23
ATOM     23  S   UNL     1       1.453  10.081  18.228  0.00  0.00    +0.000 S 
BRANCH  23  24
ATOM     24  C   UNL     1       0.601  10.538  19.712  0.00  0.00    +0.000 A 
ATOM     25  C   UNL     1       1.161  10.364  20.965  0.00  0.00    +0.000 A 
ATOM     26  N   UNL     1       0.582  10.765  22.120  0.00  0.00    +0.000 NA
ATOM     27  C   UNL     1      -0.600  11.384  22.057  0.00  0.00    +0.000 A 
ATOM     28  N   UNL     1      -1.161  11.789  23.200  0.00  0.00    +0.000 NA
ATOM     29  C   UNL     1      -2.352  12.425  23.120  0.00  0.00    +0.000 A 
ATOM     30  C   UNL     1      -2.988  12.654  21.920  0.00  0.00    +0.000 A 
ATOM     31  N   UNL     1      -2.452  12.263  20.747  0.00  0.00    +0.000 NA
ATOM     32  C   UNL     1      -1.258  11.624  20.825  0.00  0.00    +0.000 A 
ATOM     33  C   UNL     1      -0.630  11.193  19.661  0.00  0.00    +0.000 A 
ENDBRANCH  23  24
ENDBRANCH   5  23
TORSDOF 3
ENDMDL
MODEL 2
REMARK VINA RESULT:      -8.3      3.433      8.852
REMARK  Name = 
REMARK  4 active torsions:
REMARK  status: ('A' for Active; 'I' for Inactive)
REMARK    1  A    between atoms: C_1  and  C_2
REMARK    2  A    between atoms: C_2  and  C_3
REMARK    3  A    between atoms: C_7  and  S_8
REMARK    4  A    between atoms: S_8  and  C_9
REMARK                            x       y       z     vdW  Elec       q    Type
REMARK                         _______ _______ _______ _____ _____    ______ ____
ROOT
ATOM      1  C   UNL     1      -3.115  10.763  17.787  0.00  0.00    +0.000 A 
ATOM      2  N   UNL     1      -2.225   9.876  17.235  0.00  0.00    +0.000 N 
ATOM      3  C   UNL     1      -0.994  10.032  17.812  0.00  0.00    +0.000 A 
ATOM      4  N   UNL     1       0.091   9.340  17.451  0.00  0.00    +0.000 NA
ATOM      5  C   UNL     1       1.185   9.715  18.136  0.00  0.00    +0.000 A 
ATOM      6  N   UNL     1       1.257  10.677  19.086  0.00  0.00    +0.000 NA
ATOM      7  C   UNL     1       0.125  11.338  19.455  0.00  0.00    +0.000 A 
ATOM      8  N   UNL     1       0.164  12.356  20.375  0.00  0.00    +0.000 N 
ATOM      9  C   UNL     1       1.342  13.196  20.557  0.00  0.00    +0.000 C 
ATOM     10  C   UNL     1       0.922  14.157  21.702  0.00  0.00    +0.000 C 
ATOM     11  C   UNL     1       0.457  15.523  21.212  0.00  0.00    +0.000 C 
ATOM     12  C   UNL     1      -0.985  15.285  20.826  0.00  0.00    +0.000 C 
ATOM     13  N   UNL     1      -1.475  14.417  21.901  0.00  0.00    +0.000 NA
ATOM     14  C   UNL     1      -0.351  13.535  22.306  0.00  0.00    +0.000 C 
ATOM     15  C   UNL     1      -0.393  12.115  21.701  0.00  0.00    +0.000 C 
ATOM     16  C   UNL     1      -1.078  11.009  18.788  0.00  0.00    +0.000 A 
ATOM     17  C   UNL     1      -2.438  11.446  18.779  0.00  0.00    +0.000 A 
ATOM     18 CL   UNL     1      -3.161  12.639  19.755  0.00  0.00    +0.000 Cl
ATOM     19  H   UNL     1      -2.414   9.226  16.485  0.00  0.00    +0.000 HD
ATOM     20  H   UNL     1      -2.246  13.852  21.532  0.00  0.00    +0.000 HD
ENDROOT
BRANCH   1  22
ATOM     21  C   UNL     1      -5.531  10.614  18.400  0.00  0.00    +0.000 C 
ATOM     22  C   UNL     1      -4.520  10.909  17.306  0.00  0.00    +0.000 C 
ENDBRANCH   1  22
BRANCH   5  23
ATOM     23  S   UNL     1       2.640   8.729  17.820  0.00  0.00    +0.000 S 
BRANCH  23  24
ATOM     24  C   UNL     1       2.326   7.255  18.750  0.00  0.00    +0.000 A 
ATOM     25  C   UNL     1       1.985   7.290  20.091  0.00  0.00    +0.000 A 
ATOM     26  N   UNL     1       1.662   6.199  20.824  0.00  0.00    +0.000 NA
ATOM     27  C   UNL     1       1.656   5.008  20.220  0.00  0.00    +0.000 A 
ATOM     28  N   UNL     1       1.325   3.936  20.945  0.00  0.00    +0.000 NA
ATOM     29  C   UNL     1       1.310   2.738  20.318  0.00  0.00    +0.000 A 
ATOM     30  C   UNL     1       1.625   2.598  18.985  0.00  0.00    +0.000 A 
ATOM     31  N   UNL     1       1.961   3.656  18.221  0.00  0.00    +0.000 NA
ATOM     32  C   UNL     1       1.977   4.858  18.848  0.00  0.00    +0.000 A 
ATOM     33  C   UNL     1       2.306   6.004  18.132  0.00  0.00    +0.000 A 
ENDBRANCH  23  24
ENDBRANCH   5  23
TORSDOF 3
ENDMDL
MODEL 3
REMARK VINA RESULT:      -8.2      3.638      8.558
REMARK  Name = 
REMARK  4 active torsions:
REMARK  status: ('A' for Active; 'I' for Inactive)
REMARK    1  A    between atoms: C_1  and  C_2
REMARK    2  A    between atoms: C_2  and  C_3
REMARK    3  A    between atoms: C_7  and  S_8
REMARK    4  A    between atoms: S_8  and  C_9
REMARK                            x       y       z     vdW  Elec       q    Type
REMARK                         _______ _______ _______ _____ _____    ______ ____
ROOT
ATOM      1  C   UNL     1      -2.335  11.172  18.550  0.00  0.00    +0.000 A 
ATOM      2  N   UNL     1      -1.720  10.046  18.065  0.00  0.00    +0.000 N 
ATOM      3  C   UNL     1      -0.361  10.174  18.169  0.00  0.00    +0.000 A 
ATOM      4  N   UNL     1       0.510   9.257  17.736  0.00  0.00    +0.000 NA
ATOM      5  C   UNL     1       1.784   9.645  17.911  0.00  0.00    +0.000 A 
ATOM      6  N   UNL     1       2.212  10.813  18.446  0.00  0.00    +0.000 NA
ATOM      7  C   UNL     1       1.297  11.709  18.910  0.00  0.00    +0.000 A 
ATOM      8  N   UNL     1       1.687  12.927  19.409  0.00  0.00    +0.000 N 
ATOM      9  C   UNL     1       2.898  13.602  18.960  0.00  0.00    +0.000 C 
ATOM     10  C   UNL     1       2.925  14.896  19.818  0.00  0.00    +0.000 C 
ATOM     11  C   UNL     1       2.392  16.123  19.087  0.00  0.00    +0.000 C 
ATOM     12  C   UNL     1       0.894  16.000  19.244  0.00  0.00    +0.000 C 
ATOM     13  N   UNL     1       0.743  15.551  20.630  0.00  0.00    +0.000 NA
ATOM     14  C   UNL     1       1.893  14.662  20.937  0.00  0.00    +0.000 C 
ATOM     15  C   UNL     1       1.585  13.152  20.846  0.00  0.00    +0.000 C 
ATOM     16  C   UNL     1      -0.072  11.387  18.769  0.00  0.00    +0.000 A 
ATOM     17  C   UNL     1      -1.337  11.998  19.030  0.00  0.00    +0.000 A 
ATOM     18 CL   UNL     1      -1.640  13.510  19.753  0.00  0.00    +0.000 Cl
ATOM     19  H   UNL     1      -2.176   9.246  17.647  0.00  0.00    +0.000 HD
ATOM     20  H   UNL     1      -0.134  15.024  20.704  0.00  0.00    +0.000 HD
ENDROOT
BRANCH   1  22
ATOM     21  C   UNL     1      -4.309  11.523  17.063  0.00  0.00    +0.000 C 
ATOM     22  C   UNL     1      -3.810  11.381  18.490  0.00  0.00    +0.000 C 
ENDBRANCH   1  22
BRANCH   5  23
ATOM     23  S   UNL     1       3.005   8.407  17.500  0.00  0.00    +0.000 S 
BRANCH  23  24
ATOM     24  C   UNL     1       2.553   7.048  18.542  0.00  0.00    +0.000 A 
ATOM     25  C   UNL     1       2.169   7.228  19.859  0.00  0.00    +0.000 A 
ATOM     26  N   UNL     1       1.743   6.232  20.671  0.00  0.00    +0.000 NA
ATOM     27  C   UNL     1       1.673   4.994  20.174  0.00  0.00    +0.000 A 
ATOM     28  N   UNL     1       1.240   4.017  20.977  0.00  0.00    +0.000 NA
ATOM     29  C   UNL     1       1.162   2.771  20.457  0.00  0.00    +0.000 A 
ATOM     30  C   UNL     1       1.514   2.490  19.156  0.00  0.00    +0.000 A 
ATOM     31  N   UNL     1       1.952   3.449  18.317  0.00  0.00    +0.000 NA
ATOM     32  C   UNL     1       2.031   4.699  18.836  0.00  0.00    +0.000 A 
ATOM     33  C   UNL     1       2.466   5.751  18.036  0.00  0.00    +0.000 A 
ENDBRANCH  23  24
ENDBRANCH   5  23
TORSDOF 3
ENDMDL
MODEL 4
REMARK VINA RESULT:      -8.1      3.675     10.426
REMARK  Name = 
REMARK  4 active torsions:
REMARK  status: ('A' for Active; 'I' for Inactive)
REMARK    1  A    between atoms: C_1  and  C_2
REMARK    2  A    between atoms: C_2  and  C_3
REMARK    3  A    between atoms: C_7  and  S_8
REMARK    4  A    between atoms: S_8  and  C_9
REMARK                            x       y       z     vdW  Elec       q    Type
REMARK                         _______ _______ _______ _____ _____    ______ ____
ROOT
ATOM      1  C   UNL     1      -5.414  11.866  18.866  0.00  0.00    +0.000 A 
ATOM      2  N   UNL     1      -4.257  11.744  18.139  0.00  0.00    +0.000 N 
ATOM      3  C   UNL     1      -3.186  12.135  18.896  0.00  0.00    +0.000 A 
ATOM      4  N   UNL     1      -1.928  12.170  18.446  0.00  0.00    +0.000 NA
ATOM      5  C   UNL     1      -1.071  12.638  19.369  0.00  0.00    +0.000 A 
ATOM      6  N   UNL     1      -1.374  13.051  20.622  0.00  0.00    +0.000 NA
ATOM      7  C   UNL     1      -2.660  12.967  21.061  0.00  0.00    +0.000 A 
ATOM      8  N   UNL     1      -3.018  13.425  22.304  0.00  0.00    +0.000 N 
ATOM      9  C   UNL     1      -2.310  14.514  22.967  0.00  0.00    +0.000 C 
ATOM     10  C   UNL     1      -3.046  14.642  24.328  0.00  0.00    +0.000 C 
ATOM     11  C   UNL     1      -4.078  15.763  24.360  0.00  0.00    +0.000 C 
ATOM     12  C   UNL     1      -5.294  15.138  23.714  0.00  0.00    +0.000 C 
ATOM     13  N   UNL     1      -5.308  13.786  24.277  0.00  0.00    +0.000 NA
ATOM     14  C   UNL     1      -3.895  13.363  24.452  0.00  0.00    +0.000 C 
ATOM     15  C   UNL     1      -3.350  12.448  23.334  0.00  0.00    +0.000 C 
ATOM     16  C   UNL     1      -3.635  12.485  20.157  0.00  0.00    +0.000 A 
ATOM     17  C   UNL     1      -5.049  12.284  20.132  0.00  0.00    +0.000 A 
ATOM     18 CL   UNL     1      -6.166  12.547  21.389  0.00  0.00    +0.000 Cl
ATOM     19  H   UNL     1      -4.184  11.452  17.174  0.00  0.00    +0.000 HD
ATOM     20  H   UNL     1      -5.778  13.165  23.610  0.00  0.00    +0.000 HD
ENDROOT
BRANCH   1  22
ATOM     21  C   UNL     1      -7.247  12.758  17.425  0.00  0.00    +0.000 C 
ATOM     22  C   UNL     1      -6.765  11.608  18.291  0.00  0.00    +0.000 C 
ENDBRANCH   1  22
BRANCH   5  23
ATOM     23  S   UNL     1       0.650  12.569  18.895  0.00  0.00    +0.000 S 
BRANCH  23  24
ATOM     24  C   UNL     1       1.106  10.909  19.311  0.00  0.00    +0.000 A 
ATOM     25  C   UNL     1       0.796  10.347  20.537  0.00  0.00    +0.000 A 
ATOM     26  N   UNL     1       1.055   9.062  20.874  0.00  0.00    +0.000 NA
ATOM     27  C   UNL     1       1.635   8.273  19.966  0.00  0.00    +0.000 A 
ATOM     28  N   UNL     1       1.878   7.002  20.299  0.00  0.00    +0.000 NA
ATOM     29  C   UNL     1       2.454   6.210  19.366  0.00  0.00    +0.000 A 
ATOM     30  C   UNL     1       2.794   6.672  18.114  0.00  0.00    +0.000 A 
ATOM     31  N   UNL     1       2.562   7.946  17.741  0.00  0.00    +0.000 NA
ATOM     32  C   UNL     1       1.985   8.741  18.675  0.00  0.00    +0.000 A 
ATOM     33  C   UNL     1       1.704  10.069  18.371  0.00  0.00    +0.000 A 
ENDBRANCH  23  24
ENDBRANCH   5  23
TORSDOF 3
ENDMDL
MODEL 5
REMARK VINA RESULT:      -8.0      3.941     10.332
REMARK  Name = 
REMARK  4 active torsions:
REMARK  status: ('A' for Active; 'I' for Inactive)
REMARK    1  A    between atoms: C_1  and  C_2
REMARK    2  A    between atoms: C_2  and  C_3
REMARK    3  A    between atoms: C_7  and  S_8
REMARK    4  A    between atoms: S_8  and  C_9
REMARK                            x       y       z     vdW  Elec       q    Type
REMARK                         _______ _______ _______ _____ _____    ______ ____
ROOT
ATOM      1  C   UNL     1      -5.092  11.885  18.695  0.00  0.00    +0.000 A 
ATOM      2  N   UNL     1      -3.891  11.814  18.035  0.00  0.00    +0.000 N 
ATOM      3  C   UNL     1      -2.875  12.181  18.875  0.00  0.00    +0.000 A 
ATOM      4  N   UNL     1      -1.592  12.254  18.506  0.00  0.00    +0.000 NA
ATOM      5  C   UNL     1      -0.801  12.686  19.503  0.00  0.00    +0.000 A 
ATOM      6  N   UNL     1      -1.186  13.031  20.754  0.00  0.00    +0.000 NA
ATOM      7  C   UNL     1      -2.495  12.908  21.107  0.00  0.00    +0.000 A 
ATOM      8  N   UNL     1      -2.935  13.298  22.348  0.00  0.00    +0.000 N 
ATOM      9  C   UNL     1      -2.287  14.360  23.106  0.00  0.00    +0.000 C 
ATOM     10  C   UNL     1      -3.106  14.411  24.424  0.00  0.00    +0.000 C 
ATOM     11  C   UNL     1      -4.156  15.515  24.448  0.00  0.00    +0.000 C 
ATOM     12  C   UNL     1      -5.320  14.909  23.697  0.00  0.00    +0.000 C 
ATOM     13  N   UNL     1      -5.347  13.529  24.191  0.00  0.00    +0.000 NA
ATOM     14  C   UNL     1      -3.941  13.116  24.431  0.00  0.00    +0.000 C 
ATOM     15  C   UNL     1      -3.314  12.266  23.305  0.00  0.00    +0.000 C 
ATOM     16  C   UNL     1      -3.405  12.461  20.122  0.00  0.00    +0.000 A 
ATOM     17  C   UNL     1      -4.812  12.243  20.000  0.00  0.00    +0.000 A 
ATOM     18 CL   UNL     1      -6.008  12.427  21.197  0.00  0.00    +0.000 Cl
ATOM     19  H   UNL     1      -3.754  11.573  17.063  0.00  0.00    +0.000 HD
ATOM     20  H   UNL     1      -5.765  12.937  23.466  0.00  0.00    +0.000 HD
ENDROOT
BRANCH   1  22
ATOM     21  C   UNL     1      -7.165  12.928  17.773  0.00  0.00    +0.000 C 
ATOM     22  C   UNL     1      -6.402  11.639  18.026  0.00  0.00    +0.000 C 
ENDBRANCH   1  22
BRANCH   5  23
ATOM     23  S   UNL     1       0.947  12.662  19.133  0.00  0.00    +0.000 S 
BRANCH  23  24
ATOM     24  C   UNL     1       1.292  10.932  18.973  0.00  0.00    +0.000 A 
ATOM     25  C   UNL     1       1.849  10.397  17.825  0.00  0.00    +0.000 A 
ATOM     26  N   UNL     1       2.200   9.098  17.683  0.00  0.00    +0.000 NA
ATOM     27  C   UNL     1       2.014   8.273  18.717  0.00  0.00    +0.000 A 
ATOM     28  N   UNL     1       2.373   6.994  18.575  0.00  0.00    +0.000 NA
ATOM     29  C   UNL     1       2.191   6.173  19.634  0.00  0.00    +0.000 A 
ATOM     30  C   UNL     1       1.652   6.610  20.824  0.00  0.00    +0.000 A 
ATOM     31  N   UNL     1       1.280   7.893  21.005  0.00  0.00    +0.000 NA
ATOM     32  C   UNL     1       1.461   8.718  19.944  0.00  0.00    +0.000 A 
ATOM     33  C   UNL     1       1.111  10.060  20.047  0.00  0.00    +0.000 A 
ENDBRANCH  23  24
ENDBRANCH   5  23
TORSDOF 3
ENDMDL
MODEL 6
REMARK VINA RESULT:      -7.9      2.320      4.850
REMARK  Name = 
REMARK  4 active torsions:
REMARK  status: ('A' for Active; 'I' for Inactive)
REMARK    1  A    between atoms: C_1  and  C_2
REMARK    2  A    between atoms: C_2  and  C_3
REMARK    3  A    between atoms: C_7  and  S_8
REMARK    4  A    between atoms: S_8  and  C_9
REMARK                            x       y       z     vdW  Elec       q    Type
REMARK                         _______ _______ _______ _____ _____    ______ ____
ROOT
ATOM      1  C   UNL     1       4.692   6.502  16.441  0.00  0.00    +0.000 A 
ATOM      2  N   UNL     1       4.225   7.770  16.676  0.00  0.00    +0.000 N 
ATOM      3  C   UNL     1       3.357   7.759  17.734  0.00  0.00    +0.000 A 
ATOM      4  N   UNL     1       2.703   8.839  18.174  0.00  0.00    +0.000 NA
ATOM      5  C   UNL     1       1.874   8.552  19.191  0.00  0.00    +0.000 A 
ATOM      6  N   UNL     1       1.667   7.337  19.752  0.00  0.00    +0.000 NA
ATOM      7  C   UNL     1       2.377   6.265  19.303  0.00  0.00    +0.000 A 
ATOM      8  N   UNL     1       2.157   5.007  19.807  0.00  0.00    +0.000 N 
ATOM      9  C   UNL     1       0.862   4.593  20.333  0.00  0.00    +0.000 C 
ATOM     10  C   UNL     1       1.116   3.135  20.803  0.00  0.00    +0.000 C 
ATOM     11  C   UNL     1       0.652   2.083  19.803  0.00  0.00    +0.000 C 
ATOM     12  C   UNL     1       1.795   2.009  18.816  0.00  0.00    +0.000 C 
ATOM     13  N   UNL     1       2.979   2.079  19.678  0.00  0.00    +0.000 NA
ATOM     14  C   UNL     1       2.648   2.975  20.815  0.00  0.00    +0.000 C 
ATOM     15  C   UNL     1       3.173   4.420  20.674  0.00  0.00    +0.000 C 
ATOM     16  C   UNL     1       3.276   6.471  18.232  0.00  0.00    +0.000 A 
ATOM     17  C   UNL     1       4.150   5.688  17.417  0.00  0.00    +0.000 A 
ATOM     18 CL   UNL     1       4.476   4.021  17.533  0.00  0.00    +0.000 Cl
ATOM     19  H   UNL     1       4.441   8.598  16.138  0.00  0.00    +0.000 HD
ATOM     20  H   UNL     1       3.750   2.478  19.132  0.00  0.00    +0.000 HD
ENDROOT
BRANCH   1  22
ATOM     21  C   UNL     1       6.858   5.473  15.745  0.00  0.00    +0.000 C 
ATOM     22  C   UNL     1       5.584   6.165  15.294  0.00  0.00    +0.000 C 
ENDBRANCH   1  22
BRANCH   5  23
ATOM     23  S   UNL     1       1.083   9.971  19.934  0.00  0.00    +0.000 S 
BRANCH  23  24
ATOM     24  C   UNL     1      -0.327  10.225  18.894  0.00  0.00    +0.000 A 
ATOM     25  C   UNL     1      -0.474   9.573  17.682  0.00  0.00    +0.000 A 
ATOM     26  N   UNL     1      -1.566   9.675  16.889  0.00  0.00    +0.000 NA
ATOM     27  C   UNL     1      -2.579  10.442  17.300  0.00  0.00    +0.000 A 
ATOM     28  N   UNL     1      -3.660  10.530  16.518  0.00  0.00    +0.000 NA
ATOM     29  C   UNL     1      -4.683  11.301  16.952  0.00  0.00    +0.000 A 
ATOM     30  C   UNL     1      -4.638  11.984  18.147  0.00  0.00    +0.000 A 
ATOM     31  N   UNL     1      -3.567  11.917  18.962  0.00  0.00    +0.000 NA
ATOM     32  C   UNL     1      -2.539  11.146  18.529  0.00  0.00    +0.000 A 
ATOM     33  C   UNL     1      -1.398  11.016  19.313  0.00  0.00    +0.000 A 
ENDBRANCH  23  24
ENDBRANCH   5  23
TORSDOF 3
ENDMDL
MODEL 7
REMARK VINA RESULT:      -7.8      3.888     10.165
REMARK  Name = 
REMARK  4 active torsions:
REMARK  status: ('A' for Active; 'I' for Inactive)
REMARK    1  A    between atoms: C_1  and  C_2
REMARK    2  A    between atoms: C_2  and  C_3
REMARK    3  A    between atoms: C_7  and  S_8
REMARK    4  A    between atoms: S_8  and  C_9
REMARK                            x       y       z     vdW  Elec       q    Type
REMARK                         _______ _______ _______ _____ _____    ______ ____
ROOT
ATOM      1  C   UNL     1      -3.455  10.828  16.033  0.00  0.00    +0.000 A 
ATOM      2  N   UNL     1      -2.203  10.442  16.440  0.00  0.00    +0.000 N 
ATOM      3  C   UNL     1      -1.972  10.879  17.717  0.00  0.00    +0.000 A 
ATOM      4  N   UNL     1      -0.821  10.696  18.370  0.00  0.00    +0.000 NA
ATOM      5  C   UNL     1      -0.833  11.264  19.588  0.00  0.00    +0.000 A 
ATOM      6  N   UNL     1      -1.850  11.960  20.150  0.00  0.00    +0.000 NA
ATOM      7  C   UNL     1      -3.022  12.095  19.471  0.00  0.00    +0.000 A 
ATOM      8  N   UNL     1      -4.057  12.839  19.981  0.00  0.00    +0.000 N 
ATOM      9  C   UNL     1      -3.838  13.968  20.875  0.00  0.00    +0.000 C 
ATOM     10  C   UNL     1      -5.277  14.453  21.199  0.00  0.00    +0.000 C 
ATOM     11  C   UNL     1      -5.720  15.650  20.366  0.00  0.00    +0.000 C 
ATOM     12  C   UNL     1      -6.177  15.023  19.068  0.00  0.00    +0.000 C 
ATOM     13  N   UNL     1      -6.897  13.828  19.515  0.00  0.00    +0.000 NA
ATOM     14  C   UNL     1      -6.203  13.317  20.724  0.00  0.00    +0.000 C 
ATOM     15  C   UNL     1      -5.240  12.138  20.467  0.00  0.00    +0.000 C 
ATOM     16  C   UNL     1      -3.103  11.530  18.177  0.00  0.00    +0.000 A 
ATOM     17  C   UNL     1      -4.047  11.466  17.106  0.00  0.00    +0.000 A 
ATOM     18 CL   UNL     1      -5.628  12.096  17.065  0.00  0.00    +0.000 Cl
ATOM     19  H   UNL     1      -1.518   9.948  15.885  0.00  0.00    +0.000 HD
ATOM     20  H   UNL     1      -6.855  13.129  18.767  0.00  0.00    +0.000 HD
ENDROOT
BRANCH   1  22
ATOM     21  C   UNL     1      -2.967   9.843  13.791  0.00  0.00    +0.000 C 
ATOM     22  C   UNL     1      -3.971  10.586  14.655  0.00  0.00    +0.000 C 
ENDBRANCH   1  22
BRANCH   5  23
ATOM     23  S   UNL     1       0.612  10.929  20.583  0.00  0.00    +0.000 S 
BRANCH  23  24
ATOM     24  C   UNL     1       1.278   9.469  19.832  0.00  0.00    +0.000 A 
ATOM     25  C   UNL     1       1.851   9.487  18.573  0.00  0.00    +0.000 A 
ATOM     26  N   UNL     1       2.439   8.417  17.989  0.00  0.00    +0.000 NA
ATOM     27  C   UNL     1       2.487   7.269  18.669  0.00  0.00    +0.000 A 
ATOM     28  N   UNL     1       3.080   6.219  18.092  0.00  0.00    +0.000 NA
ATOM     29  C   UNL     1       3.133   5.066  18.798  0.00  0.00    +0.000 A 
ATOM     30  C   UNL     1       2.599   4.948  20.062  0.00  0.00    +0.000 A 
ATOM     31  N   UNL     1       1.996   5.986  20.676  0.00  0.00    +0.000 NA
ATOM     32  C   UNL     1       1.942   7.142  19.971  0.00  0.00    +0.000 A 
ATOM     33  C   UNL     1       1.343   8.265  20.533  0.00  0.00    +0.000 A 
ENDBRANCH  23  24
ENDBRANCH   5  23
TORSDOF 3
ENDMDL
MODEL 8
REMARK VINA RESULT:      -7.8      1.613      4.301
REMARK  Name = 
REMARK  4 active torsions:
REMARK  status: ('A' for Active; 'I' for Inactive)
REMARK    1  A    between atoms: C_1  and  C_2
REMARK    2  A    between atoms: C_2  and  C_3
REMARK    3  A    between atoms: C_7  and  S_8
REMARK    4  A    between atoms: S_8  and  C_9
REMARK                            x       y       z     vdW  Elec       q    Type
REMARK                         _______ _______ _______ _____ _____    ______ ____
ROOT
ATOM      1  C   UNL     1       5.731   5.312  16.191  0.00  0.00    +0.000 A 
ATOM      2  N   UNL     1       5.372   6.614  15.948  0.00  0.00    +0.000 N 
ATOM      3  C   UNL     1       4.334   6.972  16.765  0.00  0.00    +0.000 A 
ATOM      4  N   UNL     1       3.736   8.167  16.730  0.00  0.00    +0.000 NA
ATOM      5  C   UNL     1       2.715   8.250  17.599  0.00  0.00    +0.000 A 
ATOM      6  N   UNL     1       2.280   7.278  18.436  0.00  0.00    +0.000 NA
ATOM      7  C   UNL     1       2.936   6.085  18.472  0.00  0.00    +0.000 A 
ATOM      8  N   UNL     1       2.494   5.056  19.266  0.00  0.00    +0.000 N 
ATOM      9  C   UNL     1       1.090   4.891  19.618  0.00  0.00    +0.000 C 
ATOM     10  C   UNL     1       1.096   3.637  20.534  0.00  0.00    +0.000 C 
ATOM     11  C   UNL     1       0.702   2.353  19.812  0.00  0.00    +0.000 C 
ATOM     12  C   UNL     1       1.986   1.921  19.141  0.00  0.00    +0.000 C 
ATOM     13  N   UNL     1       3.000   2.192  20.164  0.00  0.00    +0.000 NA
ATOM     14  C   UNL     1       2.575   3.410  20.900  0.00  0.00    +0.000 C 
ATOM     15  C   UNL     1       3.271   4.713  20.452  0.00  0.00    +0.000 C 
ATOM     16  C   UNL     1       4.027   5.905  17.591  0.00  0.00    +0.000 A 
ATOM     17  C   UNL     1       4.940   4.866  17.233  0.00  0.00    +0.000 A 
ATOM     18 CL   UNL     1       5.055   3.301  17.893  0.00  0.00    +0.000 Cl
ATOM     19  H   UNL     1       5.768   7.224  15.246  0.00  0.00    +0.000 HD
ATOM     20  H   UNL     1       3.894   2.364  19.693  0.00  0.00    +0.000 HD
ENDROOT
BRANCH   1  22
ATOM     21  C   UNL     1       6.210   4.038  14.098  0.00  0.00    +0.000 C 
ATOM     22  C   UNL     1       6.768   4.594  15.396  0.00  0.00    +0.000 C 
ENDBRANCH   1  22
BRANCH   5  23
ATOM     23  S   UNL     1       1.965   9.867  17.721  0.00  0.00    +0.000 S 
BRANCH  23  24
ATOM     24  C   UNL     1       1.152   9.806  19.293  0.00  0.00    +0.000 A 
ATOM     25  C   UNL     1       1.439   8.831  20.231  0.00  0.00    +0.000 A 
ATOM     26  N   UNL     1       0.901   8.786  21.473  0.00  0.00    +0.000 NA
ATOM     27  C   UNL     1       0.048   9.750  21.830  0.00  0.00    +0.000 A 
ATOM     28  N   UNL     1      -0.470   9.708  23.061  0.00  0.00    +0.000 NA
ATOM     29  C   UNL     1      -1.323  10.697  23.413  0.00  0.00    +0.000 A 
ATOM     30  C   UNL     1      -1.665  11.718  22.555  0.00  0.00    +0.000 A 
ATOM     31  N   UNL     1      -1.161  11.795  21.308  0.00  0.00    +0.000 NA
ATOM     32  C   UNL     1      -0.307  10.804  20.952  0.00  0.00    +0.000 A 
ATOM     33  C   UNL     1       0.266  10.811  19.684  0.00  0.00    +0.000 A 
ENDBRANCH  23  24
ENDBRANCH   5  23
TORSDOF 3
ENDMDL
MODEL 9
REMARK VINA RESULT:      -7.6      4.067     10.297
REMARK  Name = 
REMARK  4 active torsions:
REMARK  status: ('A' for Active; 'I' for Inactive)
REMARK    1  A    between atoms: C_1  and  C_2
REMARK    2  A    between atoms: C_2  and  C_3
REMARK    3  A    between atoms: C_7  and  S_8
REMARK    4  A    between atoms: S_8  and  C_9
REMARK                            x       y       z     vdW  Elec       q    Type
REMARK                         _______ _______ _______ _____ _____    ______ ____
ROOT
ATOM      1  C   UNL     1      -3.568  11.069  16.263  0.00  0.00    +0.000 A 
ATOM      2  N   UNL     1      -2.295  10.975  16.766  0.00  0.00    +0.000 N 
ATOM      3  C   UNL     1      -2.260  11.467  18.043  0.00  0.00    +0.000 A 
ATOM      4  N   UNL     1      -1.148  11.551  18.779  0.00  0.00    +0.000 NA
ATOM      5  C   UNL     1      -1.373  12.116  19.977  0.00  0.00    +0.000 A 
ATOM      6  N   UNL     1      -2.556  12.577  20.448  0.00  0.00    +0.000 NA
ATOM      7  C   UNL     1      -3.676  12.442  19.686  0.00  0.00    +0.000 A 
ATOM      8  N   UNL     1      -4.884  12.944  20.103  0.00  0.00    +0.000 N 
ATOM      9  C   UNL     1      -4.985  14.104  20.978  0.00  0.00    +0.000 C 
ATOM     10  C   UNL     1      -6.515  14.262  21.189  0.00  0.00    +0.000 C 
ATOM     11  C   UNL     1      -7.148  15.322  20.294  0.00  0.00    +0.000 C 
ATOM     12  C   UNL     1      -7.359  14.594  18.986  0.00  0.00    +0.000 C 
ATOM     13  N   UNL     1      -7.831  13.275  19.415  0.00  0.00    +0.000 NA
ATOM     14  C   UNL     1      -7.131  12.944  20.683  0.00  0.00    +0.000 C 
ATOM     15  C   UNL     1      -5.916  12.004  20.526  0.00  0.00    +0.000 C 
ATOM     16  C   UNL     1      -3.537  11.857  18.406  0.00  0.00    +0.000 A 
ATOM     17  C   UNL     1      -4.363  11.573  17.275  0.00  0.00    +0.000 A 
ATOM     18 CL   UNL     1      -6.036  11.837  17.108  0.00  0.00    +0.000 Cl
ATOM     19  H   UNL     1      -1.479  10.638  16.274  0.00  0.00    +0.000 HD
ATOM     20  H   UNL     1      -7.581  12.593  18.691  0.00  0.00    +0.000 HD
ENDROOT
BRANCH   1  22
ATOM     21  C   UNL     1      -2.840   9.851  14.209  0.00  0.00    +0.000 C 
ATOM     22  C   UNL     1      -3.915  10.703  14.860  0.00  0.00    +0.000 C 
ENDBRANCH   1  22
BRANCH   5  23
ATOM     23  S   UNL     1       0.034  12.121  21.078  0.00  0.00    +0.000 S 
BRANCH  23  24
ATOM     24  C   UNL     1       0.720  10.505  20.847  0.00  0.00    +0.000 A 
ATOM     25  C   UNL     1       0.680   9.541  21.838  0.00  0.00    +0.000 A 
ATOM     26  N   UNL     1       1.121   8.271  21.685  0.00  0.00    +0.000 NA
ATOM     27  C   UNL     1       1.617   7.910  20.498  0.00  0.00    +0.000 A 
ATOM     28  N   UNL     1       2.040   6.652  20.347  0.00  0.00    +0.000 NA
ATOM     29  C   UNL     1       2.528   6.298  19.137  0.00  0.00    +0.000 A 
ATOM     30  C   UNL     1       2.603   7.181  18.083  0.00  0.00    +0.000 A 
ATOM     31  N   UNL     1       2.184   8.457  18.196  0.00  0.00    +0.000 NA
ATOM     32  C   UNL     1       1.695   8.814  19.409  0.00  0.00    +0.000 A 
ATOM     33  C   UNL     1       1.233  10.111  19.611  0.00  0.00    +0.000 A 
ENDBRANCH  23  24
ENDBRANCH   5  23
TORSDOF 3
ENDMDL
