MODEL 1
REMARK VINA RESULT:      -7.5      0.000      0.000
REMARK  Name = 
REMARK  7 active torsions:
REMARK  status: ('A' for Active; 'I' for Inactive)
REMARK    1  A    between atoms: C_1  and  C_2
REMARK    2  A    between atoms: C_4  and  C_5
REMARK    3  A    between atoms: N_7  and  C_8
REMARK    4  A    between atoms: C_8  and  C_9
REMARK    5  A    between atoms: C_12  and  S_13
REMARK    6  A    between atoms: S_13  and  N_14
REMARK    7  A    between atoms: C_21  and  N_22
REMARK                            x       y       z     vdW  Elec       q    Type
REMARK                         _______ _______ _______ _____ _____    ______ ____
ROOT
ATOM      1  C   UNL     1       2.429   5.888  19.912  0.00  0.00    +0.000 C 
ATOM      2  O   UNL     1       1.633   5.058  20.337  0.00  0.00    +0.000 OA
ATOM      3  N   UNL     1       2.355   7.234  20.193  0.00  0.00    +0.000 N 
ATOM      4  H   UNL     1       2.909   7.888  19.659  0.00  0.00    +0.000 HD
ENDROOT
BRANCH   1   8
ATOM      5  C   UNL     1       5.103   6.672  15.763  0.00  0.00    +0.000 C 
ATOM      6  C   UNL     1       4.832   5.823  16.973  0.00  0.00    +0.000 A 
ATOM      7  C   UNL     1       3.812   6.198  17.868  0.00  0.00    +0.000 A 
ATOM      8  C   UNL     1       3.546   5.451  19.028  0.00  0.00    +0.000 A 
ATOM      9  C   UNL     1       4.291   4.297  19.301  0.00  0.00    +0.000 A 
ATOM     10  C   UNL     1       5.305   3.901  18.425  0.00  0.00    +0.000 A 
ATOM     11  C   UNL     1       5.564   4.661  17.273  0.00  0.00    +0.000 A 
BRANCH  11  12
ATOM     12  N   UNL     1       6.636   4.203  16.398  0.00  0.00    +0.000 N 
ATOM     13  O   UNL     1       6.316   3.545  15.399  0.00  0.00    +0.000 OA
ATOM     14  O   UNL     1       7.794   4.479  16.739  0.00  0.00    +0.000 OA
ENDBRANCH  11  12
ENDBRANCH   1   8
BRANCH   3  15
ATOM     15  C   UNL     1       1.308   7.773  21.029  0.00  0.00    +0.000 C 
BRANCH  15  16
ATOM     16  C   UNL     1       0.851   9.133  20.564  0.00  0.00    +0.000 A 
ATOM     17  C   UNL     1       1.102   9.549  19.247  0.00  0.00    +0.000 A 
ATOM     18  C   UNL     1       0.652  10.789  18.797  0.00  0.00    +0.000 A 
ATOM     19  C   UNL     1      -0.053  11.619  19.668  0.00  0.00    +0.000 A 
ATOM     20  C   UNL     1      -0.280  11.242  20.992  0.00  0.00    +0.000 A 
ATOM     21  C   UNL     1       0.171   9.996  21.437  0.00  0.00    +0.000 A 
BRANCH  19  22
ATOM     22  S   UNL     1      -0.722  13.142  19.076  0.00  0.00    +0.000 S 
ATOM     23  O   UNL     1      -1.901  13.477  19.840  0.00  0.00    +0.000 OA
ATOM     24  O   UNL     1       0.348  14.081  18.839  0.00  0.00    +0.000 OA
BRANCH  22  25
ATOM     25  N   UNL     1      -1.265  12.653  17.564  0.00  0.00    +0.000 NA
ATOM     26  H   UNL     1      -2.121  12.108  17.648  0.00  0.00    +0.000 HD
ATOM     27  H   UNL     1      -1.311  13.444  16.924  0.00  0.00    +0.000 HD
ENDBRANCH  22  25
ENDBRANCH  19  22
ENDBRANCH  15  16
ENDBRANCH   3  15
TORSDOF 6
ENDMDL
MODEL 2
REMARK VINA RESULT:      -7.5      3.713      9.153
REMARK  Name = 
REMARK  7 active torsions:
REMARK  status: ('A' for Active; 'I' for Inactive)
REMARK    1  A    between atoms: C_1  and  C_2
REMARK    2  A    between atoms: C_4  and  C_5
REMARK    3  A    between atoms: N_7  and  C_8
REMARK    4  A    between atoms: C_8  and  C_9
REMARK    5  A    between atoms: C_12  and  S_13
REMARK    6  A    between atoms: S_13  and  N_14
REMARK    7  A    between atoms: C_21  and  N_22
REMARK                            x       y       z     vdW  Elec       q    Type
REMARK                         _______ _______ _______ _____ _____    ______ ____
ROOT
ATOM      1  C   UNL     1       0.636  10.084  18.647  0.00  0.00    +0.000 C 
ATOM      2  O   UNL     1       1.266  10.739  19.469  0.00  0.00    +0.000 OA
ATOM      3  N   UNL     1       1.175   9.047  17.916  0.00  0.00    +0.000 N 
ATOM      4  H   UNL     1       0.675   8.683  17.120  0.00  0.00    +0.000 HD
ENDROOT
BRANCH   1   8
ATOM      5  C   UNL     1      -3.329   9.647  15.635  0.00  0.00    +0.000 C 
ATOM      6  C   UNL     1      -2.727  10.217  16.889  0.00  0.00    +0.000 A 
ATOM      7  C   UNL     1      -1.388   9.922  17.210  0.00  0.00    +0.000 A 
ATOM      8  C   UNL     1      -0.796  10.407  18.388  0.00  0.00    +0.000 A 
ATOM      9  C   UNL     1      -1.534  11.218  19.259  0.00  0.00    +0.000 A 
ATOM     10  C   UNL     1      -2.863  11.529  18.959  0.00  0.00    +0.000 A 
ATOM     11  C   UNL     1      -3.445  11.031  17.782  0.00  0.00    +0.000 A 
BRANCH  11  12
ATOM     12  N   UNL     1      -4.835  11.385  17.523  0.00  0.00    +0.000 N 
ATOM     13  O   UNL     1      -5.051  12.308  16.726  0.00  0.00    +0.000 OA
ATOM     14  O   UNL     1      -5.699  10.754  18.147  0.00  0.00    +0.000 OA
ENDBRANCH  11  12
ENDBRANCH   1   8
BRANCH   3  15
ATOM     15  C   UNL     1       2.556   8.654  18.075  0.00  0.00    +0.000 C 
BRANCH  15  16
ATOM     16  C   UNL     1       2.693   7.204  18.468  0.00  0.00    +0.000 A 
ATOM     17  C   UNL     1       3.322   6.295  17.602  0.00  0.00    +0.000 A 
ATOM     18  C   UNL     1       3.486   4.961  17.972  0.00  0.00    +0.000 A 
ATOM     19  C   UNL     1       3.019   4.532  19.215  0.00  0.00    +0.000 A 
ATOM     20  C   UNL     1       2.359   5.410  20.075  0.00  0.00    +0.000 A 
ATOM     21  C   UNL     1       2.199   6.747  19.700  0.00  0.00    +0.000 A 
BRANCH  19  22
ATOM     22  S   UNL     1       3.322   2.873  19.737  0.00  0.00    +0.000 S 
ATOM     23  O   UNL     1       3.033   2.754  21.147  0.00  0.00    +0.000 OA
ATOM     24  O   UNL     1       2.802   1.954  18.753  0.00  0.00    +0.000 OA
BRANCH  22  25
ATOM     25  N   UNL     1       4.994   2.823  19.594  0.00  0.00    +0.000 NA
ATOM     26  H   UNL     1       5.421   3.609  20.081  0.00  0.00    +0.000 HD
ATOM     27  H   UNL     1       5.351   1.904  19.850  0.00  0.00    +0.000 HD
ENDBRANCH  22  25
ENDBRANCH  19  22
ENDBRANCH  15  16
ENDBRANCH   3  15
TORSDOF 6
ENDMDL
MODEL 3
REMARK VINA RESULT:      -7.5      3.826      9.231
REMARK  Name = 
REMARK  7 active torsions:
REMARK  status: ('A' for Active; 'I' for Inactive)
REMARK    1  A    between atoms: C_1  and  C_2
REMARK    2  A    between atoms: C_4  and  C_5
REMARK    3  A    between atoms: N_7  and  C_8
REMARK    4  A    between atoms: C_8  and  C_9
REMARK    5  A    between atoms: C_12  and  S_13
REMARK    6  A    between atoms: S_13  and  N_14
REMARK    7  A    between atoms: C_21  and  N_22
REMARK                            x       y       z     vdW  Elec       q    Type
REMARK                         _______ _______ _______ _____ _____    ______ ____
ROOT
ATOM      1  C   UNL     1       0.541   9.977  18.610  0.00  0.00    +0.000 C 
ATOM      2  O   UNL     1       1.147  10.555  19.505  0.00  0.00    +0.000 OA
ATOM      3  N   UNL     1       1.094   8.991  17.823  0.00  0.00    +0.000 N 
ATOM      4  H   UNL     1       0.620   8.697  16.981  0.00  0.00    +0.000 HD
ENDROOT
BRANCH   1   8
ATOM      5  C   UNL     1      -3.491  12.635  19.897  0.00  0.00    +0.000 C 
ATOM      6  C   UNL     1      -2.858  11.626  18.979  0.00  0.00    +0.000 A 
ATOM      7  C   UNL     1      -1.514  11.260  19.175  0.00  0.00    +0.000 A 
ATOM      8  C   UNL     1      -0.874  10.345  18.322  0.00  0.00    +0.000 A 
ATOM      9  C   UNL     1      -1.584   9.763  17.264  0.00  0.00    +0.000 A 
ATOM     10  C   UNL     1      -2.921  10.107  17.052  0.00  0.00    +0.000 A 
ATOM     11  C   UNL     1      -3.545  11.029  17.908  0.00  0.00    +0.000 A 
BRANCH  11  12
ATOM     12  N   UNL     1      -4.941  11.352  17.637  0.00  0.00    +0.000 N 
ATOM     13  O   UNL     1      -5.170  12.273  16.842  0.00  0.00    +0.000 OA
ATOM     14  O   UNL     1      -5.795  10.700  18.251  0.00  0.00    +0.000 OA
ENDBRANCH  11  12
ENDBRANCH   1   8
BRANCH   3  15
ATOM     15  C   UNL     1       2.461   8.561  18.004  0.00  0.00    +0.000 C 
BRANCH  15  16
ATOM     16  C   UNL     1       2.550   7.182  18.607  0.00  0.00    +0.000 A 
ATOM     17  C   UNL     1       2.111   6.958  19.922  0.00  0.00    +0.000 A 
ATOM     18  C   UNL     1       2.156   5.679  20.476  0.00  0.00    +0.000 A 
ATOM     19  C   UNL     1       2.641   4.618  19.712  0.00  0.00    +0.000 A 
ATOM     20  C   UNL     1       3.116   4.825  18.416  0.00  0.00    +0.000 A 
ATOM     21  C   UNL     1       3.067   6.109  17.865  0.00  0.00    +0.000 A 
BRANCH  19  22
ATOM     22  S   UNL     1       2.596   2.979  20.365  0.00  0.00    +0.000 S 
ATOM     23  O   UNL     1       1.474   2.267  19.801  0.00  0.00    +0.000 OA
ATOM     24  O   UNL     1       3.933   2.433  20.393  0.00  0.00    +0.000 OA
BRANCH  22  25
ATOM     25  N   UNL     1       2.188   3.311  21.959  0.00  0.00    +0.000 NA
ATOM     26  H   UNL     1       1.606   4.144  22.016  0.00  0.00    +0.000 HD
ATOM     27  H   UNL     1       1.812   2.482  22.416  0.00  0.00    +0.000 HD
ENDBRANCH  22  25
ENDBRANCH  19  22
ENDBRANCH  15  16
ENDBRANCH   3  15
TORSDOF 6
ENDMDL
MODEL 4
REMARK VINA RESULT:      -7.5      3.610      9.261
REMARK  Name = 
REMARK  7 active torsions:
REMARK  status: ('A' for Active; 'I' for Inactive)
REMARK    1  A    between atoms: C_1  and  C_2
REMARK    2  A    between atoms: C_4  and  C_5
REMARK    3  A    between atoms: N_7  and  C_8
REMARK    4  A    between atoms: C_8  and  C_9
REMARK    5  A    between atoms: C_12  and  S_13
REMARK    6  A    between atoms: S_13  and  N_14
REMARK    7  A    between atoms: C_21  and  N_22
REMARK                            x       y       z     vdW  Elec       q    Type
REMARK                         _______ _______ _______ _____ _____    ______ ____
ROOT
ATOM      1  C   UNL     1       0.655  10.124  18.562  0.00  0.00    +0.000 C 
ATOM      2  O   UNL     1       1.264  10.770  19.407  0.00  0.00    +0.000 OA
ATOM      3  N   UNL     1       1.227   9.132  17.795  0.00  0.00    +0.000 N 
ATOM      4  H   UNL     1       0.738   8.780  16.986  0.00  0.00    +0.000 HD
ENDROOT
BRANCH   1   8
ATOM      5  C   UNL     1      -3.460  12.623  19.904  0.00  0.00    +0.000 C 
ATOM      6  C   UNL     1      -2.810  11.613  19.000  0.00  0.00    +0.000 A 
ATOM      7  C   UNL     1      -1.442  11.322  19.158  0.00  0.00    +0.000 A 
ATOM      8  C   UNL     1      -0.787  10.409  18.315  0.00  0.00    +0.000 A 
ATOM      9  C   UNL     1      -1.503   9.753  17.306  0.00  0.00    +0.000 A 
ATOM     10  C   UNL     1      -2.864  10.020  17.134  0.00  0.00    +0.000 A 
ATOM     11  C   UNL     1      -3.503  10.942  17.979  0.00  0.00    +0.000 A 
BRANCH  11  12
ATOM     12  N   UNL     1      -4.922  11.184  17.750  0.00  0.00    +0.000 N 
ATOM     13  O   UNL     1      -5.228  12.049  16.919  0.00  0.00    +0.000 OA
ATOM     14  O   UNL     1      -5.719  10.525  18.432  0.00  0.00    +0.000 OA
ENDBRANCH  11  12
ENDBRANCH   1   8
BRANCH   3  15
ATOM     15  C   UNL     1       2.620   8.779  17.940  0.00  0.00    +0.000 C 
BRANCH  15  16
ATOM     16  C   UNL     1       2.802   7.357  18.407  0.00  0.00    +0.000 A 
ATOM     17  C   UNL     1       2.215   6.931  19.610  0.00  0.00    +0.000 A 
ATOM     18  C   UNL     1       2.347   5.608  20.033  0.00  0.00    +0.000 A 
ATOM     19  C   UNL     1       3.068   4.707  19.250  0.00  0.00    +0.000 A 
ATOM     20  C   UNL     1       3.690   5.119  18.071  0.00  0.00    +0.000 A 
ATOM     21  C   UNL     1       3.553   6.445  17.650  0.00  0.00    +0.000 A 
BRANCH  19  22
ATOM     22  S   UNL     1       3.146   3.008  19.721  0.00  0.00    +0.000 S 
ATOM     23  O   UNL     1       2.839   2.884  21.126  0.00  0.00    +0.000 OA
ATOM     24  O   UNL     1       2.512   2.196  18.708  0.00  0.00    +0.000 OA
BRANCH  22  25
ATOM     25  N   UNL     1       4.797   2.740  19.575  0.00  0.00    +0.000 NA
ATOM     26  H   UNL     1       4.980   1.900  19.030  0.00  0.00    +0.000 HD
ATOM     27  H   UNL     1       5.272   3.582  19.254  0.00  0.00    +0.000 HD
ENDBRANCH  22  25
ENDBRANCH  19  22
ENDBRANCH  15  16
ENDBRANCH   3  15
TORSDOF 6
ENDMDL
MODEL 5
REMARK VINA RESULT:      -7.4      3.739      9.112
REMARK  Name = 
REMARK  7 active torsions:
REMARK  status: ('A' for Active; 'I' for Inactive)
REMARK    1  A    between atoms: C_1  and  C_2
REMARK    2  A    between atoms: C_4  and  C_5
REMARK    3  A    between atoms: N_7  and  C_8
REMARK    4  A    between atoms: C_8  and  C_9
REMARK    5  A    between atoms: C_12  and  S_13
REMARK    6  A    between atoms: S_13  and  N_14
REMARK    7  A    between atoms: C_21  and  N_22
REMARK                            x       y       z     vdW  Elec       q    Type
REMARK                         _______ _______ _______ _____ _____    ______ ____
ROOT
ATOM      1  C   UNL     1       0.556  10.071  18.545  0.00  0.00    +0.000 C 
ATOM      2  O   UNL     1       1.211  10.729  19.344  0.00  0.00    +0.000 OA
ATOM      3  N   UNL     1       1.062   9.008  17.830  0.00  0.00    +0.000 N 
ATOM      4  H   UNL     1       0.542   8.637  17.048  0.00  0.00    +0.000 HD
ENDROOT
BRANCH   1   8
ATOM      5  C   UNL     1      -3.438   9.723  15.561  0.00  0.00    +0.000 C 
ATOM      6  C   UNL     1      -2.818  10.272  16.815  0.00  0.00    +0.000 A 
ATOM      7  C   UNL     1      -1.482   9.953  17.123  0.00  0.00    +0.000 A 
ATOM      8  C   UNL     1      -0.873  10.419  18.300  0.00  0.00    +0.000 A 
ATOM      9  C   UNL     1      -1.592  11.234  19.183  0.00  0.00    +0.000 A 
ATOM     10  C   UNL     1      -2.918  11.569  18.897  0.00  0.00    +0.000 A 
ATOM     11  C   UNL     1      -3.516  11.089  17.720  0.00  0.00    +0.000 A 
BRANCH  11  12
ATOM     12  N   UNL     1      -4.902  11.468  17.475  0.00  0.00    +0.000 N 
ATOM     13  O   UNL     1      -5.782  10.833  18.070  0.00  0.00    +0.000 OA
ATOM     14  O   UNL     1      -5.098  12.380  16.660  0.00  0.00    +0.000 OA
ENDBRANCH  11  12
ENDBRANCH   1   8
BRANCH   3  15
ATOM     15  C   UNL     1       2.436   8.588  17.977  0.00  0.00    +0.000 C 
BRANCH  15  16
ATOM     16  C   UNL     1       2.553   7.255  18.671  0.00  0.00    +0.000 A 
ATOM     17  C   UNL     1       1.985   7.070  19.942  0.00  0.00    +0.000 A 
ATOM     18  C   UNL     1       2.057   5.830  20.577  0.00  0.00    +0.000 A 
ATOM     19  C   UNL     1       2.699   4.770  19.939  0.00  0.00    +0.000 A 
ATOM     20  C   UNL     1       3.302   4.942  18.692  0.00  0.00    +0.000 A 
ATOM     21  C   UNL     1       3.226   6.186  18.059  0.00  0.00    +0.000 A 
BRANCH  19  22
ATOM     22  S   UNL     1       2.697   3.170  20.685  0.00  0.00    +0.000 S 
ATOM     23  O   UNL     1       3.906   2.469  20.322  0.00  0.00    +0.000 OA
ATOM     24  O   UNL     1       2.232   3.273  22.049  0.00  0.00    +0.000 OA
BRANCH  22  25
ATOM     25  N   UNL     1       1.455   2.445  19.817  0.00  0.00    +0.000 NA
ATOM     26  H   UNL     1       0.769   2.033  20.446  0.00  0.00    +0.000 HD
ATOM     27  H   UNL     1       1.080   3.086  19.119  0.00  0.00    +0.000 HD
ENDBRANCH  22  25
ENDBRANCH  19  22
ENDBRANCH  15  16
ENDBRANCH   3  15
TORSDOF 6
ENDMDL
MODEL 6
REMARK VINA RESULT:      -7.4      3.068      3.985
REMARK  Name = 
REMARK  7 active torsions:
REMARK  status: ('A' for Active; 'I' for Inactive)
REMARK    1  A    between atoms: C_1  and  C_2
REMARK    2  A    between atoms: C_4  and  C_5
REMARK    3  A    between atoms: N_7  and  C_8
REMARK    4  A    between atoms: C_8  and  C_9
REMARK    5  A    between atoms: C_12  and  S_13
REMARK    6  A    between atoms: S_13  and  N_14
REMARK    7  A    between atoms: C_21  and  N_22
REMARK                            x       y       z     vdW  Elec       q    Type
REMARK                         _______ _______ _______ _____ _____    ______ ____
ROOT
ATOM      1  C   UNL     1       1.631   8.129  20.187  0.00  0.00    +0.000 C 
ATOM      2  O   UNL     1       1.486   8.394  21.376  0.00  0.00    +0.000 OA
ATOM      3  N   UNL     1       1.465   9.045  19.172  0.00  0.00    +0.000 N 
ATOM      4  H   UNL     1       1.398   8.727  18.216  0.00  0.00    +0.000 HD
ENDROOT
BRANCH   1   8
ATOM      5  C   UNL     1       1.569   3.247  21.255  0.00  0.00    +0.000 C 
ATOM      6  C   UNL     1       1.992   4.353  20.328  0.00  0.00    +0.000 A 
ATOM      7  C   UNL     1       1.649   5.683  20.636  0.00  0.00    +0.000 A 
ATOM      8  C   UNL     1       1.997   6.743  19.781  0.00  0.00    +0.000 A 
ATOM      9  C   UNL     1       2.716   6.487  18.608  0.00  0.00    +0.000 A 
ATOM     10  C   UNL     1       3.073   5.175  18.283  0.00  0.00    +0.000 A 
ATOM     11  C   UNL     1       2.712   4.125  19.143  0.00  0.00    +0.000 A 
BRANCH  11  12
ATOM     12  N   UNL     1       3.108   2.777  18.752  0.00  0.00    +0.000 N 
ATOM     13  O   UNL     1       4.189   2.353  19.180  0.00  0.00    +0.000 OA
ATOM     14  O   UNL     1       2.344   2.168  17.992  0.00  0.00    +0.000 OA
ENDBRANCH  11  12
ENDBRANCH   1   8
BRANCH   3  15
ATOM     15  C   UNL     1       1.099  10.415  19.446  0.00  0.00    +0.000 C 
BRANCH  15  16
ATOM     16  C   UNL     1      -0.315  10.723  19.021  0.00  0.00    +0.000 A 
ATOM     17  C   UNL     1      -0.899  10.021  17.954  0.00  0.00    +0.000 A 
ATOM     18  C   UNL     1      -2.217  10.273  17.577  0.00  0.00    +0.000 A 
ATOM     19  C   UNL     1      -2.957  11.232  18.269  0.00  0.00    +0.000 A 
ATOM     20  C   UNL     1      -2.384  11.967  19.307  0.00  0.00    +0.000 A 
ATOM     21  C   UNL     1      -1.063  11.709  19.684  0.00  0.00    +0.000 A 
BRANCH  19  22
ATOM     22  S   UNL     1      -4.659  11.478  17.871  0.00  0.00    +0.000 S 
ATOM     23  O   UNL     1      -4.777  11.861  16.484  0.00  0.00    +0.000 OA
ATOM     24  O   UNL     1      -5.451  10.425  18.461  0.00  0.00    +0.000 OA
BRANCH  22  25
ATOM     25  N   UNL     1      -4.970  12.862  18.768  0.00  0.00    +0.000 NA
ATOM     26  H   UNL     1      -5.943  13.145  18.668  0.00  0.00    +0.000 HD
ATOM     27  H   UNL     1      -4.643  12.753  19.727  0.00  0.00    +0.000 HD
ENDBRANCH  22  25
ENDBRANCH  19  22
ENDBRANCH  15  16
ENDBRANCH   3  15
TORSDOF 6
ENDMDL
MODEL 7
REMARK VINA RESULT:      -7.4      3.360      4.097
REMARK  Name = 
REMARK  7 active torsions:
REMARK  status: ('A' for Active; 'I' for Inactive)
REMARK    1  A    between atoms: C_1  and  C_2
REMARK    2  A    between atoms: C_4  and  C_5
REMARK    3  A    between atoms: N_7  and  C_8
REMARK    4  A    between atoms: C_8  and  C_9
REMARK    5  A    between atoms: C_12  and  S_13
REMARK    6  A    between atoms: S_13  and  N_14
REMARK    7  A    between atoms: C_21  and  N_22
REMARK                            x       y       z     vdW  Elec       q    Type
REMARK                         _______ _______ _______ _____ _____    ______ ____
ROOT
ATOM      1  C   UNL     1       2.081   8.271  18.393  0.00  0.00    +0.000 C 
ATOM      2  O   UNL     1       2.602   8.627  17.342  0.00  0.00    +0.000 OA
ATOM      3  N   UNL     1       1.338   9.105  19.200  0.00  0.00    +0.000 N 
ATOM      4  H   UNL     1       1.108   8.817  20.140  0.00  0.00    +0.000 HD
ENDROOT
BRANCH   1   8
ATOM      5  C   UNL     1       3.084   3.513  17.240  0.00  0.00    +0.000 C 
ATOM      6  C   UNL     1       2.712   4.529  18.283  0.00  0.00    +0.000 A 
ATOM      7  C   UNL     1       2.568   5.880  17.913  0.00  0.00    +0.000 A 
ATOM      8  C   UNL     1       2.252   6.867  18.862  0.00  0.00    +0.000 A 
ATOM      9  C   UNL     1       2.054   6.511  20.201  0.00  0.00    +0.000 A 
ATOM     10  C   UNL     1       2.186   5.175  20.592  0.00  0.00    +0.000 A 
ATOM     11  C   UNL     1       2.510   4.200  19.635  0.00  0.00    +0.000 A 
BRANCH  11  12
ATOM     12  N   UNL     1       2.637   2.825  20.100  0.00  0.00    +0.000 N 
ATOM     13  O   UNL     1       3.753   2.453  20.485  0.00  0.00    +0.000 OA
ATOM     14  O   UNL     1       1.622   2.119  20.044  0.00  0.00    +0.000 OA
ENDBRANCH  11  12
ENDBRANCH   1   8
BRANCH   3  15
ATOM     15  C   UNL     1       1.117  10.489  18.852  0.00  0.00    +0.000 C 
BRANCH  15  16
ATOM     16  C   UNL     1      -0.339  10.786  18.597  0.00  0.00    +0.000 A 
ATOM     17  C   UNL     1      -1.064  10.019  17.671  0.00  0.00    +0.000 A 
ATOM     18  C   UNL     1      -2.420  10.263  17.455  0.00  0.00    +0.000 A 
ATOM     19  C   UNL     1      -3.056  11.279  18.168  0.00  0.00    +0.000 A 
ATOM     20  C   UNL     1      -2.346  12.078  19.065  0.00  0.00    +0.000 A 
ATOM     21  C   UNL     1      -0.987  11.827  19.280  0.00  0.00    +0.000 A 
BRANCH  19  22
ATOM     22  S   UNL     1      -4.794  11.521  17.983  0.00  0.00    +0.000 S 
ATOM     23  O   UNL     1      -5.071  12.025  16.659  0.00  0.00    +0.000 OA
ATOM     24  O   UNL     1      -5.503  10.400  18.556  0.00  0.00    +0.000 OA
BRANCH  22  25
ATOM     25  N   UNL     1      -5.022  12.811  19.034  0.00  0.00    +0.000 NA
ATOM     26  H   UNL     1      -5.075  12.486  19.997  0.00  0.00    +0.000 HD
ATOM     27  H   UNL     1      -4.339  13.545  18.857  0.00  0.00    +0.000 HD
ENDBRANCH  22  25
ENDBRANCH  19  22
ENDBRANCH  15  16
ENDBRANCH   3  15
TORSDOF 6
ENDMDL
MODEL 8
REMARK VINA RESULT:      -7.4      0.816      1.282
REMARK  Name = 
REMARK  7 active torsions:
REMARK  status: ('A' for Active; 'I' for Inactive)
REMARK    1  A    between atoms: C_1  and  C_2
REMARK    2  A    between atoms: C_4  and  C_5
REMARK    3  A    between atoms: N_7  and  C_8
REMARK    4  A    between atoms: C_8  and  C_9
REMARK    5  A    between atoms: C_12  and  S_13
REMARK    6  A    between atoms: S_13  and  N_14
REMARK    7  A    between atoms: C_21  and  N_22
REMARK                            x       y       z     vdW  Elec       q    Type
REMARK                         _______ _______ _______ _____ _____    ______ ____
ROOT
ATOM      1  C   UNL     1       2.492   5.851  19.407  0.00  0.00    +0.000 C 
ATOM      2  O   UNL     1       1.523   5.100  19.444  0.00  0.00    +0.000 OA
ATOM      3  N   UNL     1       2.549   7.061  20.062  0.00  0.00    +0.000 N 
ATOM      4  H   UNL     1       3.279   7.720  19.835  0.00  0.00    +0.000 HD
ENDROOT
BRANCH   1   8
ATOM      5  C   UNL     1       6.797   7.254  17.291  0.00  0.00    +0.000 C 
ATOM      6  C   UNL     1       5.783   6.173  17.543  0.00  0.00    +0.000 A 
ATOM      7  C   UNL     1       4.645   6.458  18.320  0.00  0.00    +0.000 A 
ATOM      8  C   UNL     1       3.689   5.469  18.606  0.00  0.00    +0.000 A 
ATOM      9  C   UNL     1       3.851   4.174  18.098  0.00  0.00    +0.000 A 
ATOM     10  C   UNL     1       4.970   3.868  17.319  0.00  0.00    +0.000 A 
ATOM     11  C   UNL     1       5.921   4.865  17.047  0.00  0.00    +0.000 A 
BRANCH  11  12
ATOM     12  N   UNL     1       7.069   4.487  16.232  0.00  0.00    +0.000 N 
ATOM     13  O   UNL     1       6.923   4.489  15.003  0.00  0.00    +0.000 OA
ATOM     14  O   UNL     1       8.100   4.160  16.835  0.00  0.00    +0.000 OA
ENDBRANCH  11  12
ENDBRANCH   1   8
BRANCH   3  15
ATOM     15  C   UNL     1       1.443   7.539  20.858  0.00  0.00    +0.000 C 
BRANCH  15  16
ATOM     16  C   UNL     1       0.882   8.837  20.333  0.00  0.00    +0.000 A 
ATOM     17  C   UNL     1      -0.029   9.575  21.105  0.00  0.00    +0.000 A 
ATOM     18  C   UNL     1      -0.525  10.794  20.644  0.00  0.00    +0.000 A 
ATOM     19  C   UNL     1      -0.108  11.279  19.405  0.00  0.00    +0.000 A 
ATOM     20  C   UNL     1       0.768  10.544  18.605  0.00  0.00    +0.000 A 
ATOM     21  C   UNL     1       1.264   9.324  19.073  0.00  0.00    +0.000 A 
BRANCH  19  22
ATOM     22  S   UNL     1      -0.643  12.872  18.864  0.00  0.00    +0.000 S 
ATOM     23  O   UNL     1      -1.666  13.363  19.757  0.00  0.00    +0.000 OA
ATOM     24  O   UNL     1       0.502  13.662  18.478  0.00  0.00    +0.000 OA
BRANCH  22  25
ATOM     25  N   UNL     1      -1.426  12.448  17.441  0.00  0.00    +0.000 NA
ATOM     26  H   UNL     1      -2.235  13.045  17.283  0.00  0.00    +0.000 HD
ATOM     27  H   UNL     1      -0.764  12.394  16.667  0.00  0.00    +0.000 HD
ENDBRANCH  22  25
ENDBRANCH  19  22
ENDBRANCH  15  16
ENDBRANCH   3  15
TORSDOF 6
ENDMDL
MODEL 9
REMARK VINA RESULT:      -7.4      3.136      3.963
REMARK  Name = 
REMARK  7 active torsions:
REMARK  status: ('A' for Active; 'I' for Inactive)
REMARK    1  A    between atoms: C_1  and  C_2
REMARK    2  A    between atoms: C_4  and  C_5
REMARK    3  A    between atoms: N_7  and  C_8
REMARK    4  A    between atoms: C_8  and  C_9
REMARK    5  A    between atoms: C_12  and  S_13
REMARK    6  A    between atoms: S_13  and  N_14
REMARK    7  A    between atoms: C_21  and  N_22
REMARK                            x       y       z     vdW  Elec       q    Type
REMARK                         _______ _______ _______ _____ _____    ______ ____
ROOT
ATOM      1  C   UNL     1       2.127   8.375  18.384  0.00  0.00    +0.000 C 
ATOM      2  O   UNL     1       2.563   8.807  17.323  0.00  0.00    +0.000 OA
ATOM      3  N   UNL     1       1.390   9.127  19.272  0.00  0.00    +0.000 N 
ATOM      4  H   UNL     1       1.233   8.785  20.209  0.00  0.00    +0.000 HD
ENDROOT
BRANCH   1   8
ATOM      5  C   UNL     1       3.872   3.881  17.065  0.00  0.00    +0.000 C 
ATOM      6  C   UNL     1       3.228   4.753  18.108  0.00  0.00    +0.000 A 
ATOM      7  C   UNL     1       2.972   6.106  17.817  0.00  0.00    +0.000 A 
ATOM      8  C   UNL     1       2.401   6.963  18.773  0.00  0.00    +0.000 A 
ATOM      9  C   UNL     1       2.057   6.469  20.037  0.00  0.00    +0.000 A 
ATOM     10  C   UNL     1       2.296   5.128  20.348  0.00  0.00    +0.000 A 
ATOM     11  C   UNL     1       2.875   4.284  19.385  0.00  0.00    +0.000 A 
BRANCH  11  12
ATOM     12  N   UNL     1       3.104   2.896  19.766  0.00  0.00    +0.000 N 
ATOM     13  O   UNL     1       2.156   2.108  19.653  0.00  0.00    +0.000 OA
ATOM     14  O   UNL     1       4.227   2.615  20.207  0.00  0.00    +0.000 OA
ENDBRANCH  11  12
ENDBRANCH   1   8
BRANCH   3  15
ATOM     15  C   UNL     1       1.073  10.511  19.006  0.00  0.00    +0.000 C 
BRANCH  15  16
ATOM     16  C   UNL     1      -0.401  10.722  18.767  0.00  0.00    +0.000 A 
ATOM     17  C   UNL     1      -1.111  11.661  19.532  0.00  0.00    +0.000 A 
ATOM     18  C   UNL     1      -2.466  11.890  19.294  0.00  0.00    +0.000 A 
ATOM     19  C   UNL     1      -3.115  11.177  18.286  0.00  0.00    +0.000 A 
ATOM     20  C   UNL     1      -2.437  10.212  17.540  0.00  0.00    +0.000 A 
ATOM     21  C   UNL     1      -1.078   9.988  17.781  0.00  0.00    +0.000 A 
BRANCH  19  22
ATOM     22  S   UNL     1      -4.800  11.539  17.905  0.00  0.00    +0.000 S 
ATOM     23  O   UNL     1      -4.902  11.946  16.523  0.00  0.00    +0.000 OA
ATOM     24  O   UNL     1      -5.656  10.533  18.488  0.00  0.00    +0.000 OA
BRANCH  22  25
ATOM     25  N   UNL     1      -5.013  12.930  18.821  0.00  0.00    +0.000 NA
ATOM     26  H   UNL     1      -5.480  13.653  18.276  0.00  0.00    +0.000 HD
ATOM     27  H   UNL     1      -5.446  12.710  19.717  0.00  0.00    +0.000 HD
ENDBRANCH  22  25
ENDBRANCH  19  22
ENDBRANCH  15  16
ENDBRANCH   3  15
TORSDOF 6
ENDMDL
