MODEL 1
REMARK VINA RESULT:      -7.5      0.000      0.000
REMARK  Name = 
REMARK  7 active torsions:
REMARK  status: ('A' for Active; 'I' for Inactive)
REMARK    1  A    between atoms: C_1  and  O_2
REMARK    2  A    between atoms: O_2  and  C_3
REMARK    3  A    between atoms: C_3  and  C_4
REMARK    4  A    between atoms: C_4  and  N_5
REMARK    5  A    between atoms: C_18  and  N_19
REMARK    6  A    between atoms: N_19  and  C_20
REMARK    7  A    between atoms: N_19  and  C_21
REMARK                            x       y       z     vdW  Elec       q    Type
REMARK                         _______ _______ _______ _____ _____    ______ ____
ROOT
ATOM      1  N   UNL     1       6.700   6.327  17.651  0.00  0.00    +0.000 N 
ATOM      2  C   UNL     1       6.529   5.549  16.482  0.00  0.00    +0.000 A 
ATOM      3  N   UNL     1       7.290   5.897  15.406  0.00  0.00    +0.000 NA
ATOM      4  C   UNL     1       7.077   5.085  14.340  0.00  0.00    +0.000 A 
ATOM      5  N   UNL     1       7.654   5.182  13.141  0.00  0.00    +0.000 NA
ATOM      6  O   UNL     1       7.104   4.138  12.399  0.00  0.00    +0.000 OA
ATOM      7  N   UNL     1       6.177   3.401  13.143  0.00  0.00    +0.000 NA
ATOM      8  C   UNL     1       6.164   3.984  14.343  0.00  0.00    +0.000 A 
ATOM      9  N   UNL     1       5.403   3.628  15.409  0.00  0.00    +0.000 NA
ATOM     10  C   UNL     1       5.608   4.412  16.505  0.00  0.00    +0.000 A 
ATOM     11  N   UNL     1       4.800   4.142  17.605  0.00  0.00    +0.000 N 
ATOM     12  C   UNL     1       5.232   4.198  18.995  0.00  0.00    +0.000 C 
ATOM     13  C   UNL     1       4.626   2.957  19.635  0.00  0.00    +0.000 C 
ATOM     14  C   UNL     1       3.296   2.737  18.896  0.00  0.00    +0.000 C 
ATOM     15  C   UNL     1       3.683   3.202  17.454  0.00  0.00    +0.000 C 
ATOM     16  H   UNL     1       5.807   6.324  18.147  0.00  0.00    +0.000 HD
ENDROOT
BRANCH  14  17
ATOM     17  N   UNL     1       2.119   3.418  19.501  0.00  0.00    +0.000 NA
ATOM     18  C   UNL     1       0.864   2.773  19.076  0.00  0.00    +0.000 C 
ATOM     19  C   UNL     1       2.161   3.362  20.972  0.00  0.00    +0.000 C 
ENDBRANCH  14  17
BRANCH   1  20
ATOM     20  C   UNL     1       7.062   7.735  17.440  0.00  0.00    +0.000 C 
BRANCH  20  21
ATOM     21  C   UNL     1       8.264   8.080  18.334  0.00  0.00    +0.000 C 
BRANCH  21  23
ATOM     22  C   UNL     1       9.229  10.014  19.307  0.00  0.00    +0.000 C 
ATOM     23  O   UNL     1       8.517   9.489  18.197  0.00  0.00    +0.000 OA
ENDBRANCH  21  23
ENDBRANCH  20  21
ENDBRANCH   1  20
TORSDOF 4
ENDMDL
MODEL 2
REMARK VINA RESULT:      -7.0      1.288      1.460
REMARK  Name = 
REMARK  7 active torsions:
REMARK  status: ('A' for Active; 'I' for Inactive)
REMARK    1  A    between atoms: C_1  and  O_2
REMARK    2  A    between atoms: O_2  and  C_3
REMARK    3  A    between atoms: C_3  and  C_4
REMARK    4  A    between atoms: C_4  and  N_5
REMARK    5  A    between atoms: C_18  and  N_19
REMARK    6  A    between atoms: N_19  and  C_20
REMARK    7  A    between atoms: N_19  and  C_21
REMARK                            x       y       z     vdW  Elec       q    Type
REMARK                         _______ _______ _______ _____ _____    ______ ____
ROOT
ATOM      1  N   UNL     1       6.928   4.765  18.905  0.00  0.00    +0.000 N 
ATOM      2  C   UNL     1       6.556   4.623  17.548  0.00  0.00    +0.000 A 
ATOM      3  N   UNL     1       7.504   4.945  16.623  0.00  0.00    +0.000 NA
ATOM      4  C   UNL     1       7.068   4.757  15.351  0.00  0.00    +0.000 A 
ATOM      5  N   UNL     1       7.754   5.001  14.234  0.00  0.00    +0.000 NA
ATOM      6  O   UNL     1       6.880   4.661  13.202  0.00  0.00    +0.000 OA
ATOM      7  N   UNL     1       5.646   4.216  13.688  0.00  0.00    +0.000 NA
ATOM      8  C   UNL     1       5.765   4.271  15.017  0.00  0.00    +0.000 A 
ATOM      9  N   UNL     1       4.814   3.946  15.930  0.00  0.00    +0.000 NA
ATOM     10  C   UNL     1       5.228   4.104  17.219  0.00  0.00    +0.000 A 
ATOM     11  N   UNL     1       4.271   3.858  18.198  0.00  0.00    +0.000 N 
ATOM     12  C   UNL     1       4.529   3.214  19.478  0.00  0.00    +0.000 C 
ATOM     13  C   UNL     1       3.367   2.248  19.662  0.00  0.00    +0.000 C 
ATOM     14  C   UNL     1       2.168   2.934  18.989  0.00  0.00    +0.000 C 
ATOM     15  C   UNL     1       2.875   3.651  17.793  0.00  0.00    +0.000 C 
ATOM     16  H   UNL     1       6.080   4.992  19.427  0.00  0.00    +0.000 HD
ENDROOT
BRANCH  14  17
ATOM     17  N   UNL     1       1.361   3.810  19.883  0.00  0.00    +0.000 NA
ATOM     18  C   UNL     1       1.346   3.283  21.259  0.00  0.00    +0.000 C 
ATOM     19  C   UNL     1       1.913   5.173  19.943  0.00  0.00    +0.000 C 
ENDBRANCH  14  17
BRANCH   1  20
ATOM     20  C   UNL     1       7.901   5.826  19.198  0.00  0.00    +0.000 C 
BRANCH  20  21
ATOM     21  C   UNL     1       7.593   7.043  18.311  0.00  0.00    +0.000 C 
BRANCH  21  23
ATOM     22  C   UNL     1       8.244   9.301  17.999  0.00  0.00    +0.000 C 
ATOM     23  O   UNL     1       8.549   8.068  18.633  0.00  0.00    +0.000 OA
ENDBRANCH  21  23
ENDBRANCH  20  21
ENDBRANCH   1  20
TORSDOF 4
ENDMDL
MODEL 3
REMARK VINA RESULT:      -6.9      3.349      6.801
REMARK  Name = 
REMARK  7 active torsions:
REMARK  status: ('A' for Active; 'I' for Inactive)
REMARK    1  A    between atoms: C_1  and  O_2
REMARK    2  A    between atoms: O_2  and  C_3
REMARK    3  A    between atoms: C_3  and  C_4
REMARK    4  A    between atoms: C_4  and  N_5
REMARK    5  A    between atoms: C_18  and  N_19
REMARK    6  A    between atoms: N_19  and  C_20
REMARK    7  A    between atoms: N_19  and  C_21
REMARK                            x       y       z     vdW  Elec       q    Type
REMARK                         _______ _______ _______ _____ _____    ______ ____
ROOT
ATOM      1  N   UNL     1       5.036   3.525  18.978  0.00  0.00    +0.000 N 
ATOM      2  C   UNL     1       4.362   4.743  18.729  0.00  0.00    +0.000 A 
ATOM      3  N   UNL     1       3.542   5.196  19.720  0.00  0.00    +0.000 NA
ATOM      4  C   UNL     1       2.957   6.380  19.403  0.00  0.00    +0.000 A 
ATOM      5  N   UNL     1       2.093   7.062  20.156  0.00  0.00    +0.000 NA
ATOM      6  O   UNL     1       1.779   8.189  19.398  0.00  0.00    +0.000 OA
ATOM      7  N   UNL     1       2.447   8.194  18.168  0.00  0.00    +0.000 NA
ATOM      8  C   UNL     1       3.178   7.078  18.175  0.00  0.00    +0.000 A 
ATOM      9  N   UNL     1       3.993   6.636  17.183  0.00  0.00    +0.000 NA
ATOM     10  C   UNL     1       4.613   5.459  17.477  0.00  0.00    +0.000 A 
ATOM     11  N   UNL     1       5.403   4.919  16.467  0.00  0.00    +0.000 N 
ATOM     12  C   UNL     1       6.670   4.232  16.672  0.00  0.00    +0.000 C 
ATOM     13  C   UNL     1       7.581   4.775  15.580  0.00  0.00    +0.000 C 
ATOM     14  C   UNL     1       6.652   5.053  14.388  0.00  0.00    +0.000 C 
ATOM     15  C   UNL     1       5.358   5.522  15.129  0.00  0.00    +0.000 C 
ATOM     16  H   UNL     1       5.173   3.067  18.075  0.00  0.00    +0.000 HD
ENDROOT
BRANCH  14  17
ATOM     17  N   UNL     1       6.480   3.915  13.444  0.00  0.00    +0.000 NA
ATOM     18  C   UNL     1       5.059   3.732  13.098  0.00  0.00    +0.000 C 
ATOM     19  C   UNL     1       7.210   4.143  12.186  0.00  0.00    +0.000 C 
ENDBRANCH  14  17
BRANCH   1  20
ATOM     20  C   UNL     1       4.330   2.563  19.837  0.00  0.00    +0.000 C 
BRANCH  20  21
ATOM     21  C   UNL     1       3.348   1.754  18.976  0.00  0.00    +0.000 C 
BRANCH  21  23
ATOM     22  C   UNL     1       1.174   2.626  18.608  0.00  0.00    +0.000 C 
ATOM     23  O   UNL     1       2.031   1.951  19.518  0.00  0.00    +0.000 OA
ENDBRANCH  21  23
ENDBRANCH  20  21
ENDBRANCH   1  20
TORSDOF 4
ENDMDL
MODEL 4
REMARK VINA RESULT:      -6.6      3.478      6.793
REMARK  Name = 
REMARK  7 active torsions:
REMARK  status: ('A' for Active; 'I' for Inactive)
REMARK    1  A    between atoms: C_1  and  O_2
REMARK    2  A    between atoms: O_2  and  C_3
REMARK    3  A    between atoms: C_3  and  C_4
REMARK    4  A    between atoms: C_4  and  N_5
REMARK    5  A    between atoms: C_18  and  N_19
REMARK    6  A    between atoms: N_19  and  C_20
REMARK    7  A    between atoms: N_19  and  C_21
REMARK                            x       y       z     vdW  Elec       q    Type
REMARK                         _______ _______ _______ _____ _____    ______ ____
ROOT
ATOM      1  N   UNL     1       4.086   3.727  18.919  0.00  0.00    +0.000 N 
ATOM      2  C   UNL     1       3.687   5.052  18.621  0.00  0.00    +0.000 A 
ATOM      3  N   UNL     1       2.810   5.631  19.489  0.00  0.00    +0.000 NA
ATOM      4  C   UNL     1       2.503   6.905  19.137  0.00  0.00    +0.000 A 
ATOM      5  N   UNL     1       1.662   7.722  19.773  0.00  0.00    +0.000 NA
ATOM      6  O   UNL     1       1.679   8.898  19.026  0.00  0.00    +0.000 OA
ATOM      7  N   UNL     1       2.529   8.800  17.918  0.00  0.00    +0.000 NA
ATOM      8  C   UNL     1       3.041   7.570  17.991  0.00  0.00    +0.000 A 
ATOM      9  N   UNL     1       3.915   7.003  17.121  0.00  0.00    +0.000 NA
ATOM     10  C   UNL     1       4.261   5.728  17.457  0.00  0.00    +0.000 A 
ATOM     11  N   UNL     1       5.097   5.070  16.561  0.00  0.00    +0.000 N 
ATOM     12  C   UNL     1       6.172   4.161  16.932  0.00  0.00    +0.000 C 
ATOM     13  C   UNL     1       7.330   4.546  16.022  0.00  0.00    +0.000 C 
ATOM     14  C   UNL     1       6.672   5.006  14.712  0.00  0.00    +0.000 C 
ATOM     15  C   UNL     1       5.378   5.691  15.261  0.00  0.00    +0.000 C 
ATOM     16  H   UNL     1       4.285   3.266  18.030  0.00  0.00    +0.000 HD
ENDROOT
BRANCH  14  17
ATOM     17  N   UNL     1       6.458   3.932  13.704  0.00  0.00    +0.000 NA
ATOM     18  C   UNL     1       5.032   3.825  13.347  0.00  0.00    +0.000 C 
ATOM     19  C   UNL     1       7.199   4.204  12.462  0.00  0.00    +0.000 C 
ENDBRANCH  14  17
BRANCH   1  20
ATOM     20  C   UNL     1       3.091   2.897  19.613  0.00  0.00    +0.000 C 
BRANCH  20  21
ATOM     21  C   UNL     1       3.712   2.354  20.909  0.00  0.00    +0.000 C 
BRANCH  21  23
ATOM     22  C   UNL     1       1.439   2.768  21.440  0.00  0.00    +0.000 C 
ATOM     23  O   UNL     1       2.736   2.504  21.954  0.00  0.00    +0.000 OA
ENDBRANCH  21  23
ENDBRANCH  20  21
ENDBRANCH   1  20
TORSDOF 4
ENDMDL
MODEL 5
REMARK VINA RESULT:      -6.4      3.861      6.878
REMARK  Name = 
REMARK  7 active torsions:
REMARK  status: ('A' for Active; 'I' for Inactive)
REMARK    1  A    between atoms: C_1  and  O_2
REMARK    2  A    between atoms: O_2  and  C_3
REMARK    3  A    between atoms: C_3  and  C_4
REMARK    4  A    between atoms: C_4  and  N_5
REMARK    5  A    between atoms: C_18  and  N_19
REMARK    6  A    between atoms: N_19  and  C_20
REMARK    7  A    between atoms: N_19  and  C_21
REMARK                            x       y       z     vdW  Elec       q    Type
REMARK                         _______ _______ _______ _____ _____    ______ ____
ROOT
ATOM      1  N   UNL     1       3.269   5.398  20.211  0.00  0.00    +0.000 N 
ATOM      2  C   UNL     1       2.915   6.567  19.498  0.00  0.00    +0.000 A 
ATOM      3  N   UNL     1       1.889   7.303  20.011  0.00  0.00    +0.000 NA
ATOM      4  C   UNL     1       1.635   8.416  19.275  0.00  0.00    +0.000 A 
ATOM      5  N   UNL     1       0.684   9.320  19.510  0.00  0.00    +0.000 NA
ATOM      6  O   UNL     1       0.822  10.252  18.483  0.00  0.00    +0.000 OA
ATOM      7  N   UNL     1       1.859   9.913  17.606  0.00  0.00    +0.000 NA
ATOM      8  C   UNL     1       2.363   8.780  18.100  0.00  0.00    +0.000 A 
ATOM      9  N   UNL     1       3.388   8.055  17.582  0.00  0.00    +0.000 NA
ATOM     10  C   UNL     1       3.682   6.940  18.308  0.00  0.00    +0.000 A 
ATOM     11  N   UNL     1       4.673   6.118  17.784  0.00  0.00    +0.000 N 
ATOM     12  C   UNL     1       5.675   5.409  18.568  0.00  0.00    +0.000 C 
ATOM     13  C   UNL     1       6.973   5.606  17.799  0.00  0.00    +0.000 C 
ATOM     14  C   UNL     1       6.557   5.657  16.321  0.00  0.00    +0.000 C 
ATOM     15  C   UNL     1       5.177   6.384  16.431  0.00  0.00    +0.000 C 
ATOM     16  H   UNL     1       3.631   4.728  19.530  0.00  0.00    +0.000 HD
ENDROOT
BRANCH  14  17
ATOM     17  N   UNL     1       6.541   4.341  15.625  0.00  0.00    +0.000 NA
ATOM     18  C   UNL     1       5.182   3.770  15.614  0.00  0.00    +0.000 C 
ATOM     19  C   UNL     1       6.972   4.468  14.223  0.00  0.00    +0.000 C 
ENDBRANCH  14  17
BRANCH   1  20
ATOM     20  C   UNL     1       2.175   4.725  20.926  0.00  0.00    +0.000 C 
BRANCH  20  21
ATOM     21  C   UNL     1       1.605   3.612  20.031  0.00  0.00    +0.000 C 
BRANCH  21  23
ATOM     22  C   UNL     1       2.222   2.949  17.841  0.00  0.00    +0.000 C 
ATOM     23  O   UNL     1       2.666   3.160  19.173  0.00  0.00    +0.000 OA
ENDBRANCH  21  23
ENDBRANCH  20  21
ENDBRANCH   1  20
TORSDOF 4
ENDMDL
MODEL 6
REMARK VINA RESULT:      -6.1      3.992      7.034
REMARK  Name = 
REMARK  7 active torsions:
REMARK  status: ('A' for Active; 'I' for Inactive)
REMARK    1  A    between atoms: C_1  and  O_2
REMARK    2  A    between atoms: O_2  and  C_3
REMARK    3  A    between atoms: C_3  and  C_4
REMARK    4  A    between atoms: C_4  and  N_5
REMARK    5  A    between atoms: C_18  and  N_19
REMARK    6  A    between atoms: N_19  and  C_20
REMARK    7  A    between atoms: N_19  and  C_21
REMARK                            x       y       z     vdW  Elec       q    Type
REMARK                         _______ _______ _______ _____ _____    ______ ____
ROOT
ATOM      1  N   UNL     1       2.377   7.087  19.523  0.00  0.00    +0.000 N 
ATOM      2  C   UNL     1       2.609   5.756  19.942  0.00  0.00    +0.000 A 
ATOM      3  N   UNL     1       1.681   5.213  20.779  0.00  0.00    +0.000 NA
ATOM      4  C   UNL     1       1.973   3.929  21.109  0.00  0.00    +0.000 A 
ATOM      5  N   UNL     1       1.269   3.141  21.923  0.00  0.00    +0.000 NA
ATOM      6  O   UNL     1       1.975   1.939  21.947  0.00  0.00    +0.000 OA
ATOM      7  N   UNL     1       3.124   1.993  21.151  0.00  0.00    +0.000 NA
ATOM      8  C   UNL     1       3.119   3.222  20.630  0.00  0.00    +0.000 A 
ATOM      9  N   UNL     1       4.049   3.752  19.795  0.00  0.00    +0.000 NA
ATOM     10  C   UNL     1       3.775   5.036  19.427  0.00  0.00    +0.000 A 
ATOM     11  N   UNL     1       4.731   5.657  18.632  0.00  0.00    +0.000 N 
ATOM     12  C   UNL     1       4.444   6.571  17.536  0.00  0.00    +0.000 C 
ATOM     13  C   UNL     1       5.393   6.147  16.424  0.00  0.00    +0.000 C 
ATOM     14  C   UNL     1       6.654   5.646  17.146  0.00  0.00    +0.000 C 
ATOM     15  C   UNL     1       6.021   4.989  18.416  0.00  0.00    +0.000 C 
ATOM     16  H   UNL     1       3.290   7.516  19.364  0.00  0.00    +0.000 HD
ENDROOT
BRANCH  14  17
ATOM     17  N   UNL     1       7.688   6.685  17.403  0.00  0.00    +0.000 NA
ATOM     18  C   UNL     1       7.136   8.036  17.194  0.00  0.00    +0.000 C 
ATOM     19  C   UNL     1       8.180   6.625  18.789  0.00  0.00    +0.000 C 
ENDBRANCH  14  17
BRANCH   1  20
ATOM     20  C   UNL     1       1.667   7.948  20.480  0.00  0.00    +0.000 C 
BRANCH  20  21
ATOM     21  C   UNL     1       1.094   9.160  19.729  0.00  0.00    +0.000 C 
BRANCH  21  23
ATOM     22  C   UNL     1      -0.254   8.887  21.660  0.00  0.00    +0.000 C 
ATOM     23  O   UNL     1      -0.049   9.627  20.465  0.00  0.00    +0.000 OA
ENDBRANCH  21  23
ENDBRANCH  20  21
ENDBRANCH   1  20
TORSDOF 4
ENDMDL
MODEL 7
REMARK VINA RESULT:      -6.1      4.260      7.315
REMARK  Name = 
REMARK  7 active torsions:
REMARK  status: ('A' for Active; 'I' for Inactive)
REMARK    1  A    between atoms: C_1  and  O_2
REMARK    2  A    between atoms: O_2  and  C_3
REMARK    3  A    between atoms: C_3  and  C_4
REMARK    4  A    between atoms: C_4  and  N_5
REMARK    5  A    between atoms: C_18  and  N_19
REMARK    6  A    between atoms: N_19  and  C_20
REMARK    7  A    between atoms: N_19  and  C_21
REMARK                            x       y       z     vdW  Elec       q    Type
REMARK                         _______ _______ _______ _____ _____    ______ ____
ROOT
ATOM      1  N   UNL     1       3.049   5.472  20.229  0.00  0.00    +0.000 N 
ATOM      2  C   UNL     1       2.632   6.700  19.665  0.00  0.00    +0.000 A 
ATOM      3  N   UNL     1       1.687   7.396  20.359  0.00  0.00    +0.000 NA
ATOM      4  C   UNL     1       1.365   8.569  19.757  0.00  0.00    +0.000 A 
ATOM      5  N   UNL     1       0.464   9.456  20.181  0.00  0.00    +0.000 NA
ATOM      6  O   UNL     1       0.493  10.472  19.227  0.00  0.00    +0.000 OA
ATOM      7  N   UNL     1       1.411  10.203  18.206  0.00  0.00    +0.000 NA
ATOM      8  C   UNL     1       1.952   9.029  18.537  0.00  0.00    +0.000 A 
ATOM      9  N   UNL     1       2.895   8.346  17.839  0.00  0.00    +0.000 NA
ATOM     10  C   UNL     1       3.256   7.171  18.427  0.00  0.00    +0.000 A 
ATOM     11  N   UNL     1       4.163   6.390  17.719  0.00  0.00    +0.000 N 
ATOM     12  C   UNL     1       5.240   5.610  18.313  0.00  0.00    +0.000 C 
ATOM     13  C   UNL     1       6.440   5.864  17.411  0.00  0.00    +0.000 C 
ATOM     14  C   UNL     1       5.850   6.046  16.004  0.00  0.00    +0.000 C 
ATOM     15  C   UNL     1       4.505   6.768  16.342  0.00  0.00    +0.000 C 
ATOM     16  H   UNL     1       3.316   4.861  19.454  0.00  0.00    +0.000 HD
ENDROOT
BRANCH  14  17
ATOM     17  N   UNL     1       5.729   4.795  15.206  0.00  0.00    +0.000 NA
ATOM     18  C   UNL     1       6.773   4.732  14.168  0.00  0.00    +0.000 C 
ATOM     19  C   UNL     1       5.882   3.599  16.051  0.00  0.00    +0.000 C 
ENDBRANCH  14  17
BRANCH   1  20
ATOM     20  C   UNL     1       2.038   4.747  21.011  0.00  0.00    +0.000 C 
BRANCH  20  21
ATOM     21  C   UNL     1       2.389   3.250  21.013  0.00  0.00    +0.000 C 
BRANCH  21  23
ATOM     22  C   UNL     1       0.975   2.661  19.204  0.00  0.00    +0.000 C 
ATOM     23  O   UNL     1       1.217   2.529  20.597  0.00  0.00    +0.000 OA
ENDBRANCH  21  23
ENDBRANCH  20  21
ENDBRANCH   1  20
TORSDOF 4
ENDMDL
MODEL 8
REMARK VINA RESULT:      -6.0      2.666      3.031
REMARK  Name = 
REMARK  7 active torsions:
REMARK  status: ('A' for Active; 'I' for Inactive)
REMARK    1  A    between atoms: C_1  and  O_2
REMARK    2  A    between atoms: O_2  and  C_3
REMARK    3  A    between atoms: C_3  and  C_4
REMARK    4  A    between atoms: C_4  and  N_5
REMARK    5  A    between atoms: C_18  and  N_19
REMARK    6  A    between atoms: N_19  and  C_20
REMARK    7  A    between atoms: N_19  and  C_21
REMARK                            x       y       z     vdW  Elec       q    Type
REMARK                         _______ _______ _______ _____ _____    ______ ____
ROOT
ATOM      1  N   UNL     1       4.095   6.745  17.911  0.00  0.00    +0.000 N 
ATOM      2  C   UNL     1       4.659   5.854  16.969  0.00  0.00    +0.000 A 
ATOM      3  N   UNL     1       5.347   6.419  15.936  0.00  0.00    +0.000 NA
ATOM      4  C   UNL     1       5.871   5.490  15.097  0.00  0.00    +0.000 A 
ATOM      5  N   UNL     1       6.575   5.730  13.990  0.00  0.00    +0.000 NA
ATOM      6  O   UNL     1       6.874   4.468  13.481  0.00  0.00    +0.000 OA
ATOM      7  N   UNL     1       6.342   3.446  14.275  0.00  0.00    +0.000 NA
ATOM      8  C   UNL     1       5.726   4.079  15.276  0.00  0.00    +0.000 A 
ATOM      9  N   UNL     1       5.045   3.506  16.301  0.00  0.00    +0.000 NA
ATOM     10  C   UNL     1       4.522   4.411  17.175  0.00  0.00    +0.000 A 
ATOM     11  N   UNL     1       3.750   3.885  18.204  0.00  0.00    +0.000 N 
ATOM     12  C   UNL     1       3.730   4.380  19.574  0.00  0.00    +0.000 C 
ATOM     13  C   UNL     1       3.754   3.126  20.435  0.00  0.00    +0.000 C 
ATOM     14  C   UNL     1       2.979   2.073  19.627  0.00  0.00    +0.000 C 
ATOM     15  C   UNL     1       3.390   2.462  18.170  0.00  0.00    +0.000 C 
ATOM     16  H   UNL     1       3.255   6.297  18.283  0.00  0.00    +0.000 HD
ENDROOT
BRANCH  14  17
ATOM     17  N   UNL     1       1.515   2.025  19.895  0.00  0.00    +0.000 NA
ATOM     18  C   UNL     1       1.164   2.883  21.041  0.00  0.00    +0.000 C 
ATOM     19  C   UNL     1       0.740   2.504  18.738  0.00  0.00    +0.000 C 
ENDBRANCH  14  17
BRANCH   1  20
ATOM     20  C   UNL     1       3.680   8.055  17.390  0.00  0.00    +0.000 C 
BRANCH  20  21
ATOM     21  C   UNL     1       2.231   8.329  17.825  0.00  0.00    +0.000 C 
BRANCH  21  23
ATOM     22  C   UNL     1       1.404  10.423  18.567  0.00  0.00    +0.000 C 
ATOM     23  O   UNL     1       1.919   9.686  17.468  0.00  0.00    +0.000 OA
ENDBRANCH  21  23
ENDBRANCH  20  21
ENDBRANCH   1  20
TORSDOF 4
ENDMDL
MODEL 9
REMARK VINA RESULT:      -6.0      3.752      6.536
REMARK  Name = 
REMARK  7 active torsions:
REMARK  status: ('A' for Active; 'I' for Inactive)
REMARK    1  A    between atoms: C_1  and  O_2
REMARK    2  A    between atoms: O_2  and  C_3
REMARK    3  A    between atoms: C_3  and  C_4
REMARK    4  A    between atoms: C_4  and  N_5
REMARK    5  A    between atoms: C_18  and  N_19
REMARK    6  A    between atoms: N_19  and  C_20
REMARK    7  A    between atoms: N_19  and  C_21
REMARK                            x       y       z     vdW  Elec       q    Type
REMARK                         _______ _______ _______ _____ _____    ______ ____
ROOT
ATOM      1  N   UNL     1       2.452   7.086  19.415  0.00  0.00    +0.000 N 
ATOM      2  C   UNL     1       2.449   5.678  19.279  0.00  0.00    +0.000 A 
ATOM      3  N   UNL     1       1.373   5.022  19.799  0.00  0.00    +0.000 NA
ATOM      4  C   UNL     1       1.444   3.680  19.603  0.00  0.00    +0.000 A 
ATOM      5  N   UNL     1       0.557   2.772  20.011  0.00  0.00    +0.000 NA
ATOM      6  O   UNL     1       1.078   1.552  19.582  0.00  0.00    +0.000 OA
ATOM      7  N   UNL     1       2.297   1.712  18.915  0.00  0.00    +0.000 NA
ATOM      8  C   UNL     1       2.520   3.028  18.924  0.00  0.00    +0.000 A 
ATOM      9  N   UNL     1       3.595   3.672  18.402  0.00  0.00    +0.000 NA
ATOM     10  C   UNL     1       3.545   5.024  18.563  0.00  0.00    +0.000 A 
ATOM     11  N   UNL     1       4.656   5.731  18.115  0.00  0.00    +0.000 N 
ATOM     12  C   UNL     1       4.613   7.031  17.461  0.00  0.00    +0.000 C 
ATOM     13  C   UNL     1       5.599   6.913  16.308  0.00  0.00    +0.000 C 
ATOM     14  C   UNL     1       6.697   5.965  16.817  0.00  0.00    +0.000 C 
ATOM     15  C   UNL     1       5.852   4.988  17.699  0.00  0.00    +0.000 C 
ATOM     16  H   UNL     1       3.428   7.381  19.472  0.00  0.00    +0.000 HD
ENDROOT
BRANCH  14  17
ATOM     17  N   UNL     1       7.837   6.633  17.502  0.00  0.00    +0.000 NA
ATOM     18  C   UNL     1       7.668   8.097  17.496  0.00  0.00    +0.000 C 
ATOM     19  C   UNL     1       7.942   6.212  18.909  0.00  0.00    +0.000 C 
ENDBRANCH  14  17
BRANCH   1  20
ATOM     20  C   UNL     1       1.779   7.620  20.608  0.00  0.00    +0.000 C 
BRANCH  20  21
ATOM     21  C   UNL     1       1.133   8.969  20.254  0.00  0.00    +0.000 C 
BRANCH  21  23
ATOM     22  C   UNL     1       0.316  10.040  18.304  0.00  0.00    +0.000 C 
ATOM     23  O   UNL     1       1.306   9.177  18.842  0.00  0.00    +0.000 OA
ENDBRANCH  21  23
ENDBRANCH  20  21
ENDBRANCH   1  20
TORSDOF 4
ENDMDL
