MODEL 1
REMARK VINA RESULT:      -7.0      0.000      0.000
REMARK  Name = 
REMARK  6 active torsions:
REMARK  status: ('A' for Active; 'I' for Inactive)
REMARK    1  A    between atoms: C_1  and  C_2
REMARK    2  A    between atoms: C_2  and  C_3
REMARK    3  A    between atoms: C_3  and  N_4
REMARK    4  A    between atoms: C_5  and  C_7
REMARK    5  A    between atoms: C_7  and  C_8
REMARK    6  A    between atoms: C_13  and  C_15
REMARK                            x       y       z     vdW  Elec       q    Type
REMARK                         _______ _______ _______ _____ _____    ______ ____
ROOT
ATOM      1  C   UNL     1       2.138   3.551  20.612  0.00  0.00    +0.000 C 
ATOM      2  C   UNL     1       2.555   3.534  22.096  0.00  0.00    +0.000 C 
ATOM      3  C   UNL     1       1.007   2.536  20.361  0.00  0.00    +0.000 C 
ATOM      4  C   UNL     1       0.735   2.337  18.867  0.00  0.00    +0.000 C 
ATOM      5  C   UNL     1       2.008   1.974  18.101  0.00  0.00    +0.000 C 
ATOM      6  N   UNL     1       3.081   2.932  18.363  0.00  0.00    +0.000 N 
ATOM      7  C   UNL     1       3.645   3.638  17.279  0.00  0.00    +0.000 C 
ATOM      8  O   UNL     1       3.204   3.450  16.141  0.00  0.00    +0.000 OA
ATOM      9  C   UNL     1       3.372   3.156  19.780  0.00  0.00    +0.000 C 
ENDROOT
BRANCH   7  10
ATOM     10  C   UNL     1       4.764   4.556  17.512  0.00  0.00    +0.000 A 
ATOM     11  C   UNL     1       5.853   4.459  18.355  0.00  0.00    +0.000 A 
ATOM     12  C   UNL     1       6.662   5.639  18.390  0.00  0.00    +0.000 A 
ATOM     13  C   UNL     1       7.756   5.974  19.223  0.00  0.00    +0.000 A 
ATOM     14  C   UNL     1       8.461   7.161  19.016  0.00  0.00    +0.000 A 
ATOM     15  C   UNL     1       8.096   8.017  17.986  0.00  0.00    +0.000 A 
ATOM     16  C   UNL     1       6.996   7.730  17.174  0.00  0.00    +0.000 A 
ATOM     17  C   UNL     1       6.274   6.541  17.401  0.00  0.00    +0.000 A 
ATOM     18  S   UNL     1       4.871   5.988  16.572  0.00  0.00    +0.000 S 
ENDBRANCH   7  10
BRANCH   1  20
ATOM     19  N   UNL     1       2.756   5.858  19.971  0.00  0.00    +0.000 N 
ATOM     20  C   UNL     1       1.723   4.990  20.242  0.00  0.00    +0.000 C 
ATOM     21  O   UNL     1       0.548   5.348  20.171  0.00  0.00    +0.000 OA
ATOM     22  H   UNL     1       3.713   5.560  20.088  0.00  0.00    +0.000 HD
BRANCH  19  23
ATOM     23  C   UNL     1       2.506   7.263  19.711  0.00  0.00    +0.000 C 
BRANCH  23  25
ATOM     24  C   UNL     1       2.012   9.006  17.943  0.00  0.00    +0.000 C 
ATOM     25  C   UNL     1       2.328   7.544  18.220  0.00  0.00    +0.000 C 
ENDBRANCH  23  25
ENDBRANCH  19  23
ENDBRANCH   1  20
TORSDOF 4
ENDMDL
MODEL 2
REMARK VINA RESULT:      -6.8      1.053      1.276
REMARK  Name = 
REMARK  6 active torsions:
REMARK  status: ('A' for Active; 'I' for Inactive)
REMARK    1  A    between atoms: C_1  and  C_2
REMARK    2  A    between atoms: C_2  and  C_3
REMARK    3  A    between atoms: C_3  and  N_4
REMARK    4  A    between atoms: C_5  and  C_7
REMARK    5  A    between atoms: C_7  and  C_8
REMARK    6  A    between atoms: C_13  and  C_15
REMARK                            x       y       z     vdW  Elec       q    Type
REMARK                         _______ _______ _______ _____ _____    ______ ____
ROOT
ATOM      1  C   UNL     1       2.202   3.834  20.393  0.00  0.00    +0.000 C 
ATOM      2  C   UNL     1       2.488   3.975  21.902  0.00  0.00    +0.000 C 
ATOM      3  C   UNL     1       1.138   2.749  20.148  0.00  0.00    +0.000 C 
ATOM      4  C   UNL     1       1.005   2.399  18.663  0.00  0.00    +0.000 C 
ATOM      5  C   UNL     1       2.353   2.027  18.045  0.00  0.00    +0.000 C 
ATOM      6  N   UNL     1       3.361   3.053  18.302  0.00  0.00    +0.000 N 
ATOM      7  C   UNL     1       3.991   3.681  17.206  0.00  0.00    +0.000 C 
ATOM      8  O   UNL     1       3.659   3.368  16.058  0.00  0.00    +0.000 OA
ATOM      9  C   UNL     1       3.519   3.421  19.710  0.00  0.00    +0.000 C 
ENDROOT
BRANCH   7  10
ATOM     10  C   UNL     1       5.050   4.667  17.442  0.00  0.00    +0.000 A 
ATOM     11  C   UNL     1       6.176   4.612  18.238  0.00  0.00    +0.000 A 
ATOM     12  C   UNL     1       6.899   5.846  18.301  0.00  0.00    +0.000 A 
ATOM     13  C   UNL     1       7.999   6.222  19.108  0.00  0.00    +0.000 A 
ATOM     14  C   UNL     1       8.607   7.466  18.934  0.00  0.00    +0.000 A 
ATOM     15  C   UNL     1       8.140   8.340  17.962  0.00  0.00    +0.000 A 
ATOM     16  C   UNL     1       7.031   8.010  17.178  0.00  0.00    +0.000 A 
ATOM     17  C   UNL     1       6.406   6.761  17.373  0.00  0.00    +0.000 A 
ATOM     18  S   UNL     1       5.014   6.145  16.571  0.00  0.00    +0.000 S 
ENDBRANCH   7  10
BRANCH   1  20
ATOM     19  N   UNL     1       2.084   6.292  20.646  0.00  0.00    +0.000 N 
ATOM     20  C   UNL     1       1.767   5.211  19.853  0.00  0.00    +0.000 C 
ATOM     21  O   UNL     1       1.190   5.354  18.776  0.00  0.00    +0.000 OA
ATOM     22  H   UNL     1       2.508   6.149  21.550  0.00  0.00    +0.000 HD
BRANCH  19  23
ATOM     23  C   UNL     1       1.642   7.629  20.302  0.00  0.00    +0.000 C 
BRANCH  23  25
ATOM     24  C   UNL     1      -0.287   8.593  21.629  0.00  0.00    +0.000 C 
ATOM     25  C   UNL     1       1.221   8.426  21.537  0.00  0.00    +0.000 C 
ENDBRANCH  23  25
ENDBRANCH  19  23
ENDBRANCH   1  20
TORSDOF 4
ENDMDL
MODEL 3
REMARK VINA RESULT:      -6.8      1.250      1.459
REMARK  Name = 
REMARK  6 active torsions:
REMARK  status: ('A' for Active; 'I' for Inactive)
REMARK    1  A    between atoms: C_1  and  C_2
REMARK    2  A    between atoms: C_2  and  C_3
REMARK    3  A    between atoms: C_3  and  N_4
REMARK    4  A    between atoms: C_5  and  C_7
REMARK    5  A    between atoms: C_7  and  C_8
REMARK    6  A    between atoms: C_13  and  C_15
REMARK                            x       y       z     vdW  Elec       q    Type
REMARK                         _______ _______ _______ _____ _____    ______ ____
ROOT
ATOM      1  C   UNL     1       2.531   4.154  19.562  0.00  0.00    +0.000 C 
ATOM      2  C   UNL     1       2.331   4.625  21.017  0.00  0.00    +0.000 C 
ATOM      3  C   UNL     1       1.733   2.863  19.302  0.00  0.00    +0.000 C 
ATOM      4  C   UNL     1       2.097   2.224  17.958  0.00  0.00    +0.000 C 
ATOM      5  C   UNL     1       3.604   2.000  17.825  0.00  0.00    +0.000 C 
ATOM      6  N   UNL     1       4.352   3.227  18.095  0.00  0.00    +0.000 N 
ATOM      7  C   UNL     1       5.198   3.745  17.091  0.00  0.00    +0.000 C 
ATOM      8  O   UNL     1       5.267   3.167  16.002  0.00  0.00    +0.000 OA
ATOM      9  C   UNL     1       4.033   3.874  19.369  0.00  0.00    +0.000 C 
ENDROOT
BRANCH   7  10
ATOM     10  C   UNL     1       6.005   4.938  17.364  0.00  0.00    +0.000 A 
ATOM     11  C   UNL     1       7.096   5.122  18.189  0.00  0.00    +0.000 A 
ATOM     12  C   UNL     1       7.525   6.484  18.283  0.00  0.00    +0.000 A 
ATOM     13  C   UNL     1       8.495   7.082  19.122  0.00  0.00    +0.000 A 
ATOM     14  C   UNL     1       8.816   8.433  18.975  0.00  0.00    +0.000 A 
ATOM     15  C   UNL     1       8.190   9.196  17.999  0.00  0.00    +0.000 A 
ATOM     16  C   UNL     1       7.200   8.640  17.183  0.00  0.00    +0.000 A 
ATOM     17  C   UNL     1       6.864   7.282  17.350  0.00  0.00    +0.000 A 
ATOM     18  S   UNL     1       5.663   6.384  16.506  0.00  0.00    +0.000 S 
ENDBRANCH   7  10
BRANCH   1  20
ATOM     19  N   UNL     1       2.794   6.485  18.777  0.00  0.00    +0.000 N 
ATOM     20  C   UNL     1       2.109   5.301  18.621  0.00  0.00    +0.000 C 
ATOM     21  O   UNL     1       1.232   5.175  17.768  0.00  0.00    +0.000 OA
ATOM     22  H   UNL     1       3.471   6.584  19.518  0.00  0.00    +0.000 HD
BRANCH  19  23
ATOM     23  C   UNL     1       2.425   7.668  18.025  0.00  0.00    +0.000 C 
BRANCH  23  25
ATOM     24  C   UNL     1       1.222   9.895  18.092  0.00  0.00    +0.000 C 
ATOM     25  C   UNL     1       1.677   8.683  18.889  0.00  0.00    +0.000 C 
ENDBRANCH  23  25
ENDBRANCH  19  23
ENDBRANCH   1  20
TORSDOF 4
ENDMDL
MODEL 4
REMARK VINA RESULT:      -6.6      0.701      1.259
REMARK  Name = 
REMARK  6 active torsions:
REMARK  status: ('A' for Active; 'I' for Inactive)
REMARK    1  A    between atoms: C_1  and  C_2
REMARK    2  A    between atoms: C_2  and  C_3
REMARK    3  A    between atoms: C_3  and  N_4
REMARK    4  A    between atoms: C_5  and  C_7
REMARK    5  A    between atoms: C_7  and  C_8
REMARK    6  A    between atoms: C_13  and  C_15
REMARK                            x       y       z     vdW  Elec       q    Type
REMARK                         _______ _______ _______ _____ _____    ______ ____
ROOT
ATOM      1  C   UNL     1       2.158   3.532  20.566  0.00  0.00    +0.000 C 
ATOM      2  C   UNL     1       2.565   3.488  22.053  0.00  0.00    +0.000 C 
ATOM      3  C   UNL     1       1.104   2.451  20.266  0.00  0.00    +0.000 C 
ATOM      4  C   UNL     1       0.857   2.291  18.763  0.00  0.00    +0.000 C 
ATOM      5  C   UNL     1       2.157   2.047  17.997  0.00  0.00    +0.000 C 
ATOM      6  N   UNL     1       3.158   3.067  18.305  0.00  0.00    +0.000 N 
ATOM      7  C   UNL     1       3.679   3.852  17.254  0.00  0.00    +0.000 C 
ATOM      8  O   UNL     1       3.260   3.677  16.105  0.00  0.00    +0.000 OA
ATOM      9  C   UNL     1       3.423   3.257  19.732  0.00  0.00    +0.000 C 
ENDROOT
BRANCH   7  10
ATOM     10  C   UNL     1       4.730   4.836  17.532  0.00  0.00    +0.000 A 
ATOM     11  C   UNL     1       4.910   6.122  17.066  0.00  0.00    +0.000 A 
ATOM     12  C   UNL     1       6.147   6.716  17.474  0.00  0.00    +0.000 A 
ATOM     13  C   UNL     1       6.746   7.938  17.089  0.00  0.00    +0.000 A 
ATOM     14  C   UNL     1       7.931   8.362  17.693  0.00  0.00    +0.000 A 
ATOM     15  C   UNL     1       8.526   7.589  18.681  0.00  0.00    +0.000 A 
ATOM     16  C   UNL     1       7.976   6.358  19.052  0.00  0.00    +0.000 A 
ATOM     17  C   UNL     1       6.791   5.925  18.424  0.00  0.00    +0.000 A 
ATOM     18  S   UNL     1       5.949   4.445  18.674  0.00  0.00    +0.000 S 
ENDBRANCH   7  10
BRANCH   1  20
ATOM     19  N   UNL     1       2.617   5.904  20.035  0.00  0.00    +0.000 N 
ATOM     20  C   UNL     1       1.646   4.952  20.247  0.00  0.00    +0.000 C 
ATOM     21  O   UNL     1       0.450   5.226  20.165  0.00  0.00    +0.000 OA
ATOM     22  H   UNL     1       3.591   5.671  20.160  0.00  0.00    +0.000 HD
BRANCH  19  23
ATOM     23  C   UNL     1       2.270   7.296  19.827  0.00  0.00    +0.000 C 
BRANCH  23  25
ATOM     24  C   UNL     1       1.616   8.975  18.048  0.00  0.00    +0.000 C 
ATOM     25  C   UNL     1       2.386   7.701  18.358  0.00  0.00    +0.000 C 
ENDBRANCH  23  25
ENDBRANCH  19  23
ENDBRANCH   1  20
TORSDOF 4
ENDMDL
MODEL 5
REMARK VINA RESULT:      -6.6      7.494     11.092
REMARK  Name = 
REMARK  6 active torsions:
REMARK  status: ('A' for Active; 'I' for Inactive)
REMARK    1  A    between atoms: C_1  and  C_2
REMARK    2  A    between atoms: C_2  and  C_3
REMARK    3  A    between atoms: C_3  and  N_4
REMARK    4  A    between atoms: C_5  and  C_7
REMARK    5  A    between atoms: C_7  and  C_8
REMARK    6  A    between atoms: C_13  and  C_15
REMARK                            x       y       z     vdW  Elec       q    Type
REMARK                         _______ _______ _______ _____ _____    ______ ____
ROOT
ATOM      1  C   UNL     1      10.157  12.018  19.984  0.00  0.00    +0.000 C 
ATOM      2  C   UNL     1       9.657  11.329  21.270  0.00  0.00    +0.000 C 
ATOM      3  C   UNL     1      11.683  11.865  19.852  0.00  0.00    +0.000 C 
ATOM      4  C   UNL     1      12.254  12.740  18.732  0.00  0.00    +0.000 C 
ATOM      5  C   UNL     1      11.839  14.204  18.889  0.00  0.00    +0.000 C 
ATOM      6  N   UNL     1      10.391  14.336  19.035  0.00  0.00    +0.000 N 
ATOM      7  C   UNL     1       9.680  15.118  18.099  0.00  0.00    +0.000 C 
ATOM      8  O   UNL     1      10.291  15.649  17.167  0.00  0.00    +0.000 OA
ATOM      9  C   UNL     1       9.802  13.513  20.093  0.00  0.00    +0.000 C 
ENDROOT
BRANCH   7  10
ATOM     10  C   UNL     1       8.237  15.316  18.264  0.00  0.00    +0.000 A 
ATOM     11  C   UNL     1       7.164  14.575  17.810  0.00  0.00    +0.000 A 
ATOM     12  C   UNL     1       5.894  15.180  18.071  0.00  0.00    +0.000 A 
ATOM     13  C   UNL     1       4.598  14.807  17.642  0.00  0.00    +0.000 A 
ATOM     14  C   UNL     1       3.478  15.503  18.100  0.00  0.00    +0.000 A 
ATOM     15  C   UNL     1       3.628  16.562  18.984  0.00  0.00    +0.000 A 
ATOM     16  C   UNL     1       4.900  16.976  19.393  0.00  0.00    +0.000 A 
ATOM     17  C   UNL     1       6.028  16.284  18.911  0.00  0.00    +0.000 A 
ATOM     18  S   UNL     1       7.685  16.622  19.231  0.00  0.00    +0.000 S 
ENDBRANCH   7  10
BRANCH   1  20
ATOM     19  N   UNL     1       8.923  10.132  18.966  0.00  0.00    +0.000 N 
ATOM     20  C   UNL     1       9.403  11.409  18.785  0.00  0.00    +0.000 C 
ATOM     21  O   UNL     1       9.217  12.020  17.733  0.00  0.00    +0.000 OA
ATOM     22  H   UNL     1       9.133   9.628  19.815  0.00  0.00    +0.000 HD
BRANCH  19  23
ATOM     23  C   UNL     1       8.286   9.409  17.883  0.00  0.00    +0.000 C 
BRANCH  23  25
ATOM     24  C   UNL     1       7.064   7.253  17.364  0.00  0.00    +0.000 C 
ATOM     25  C   UNL     1       8.151   7.919  18.194  0.00  0.00    +0.000 C 
ENDBRANCH  23  25
ENDBRANCH  19  23
ENDBRANCH   1  20
TORSDOF 4
ENDMDL
MODEL 6
REMARK VINA RESULT:      -6.5      2.242      5.253
REMARK  Name = 
REMARK  6 active torsions:
REMARK  status: ('A' for Active; 'I' for Inactive)
REMARK    1  A    between atoms: C_1  and  C_2
REMARK    2  A    between atoms: C_2  and  C_3
REMARK    3  A    between atoms: C_3  and  N_4
REMARK    4  A    between atoms: C_5  and  C_7
REMARK    5  A    between atoms: C_7  and  C_8
REMARK    6  A    between atoms: C_13  and  C_15
REMARK                            x       y       z     vdW  Elec       q    Type
REMARK                         _______ _______ _______ _____ _____    ______ ____
ROOT
ATOM      1  C   UNL     1       4.406   4.070  17.603  0.00  0.00    +0.000 C 
ATOM      2  C   UNL     1       4.574   4.259  16.082  0.00  0.00    +0.000 C 
ATOM      3  C   UNL     1       4.608   2.592  17.986  0.00  0.00    +0.000 C 
ATOM      4  C   UNL     1       4.206   2.314  19.437  0.00  0.00    +0.000 C 
ATOM      5  C   UNL     1       2.783   2.791  19.733  0.00  0.00    +0.000 C 
ATOM      6  N   UNL     1       2.596   4.188  19.347  0.00  0.00    +0.000 N 
ATOM      7  C   UNL     1       2.205   5.121  20.330  0.00  0.00    +0.000 C 
ATOM      8  O   UNL     1       2.055   4.743  21.496  0.00  0.00    +0.000 OA
ATOM      9  C   UNL     1       2.972   4.499  17.966  0.00  0.00    +0.000 C 
ENDROOT
BRANCH   7  10
ATOM     10  C   UNL     1       1.950   6.514  19.951  0.00  0.00    +0.000 A 
ATOM     11  C   UNL     1       2.200   7.191  18.774  0.00  0.00    +0.000 A 
ATOM     12  C   UNL     1       1.923   8.594  18.846  0.00  0.00    +0.000 A 
ATOM     13  C   UNL     1       2.183   9.627  17.914  0.00  0.00    +0.000 A 
ATOM     14  C   UNL     1       1.739  10.927  18.162  0.00  0.00    +0.000 A 
ATOM     15  C   UNL     1       1.034  11.213  19.323  0.00  0.00    +0.000 A 
ATOM     16  C   UNL     1       0.797  10.220  20.278  0.00  0.00    +0.000 A 
ATOM     17  C   UNL     1       1.267   8.914  20.033  0.00  0.00    +0.000 A 
ATOM     18  S   UNL     1       1.140   7.540  21.062  0.00  0.00    +0.000 S 
ENDBRANCH   7  10
BRANCH   1  20
ATOM     19  N   UNL     1       6.262   5.701  17.500  0.00  0.00    +0.000 N 
ATOM     20  C   UNL     1       5.405   5.001  18.319  0.00  0.00    +0.000 C 
ATOM     21  O   UNL     1       5.435   5.134  19.541  0.00  0.00    +0.000 OA
ATOM     22  H   UNL     1       6.258   5.537  16.504  0.00  0.00    +0.000 HD
BRANCH  19  23
ATOM     23  C   UNL     1       7.315   6.531  18.051  0.00  0.00    +0.000 C 
BRANCH  23  25
ATOM     24  C   UNL     1       8.063   8.949  17.963  0.00  0.00    +0.000 C 
ATOM     25  C   UNL     1       7.617   7.736  17.161  0.00  0.00    +0.000 C 
ENDBRANCH  23  25
ENDBRANCH  19  23
ENDBRANCH   1  20
TORSDOF 4
ENDMDL
MODEL 7
REMARK VINA RESULT:      -6.4      1.453      2.037
REMARK  Name = 
REMARK  6 active torsions:
REMARK  status: ('A' for Active; 'I' for Inactive)
REMARK    1  A    between atoms: C_1  and  C_2
REMARK    2  A    between atoms: C_2  and  C_3
REMARK    3  A    between atoms: C_3  and  N_4
REMARK    4  A    between atoms: C_5  and  C_7
REMARK    5  A    between atoms: C_7  and  C_8
REMARK    6  A    between atoms: C_13  and  C_15
REMARK                            x       y       z     vdW  Elec       q    Type
REMARK                         _______ _______ _______ _____ _____    ______ ____
ROOT
ATOM      1  C   UNL     1       2.490   4.074  19.514  0.00  0.00    +0.000 C 
ATOM      2  C   UNL     1       2.204   4.495  20.970  0.00  0.00    +0.000 C 
ATOM      3  C   UNL     1       1.794   2.738  19.196  0.00  0.00    +0.000 C 
ATOM      4  C   UNL     1       2.251   2.158  17.854  0.00  0.00    +0.000 C 
ATOM      5  C   UNL     1       3.774   2.042  17.774  0.00  0.00    +0.000 C 
ATOM      6  N   UNL     1       4.424   3.310  18.099  0.00  0.00    +0.000 N 
ATOM      7  C   UNL     1       5.268   3.909  17.140  0.00  0.00    +0.000 C 
ATOM      8  O   UNL     1       5.418   3.363  16.042  0.00  0.00    +0.000 OA
ATOM      9  C   UNL     1       4.014   3.903  19.373  0.00  0.00    +0.000 C 
ENDROOT
BRANCH   7  10
ATOM     10  C   UNL     1       5.980   5.147  17.469  0.00  0.00    +0.000 A 
ATOM     11  C   UNL     1       5.749   6.453  17.085  0.00  0.00    +0.000 A 
ATOM     12  C   UNL     1       6.761   7.369  17.517  0.00  0.00    +0.000 A 
ATOM     13  C   UNL     1       6.951   8.736  17.205  0.00  0.00    +0.000 A 
ATOM     14  C   UNL     1       7.970   9.463  17.822  0.00  0.00    +0.000 A 
ATOM     15  C   UNL     1       8.800   8.851  18.751  0.00  0.00    +0.000 A 
ATOM     16  C   UNL     1       8.659   7.492  19.049  0.00  0.00    +0.000 A 
ATOM     17  C   UNL     1       7.642   6.757  18.407  0.00  0.00    +0.000 A 
ATOM     18  S   UNL     1       7.295   5.079  18.570  0.00  0.00    +0.000 S 
ENDBRANCH   7  10
BRANCH   1  20
ATOM     19  N   UNL     1       2.535   6.459  18.860  0.00  0.00    +0.000 N 
ATOM     20  C   UNL     1       2.024   5.211  18.582  0.00  0.00    +0.000 C 
ATOM     21  O   UNL     1       1.262   5.027  17.635  0.00  0.00    +0.000 OA
ATOM     22  H   UNL     1       3.116   6.599  19.674  0.00  0.00    +0.000 HD
BRANCH  19  23
ATOM     23  C   UNL     1       2.098   7.629  18.125  0.00  0.00    +0.000 C 
BRANCH  23  25
ATOM     24  C   UNL     1       1.416   8.358  20.451  0.00  0.00    +0.000 C 
ATOM     25  C   UNL     1       1.802   8.808  19.051  0.00  0.00    +0.000 C 
ENDBRANCH  23  25
ENDBRANCH  19  23
ENDBRANCH   1  20
TORSDOF 4
ENDMDL
MODEL 8
REMARK VINA RESULT:      -6.4      7.752     11.034
REMARK  Name = 
REMARK  6 active torsions:
REMARK  status: ('A' for Active; 'I' for Inactive)
REMARK    1  A    between atoms: C_1  and  C_2
REMARK    2  A    between atoms: C_2  and  C_3
REMARK    3  A    between atoms: C_3  and  N_4
REMARK    4  A    between atoms: C_5  and  C_7
REMARK    5  A    between atoms: C_7  and  C_8
REMARK    6  A    between atoms: C_13  and  C_15
REMARK                            x       y       z     vdW  Elec       q    Type
REMARK                         _______ _______ _______ _____ _____    ______ ____
ROOT
ATOM      1  C   UNL     1      10.861  12.298  19.416  0.00  0.00    +0.000 C 
ATOM      2  C   UNL     1      12.290  11.903  19.842  0.00  0.00    +0.000 C 
ATOM      3  C   UNL     1      10.825  12.642  17.916  0.00  0.00    +0.000 C 
ATOM      4  C   UNL     1       9.494  13.278  17.504  0.00  0.00    +0.000 C 
ATOM      5  C   UNL     1       9.148  14.486  18.376  0.00  0.00    +0.000 C 
ATOM      6  N   UNL     1       9.207  14.154  19.798  0.00  0.00    +0.000 N 
ATOM      7  C   UNL     1       8.049  14.324  20.586  0.00  0.00    +0.000 C 
ATOM      8  O   UNL     1       7.009  14.724  20.054  0.00  0.00    +0.000 OA
ATOM      9  C   UNL     1      10.462  13.540  20.235  0.00  0.00    +0.000 C 
ENDROOT
BRANCH   7  10
ATOM     10  C   UNL     1       8.104  14.058  22.027  0.00  0.00    +0.000 A 
ATOM     11  C   UNL     1       7.735  12.946  22.756  0.00  0.00    +0.000 A 
ATOM     12  C   UNL     1       7.821  13.129  24.172  0.00  0.00    +0.000 A 
ATOM     13  C   UNL     1       7.400  12.290  25.232  0.00  0.00    +0.000 A 
ATOM     14  C   UNL     1       7.671  12.639  26.556  0.00  0.00    +0.000 A 
ATOM     15  C   UNL     1       8.361  13.809  26.842  0.00  0.00    +0.000 A 
ATOM     16  C   UNL     1       8.753  14.675  25.817  0.00  0.00    +0.000 A 
ATOM     17  C   UNL     1       8.458  14.330  24.483  0.00  0.00    +0.000 A 
ATOM     18  S   UNL     1       8.796  15.239  23.062  0.00  0.00    +0.000 S 
ENDBRANCH   7  10
BRANCH   1  20
ATOM     19  N   UNL     1       9.629  10.261  18.748  0.00  0.00    +0.000 N 
ATOM     20  C   UNL     1       9.912  11.136  19.772  0.00  0.00    +0.000 C 
ATOM     21  O   UNL     1       9.446  10.977  20.899  0.00  0.00    +0.000 OA
ATOM     22  H   UNL     1       9.977  10.439  17.818  0.00  0.00    +0.000 HD
BRANCH  19  23
ATOM     23  C   UNL     1       8.671   9.186  18.924  0.00  0.00    +0.000 C 
BRANCH  23  25
ATOM     24  C   UNL     1       7.563   7.354  17.573  0.00  0.00    +0.000 C 
ATOM     25  C   UNL     1       7.983   8.815  17.611  0.00  0.00    +0.000 C 
ENDBRANCH  23  25
ENDBRANCH  19  23
ENDBRANCH   1  20
TORSDOF 4
ENDMDL
MODEL 9
REMARK VINA RESULT:      -6.3      1.984      5.177
REMARK  Name = 
REMARK  6 active torsions:
REMARK  status: ('A' for Active; 'I' for Inactive)
REMARK    1  A    between atoms: C_1  and  C_2
REMARK    2  A    between atoms: C_2  and  C_3
REMARK    3  A    between atoms: C_3  and  N_4
REMARK    4  A    between atoms: C_5  and  C_7
REMARK    5  A    between atoms: C_7  and  C_8
REMARK    6  A    between atoms: C_13  and  C_15
REMARK                            x       y       z     vdW  Elec       q    Type
REMARK                         _______ _______ _______ _____ _____    ______ ____
ROOT
ATOM      1  C   UNL     1       4.298   3.974  17.551  0.00  0.00    +0.000 C 
ATOM      2  C   UNL     1       4.454   4.218  16.036  0.00  0.00    +0.000 C 
ATOM      3  C   UNL     1       4.426   2.474  17.869  0.00  0.00    +0.000 C 
ATOM      4  C   UNL     1       4.029   2.156  19.314  0.00  0.00    +0.000 C 
ATOM      5  C   UNL     1       2.639   2.695  19.653  0.00  0.00    +0.000 C 
ATOM      6  N   UNL     1       2.522   4.115  19.327  0.00  0.00    +0.000 N 
ATOM      7  C   UNL     1       2.195   5.026  20.355  0.00  0.00    +0.000 C 
ATOM      8  O   UNL     1       2.042   4.608  21.506  0.00  0.00    +0.000 OA
ATOM      9  C   UNL     1       2.894   4.464  17.955  0.00  0.00    +0.000 C 
ENDROOT
BRANCH   7  10
ATOM     10  C   UNL     1       2.010   6.445  20.037  0.00  0.00    +0.000 A 
ATOM     11  C   UNL     1       1.517   7.485  20.799  0.00  0.00    +0.000 A 
ATOM     12  C   UNL     1       1.370   8.711  20.075  0.00  0.00    +0.000 A 
ATOM     13  C   UNL     1       0.774   9.936  20.460  0.00  0.00    +0.000 A 
ATOM     14  C   UNL     1       0.826  11.042  19.610  0.00  0.00    +0.000 A 
ATOM     15  C   UNL     1       1.469  10.948  18.383  0.00  0.00    +0.000 A 
ATOM     16  C   UNL     1       2.032   9.740  17.962  0.00  0.00    +0.000 A 
ATOM     17  C   UNL     1       1.957   8.621  18.814  0.00  0.00    +0.000 A 
ATOM     18  S   UNL     1       2.532   7.027  18.510  0.00  0.00    +0.000 S 
ENDBRANCH   7  10
BRANCH   1  20
ATOM     19  N   UNL     1       6.230   5.516  17.486  0.00  0.00    +0.000 N 
ATOM     20  C   UNL     1       5.356   4.820  18.289  0.00  0.00    +0.000 C 
ATOM     21  O   UNL     1       5.415   4.893  19.515  0.00  0.00    +0.000 OA
ATOM     22  H   UNL     1       6.200   5.400  16.483  0.00  0.00    +0.000 HD
BRANCH  19  23
ATOM     23  C   UNL     1       7.334   6.266  18.052  0.00  0.00    +0.000 C 
BRANCH  23  25
ATOM     24  C   UNL     1       8.368   8.570  18.242  0.00  0.00    +0.000 C 
ATOM     25  C   UNL     1       7.453   7.660  17.437  0.00  0.00    +0.000 C 
ENDBRANCH  23  25
ENDBRANCH  19  23
ENDBRANCH   1  20
TORSDOF 4
ENDMDL
