MODEL 1
REMARK VINA RESULT:      -9.6      0.000      0.000
REMARK  Name = 
REMARK  10 active torsions:
REMARK  status: ('A' for Active; 'I' for Inactive)
REMARK    1  A    between atoms: C_1  and  C_2
REMARK    2  A    between atoms: C_4  and  N_5
REMARK    3  A    between atoms: C_6  and  S_7
REMARK    4  A    between atoms: S_7  and  C_8
REMARK    5  A    between atoms: C_8  and  C_9
REMARK    6  A    between atoms: N_11  and  C_12
REMARK    7  A    between atoms: C_12  and  C_13
REMARK    8  A    between atoms: C_13  and  C_14
REMARK    9  A    between atoms: C_24  and  C_25
REMARK   10  A    between atoms: C_27  and  N_28
REMARK                            x       y       z     vdW  Elec       q    Type
REMARK                         _______ _______ _______ _____ _____    ______ ____
ROOT
ATOM      1  N   UNL     1       2.741   6.259  18.932  0.00  0.00    +0.000 N 
ATOM      2  C   UNL     1       3.701   5.811  17.968  0.00  0.00    +0.000 A 
ATOM      3  N   UNL     1       4.136   4.591  17.844  0.00  0.00    +0.000 NA
ATOM      4  C   UNL     1       3.622   3.661  18.683  0.00  0.00    +0.000 A 
ATOM      5  N   UNL     1       3.908   2.390  18.678  0.00  0.00    +0.000 NA
ATOM      6  N   UNL     1       3.172   1.775  19.771  0.00  0.00    +0.000 NA
ATOM      7  C   UNL     1       2.489   2.715  20.375  0.00  0.00    +0.000 A 
ATOM      8  C   UNL     1       1.631   2.461  21.569  0.00  0.00    +0.000 C 
ATOM      9  C   UNL     1       2.683   4.017  19.735  0.00  0.00    +0.000 A 
ATOM     10  C   UNL     1       2.230   5.273  19.857  0.00  0.00    +0.000 A 
ENDROOT
BRANCH   1  14
ATOM     11  C   UNL     1       0.400   9.773  21.557  0.00  0.00    +0.000 C 
ATOM     12  C   UNL     1       1.048   9.383  20.255  0.00  0.00    +0.000 A 
ATOM     13  C   UNL     1       1.841   8.219  20.197  0.00  0.00    +0.000 A 
ATOM     14  C   UNL     1       2.207   7.608  18.974  0.00  0.00    +0.000 A 
ATOM     15  C   UNL     1       1.900   8.330  17.811  0.00  0.00    +0.000 A 
ATOM     16  C   UNL     1       1.279   9.585  17.863  0.00  0.00    +0.000 A 
ATOM     17  C   UNL     1       0.821  10.093  19.076  0.00  0.00    +0.000 A 
ATOM     18 CL   UNL     1      -0.062  11.575  19.060  0.00  0.00    +0.000 Cl
ENDBRANCH   1  14
BRANCH  10  19
ATOM     19  N   UNL     1       1.287   5.554  20.852  0.00  0.00    +0.000 N 
ATOM     20  H   UNL     1       1.078   4.803  21.498  0.00  0.00    +0.000 HD
ATOM     21  H   UNL     1       0.427   5.933  20.465  0.00  0.00    +0.000 HD
ENDBRANCH  10  19
BRANCH   2  22
ATOM     22  S   UNL     1       4.550   6.957  16.891  0.00  0.00    +0.000 S 
BRANCH  22  23
ATOM     23  C   UNL     1       6.166   6.159  16.634  0.00  0.00    +0.000 C 
BRANCH  23  24
ATOM     24  C   UNL     1       7.255   6.731  17.537  0.00  0.00    +0.000 C 
ATOM     25  O   UNL     1       7.824   6.068  18.402  0.00  0.00    +0.000 OA
ATOM     26  N   UNL     1       7.557   8.071  17.326  0.00  0.00    +0.000 N 
ATOM     27  H   UNL     1       7.131   8.578  16.561  0.00  0.00    +0.000 HD
BRANCH  26  28
ATOM     28  C   UNL     1       8.497   8.758  18.203  0.00  0.00    +0.000 C 
BRANCH  28  29
ATOM     29  C   UNL     1       8.421  10.289  18.132  0.00  0.00    +0.000 C 
BRANCH  29  30
ATOM     30  C   UNL     1       9.679  10.971  18.649  0.00  0.00    +0.000 C 
ATOM     31  C   UNL     1      10.630  11.450  17.820  0.00  0.00    +0.000 C 
ATOM     32  C   UNL     1      11.893  12.112  18.293  0.00  0.00    +0.000 C 
ATOM     33  C   UNL     1      12.158  11.926  19.787  0.00  0.00    +0.000 C 
ATOM     34  C   UNL     1      10.879  12.103  20.596  0.00  0.00    +0.000 C 
ATOM     35  C   UNL     1       9.806  11.105  20.152  0.00  0.00    +0.000 C 
ENDBRANCH  29  30
ENDBRANCH  28  29
ENDBRANCH  26  28
ENDBRANCH  23  24
ENDBRANCH  22  23
ENDBRANCH   2  22
TORSDOF 8
ENDMDL
MODEL 2
REMARK VINA RESULT:      -9.3      0.535      1.034
REMARK  Name = 
REMARK  10 active torsions:
REMARK  status: ('A' for Active; 'I' for Inactive)
REMARK    1  A    between atoms: C_1  and  C_2
REMARK    2  A    between atoms: C_4  and  N_5
REMARK    3  A    between atoms: C_6  and  S_7
REMARK    4  A    between atoms: S_7  and  C_8
REMARK    5  A    between atoms: C_8  and  C_9
REMARK    6  A    between atoms: N_11  and  C_12
REMARK    7  A    between atoms: C_12  and  C_13
REMARK    8  A    between atoms: C_13  and  C_14
REMARK    9  A    between atoms: C_24  and  C_25
REMARK   10  A    between atoms: C_27  and  N_28
REMARK                            x       y       z     vdW  Elec       q    Type
REMARK                         _______ _______ _______ _____ _____    ______ ____
ROOT
ATOM      1  N   UNL     1       2.811   6.045  18.591  0.00  0.00    +0.000 N 
ATOM      2  C   UNL     1       3.785   5.690  17.603  0.00  0.00    +0.000 A 
ATOM      3  N   UNL     1       4.171   4.480  17.322  0.00  0.00    +0.000 NA
ATOM      4  C   UNL     1       3.587   3.468  18.004  0.00  0.00    +0.000 A 
ATOM      5  N   UNL     1       3.818   2.197  17.829  0.00  0.00    +0.000 NA
ATOM      6  N   UNL     1       3.016   1.473  18.801  0.00  0.00    +0.000 NA
ATOM      7  C   UNL     1       2.353   2.350  19.511  0.00  0.00    +0.000 A 
ATOM      8  C   UNL     1       1.441   1.973  20.630  0.00  0.00    +0.000 C 
ATOM      9  C   UNL     1       2.627   3.718  19.067  0.00  0.00    +0.000 A 
ATOM     10  C   UNL     1       2.224   4.965  19.352  0.00  0.00    +0.000 A 
ENDROOT
BRANCH   1  14
ATOM     11  C   UNL     1       0.662   9.304  21.669  0.00  0.00    +0.000 C 
ATOM     12  C   UNL     1       1.272   9.050  20.317  0.00  0.00    +0.000 A 
ATOM     13  C   UNL     1       2.015   7.871  20.102  0.00  0.00    +0.000 A 
ATOM     14  C   UNL     1       2.335   7.399  18.807  0.00  0.00    +0.000 A 
ATOM     15  C   UNL     1       2.040   8.269  17.746  0.00  0.00    +0.000 A 
ATOM     16  C   UNL     1       1.474   9.531  17.963  0.00  0.00    +0.000 A 
ATOM     17  C   UNL     1       1.057   9.907  19.237  0.00  0.00    +0.000 A 
ATOM     18 CL   UNL     1       0.237  11.413  19.419  0.00  0.00    +0.000 Cl
ENDBRANCH   1  14
BRANCH  10  19
ATOM     19  N   UNL     1       1.258   5.150  20.347  0.00  0.00    +0.000 N 
ATOM     20  H   UNL     1       0.862   6.079  20.422  0.00  0.00    +0.000 HD
ATOM     21  H   UNL     1       1.585   4.834  21.257  0.00  0.00    +0.000 HD
ENDBRANCH  10  19
BRANCH   2  22
ATOM     22  S   UNL     1       4.723   6.934  16.725  0.00  0.00    +0.000 S 
BRANCH  22  23
ATOM     23  C   UNL     1       6.399   6.223  16.673  0.00  0.00    +0.000 C 
BRANCH  23  24
ATOM     24  C   UNL     1       7.351   6.890  17.661  0.00  0.00    +0.000 C 
ATOM     25  O   UNL     1       7.798   6.316  18.652  0.00  0.00    +0.000 OA
ATOM     26  N   UNL     1       7.675   8.212  17.374  0.00  0.00    +0.000 N 
ATOM     27  H   UNL     1       7.356   8.642  16.516  0.00  0.00    +0.000 HD
BRANCH  26  28
ATOM     28  C   UNL     1       8.482   8.987  18.307  0.00  0.00    +0.000 C 
BRANCH  28  29
ATOM     29  C   UNL     1       8.574  10.481  17.968  0.00  0.00    +0.000 C 
BRANCH  29  30
ATOM     30  C   UNL     1       9.743  11.175  18.652  0.00  0.00    +0.000 C 
ATOM     31  C   UNL     1       9.802  11.331  19.991  0.00  0.00    +0.000 C 
ATOM     32  C   UNL     1      10.930  12.026  20.701  0.00  0.00    +0.000 C 
ATOM     33  C   UNL     1      11.850  12.809  19.765  0.00  0.00    +0.000 C 
ATOM     34  C   UNL     1      12.147  12.015  18.500  0.00  0.00    +0.000 C 
ATOM     35  C   UNL     1      10.857  11.669  17.752  0.00  0.00    +0.000 C 
ENDBRANCH  29  30
ENDBRANCH  28  29
ENDBRANCH  26  28
ENDBRANCH  23  24
ENDBRANCH  22  23
ENDBRANCH   2  22
TORSDOF 8
ENDMDL
MODEL 3
REMARK VINA RESULT:      -8.8      0.867      1.054
REMARK  Name = 
REMARK  10 active torsions:
REMARK  status: ('A' for Active; 'I' for Inactive)
REMARK    1  A    between atoms: C_1  and  C_2
REMARK    2  A    between atoms: C_4  and  N_5
REMARK    3  A    between atoms: C_6  and  S_7
REMARK    4  A    between atoms: S_7  and  C_8
REMARK    5  A    between atoms: C_8  and  C_9
REMARK    6  A    between atoms: N_11  and  C_12
REMARK    7  A    between atoms: C_12  and  C_13
REMARK    8  A    between atoms: C_13  and  C_14
REMARK    9  A    between atoms: C_24  and  C_25
REMARK   10  A    between atoms: C_27  and  N_28
REMARK                            x       y       z     vdW  Elec       q    Type
REMARK                         _______ _______ _______ _____ _____    ______ ____
ROOT
ATOM      1  N   UNL     1       2.961   6.393  19.017  0.00  0.00    +0.000 N 
ATOM      2  C   UNL     1       4.036   6.009  18.152  0.00  0.00    +0.000 A 
ATOM      3  N   UNL     1       4.588   4.833  18.108  0.00  0.00    +0.000 NA
ATOM      4  C   UNL     1       4.091   3.883  18.934  0.00  0.00    +0.000 A 
ATOM      5  N   UNL     1       4.490   2.644  18.998  0.00  0.00    +0.000 NA
ATOM      6  N   UNL     1       3.722   1.994  20.047  0.00  0.00    +0.000 NA
ATOM      7  C   UNL     1       2.907   2.883  20.560  0.00  0.00    +0.000 A 
ATOM      8  C   UNL     1       1.977   2.583  21.686  0.00  0.00    +0.000 C 
ATOM      9  C   UNL     1       3.037   4.179  19.892  0.00  0.00    +0.000 A 
ATOM     10  C   UNL     1       2.464   5.390  19.931  0.00  0.00    +0.000 A 
ENDROOT
BRANCH   1  14
ATOM     11  C   UNL     1       0.252   9.828  21.380  0.00  0.00    +0.000 C 
ATOM     12  C   UNL     1       0.961   9.422  20.116  0.00  0.00    +0.000 A 
ATOM     13  C   UNL     1       1.859   8.335  20.143  0.00  0.00    +0.000 A 
ATOM     14  C   UNL     1       2.305   7.687  18.967  0.00  0.00    +0.000 A 
ATOM     15  C   UNL     1       1.960   8.307  17.756  0.00  0.00    +0.000 A 
ATOM     16  C   UNL     1       1.226   9.500  17.720  0.00  0.00    +0.000 A 
ATOM     17  C   UNL     1       0.698  10.036  18.891  0.00  0.00    +0.000 A 
ATOM     18 CL   UNL     1      -0.316  11.426  18.770  0.00  0.00    +0.000 Cl
ENDBRANCH   1  14
BRANCH  10  19
ATOM     19  N   UNL     1       1.418   5.610  20.834  0.00  0.00    +0.000 N 
ATOM     20  H   UNL     1       0.522   5.204  20.592  0.00  0.00    +0.000 HD
ATOM     21  H   UNL     1       1.307   6.596  21.055  0.00  0.00    +0.000 HD
ENDBRANCH  10  19
BRANCH   2  22
ATOM     22  S   UNL     1       4.867   7.200  17.109  0.00  0.00    +0.000 S 
BRANCH  22  23
ATOM     23  C   UNL     1       6.551   6.519  16.970  0.00  0.00    +0.000 C 
BRANCH  23  24
ATOM     24  C   UNL     1       7.538   7.196  17.917  0.00  0.00    +0.000 C 
ATOM     25  O   UNL     1       8.102   6.601  18.833  0.00  0.00    +0.000 OA
ATOM     26  N   UNL     1       7.751   8.550  17.684  0.00  0.00    +0.000 N 
ATOM     27  H   UNL     1       7.335   9.003  16.881  0.00  0.00    +0.000 HD
BRANCH  26  28
ATOM     28  C   UNL     1       8.582   9.328  18.593  0.00  0.00    +0.000 C 
BRANCH  28  29
ATOM     29  C   UNL     1       9.246  10.552  17.947  0.00  0.00    +0.000 C 
BRANCH  29  30
ATOM     30  C   UNL     1       9.452  11.701  18.924  0.00  0.00    +0.000 C 
ATOM     31  C   UNL     1       8.959  12.936  18.695  0.00  0.00    +0.000 C 
ATOM     32  C   UNL     1       9.157  14.099  19.626  0.00  0.00    +0.000 C 
ATOM     33  C   UNL     1      10.217  13.849  20.698  0.00  0.00    +0.000 C 
ATOM     34  C   UNL     1      10.088  12.447  21.280  0.00  0.00    +0.000 C 
ATOM     35  C   UNL     1      10.226  11.384  20.186  0.00  0.00    +0.000 C 
ENDBRANCH  29  30
ENDBRANCH  28  29
ENDBRANCH  26  28
ENDBRANCH  23  24
ENDBRANCH  22  23
ENDBRANCH   2  22
TORSDOF 8
ENDMDL
MODEL 4
REMARK VINA RESULT:      -8.7      3.112      5.383
REMARK  Name = 
REMARK  10 active torsions:
REMARK  status: ('A' for Active; 'I' for Inactive)
REMARK    1  A    between atoms: C_1  and  C_2
REMARK    2  A    between atoms: C_4  and  N_5
REMARK    3  A    between atoms: C_6  and  S_7
REMARK    4  A    between atoms: S_7  and  C_8
REMARK    5  A    between atoms: C_8  and  C_9
REMARK    6  A    between atoms: N_11  and  C_12
REMARK    7  A    between atoms: C_12  and  C_13
REMARK    8  A    between atoms: C_13  and  C_14
REMARK    9  A    between atoms: C_24  and  C_25
REMARK   10  A    between atoms: C_27  and  N_28
REMARK                            x       y       z     vdW  Elec       q    Type
REMARK                         _______ _______ _______ _____ _____    ______ ____
ROOT
ATOM      1  N   UNL     1       5.641   5.036  16.557  0.00  0.00    +0.000 N 
ATOM      2  C   UNL     1       6.843   5.816  16.533  0.00  0.00    +0.000 A 
ATOM      3  N   UNL     1       7.657   5.919  15.525  0.00  0.00    +0.000 NA
ATOM      4  C   UNL     1       7.332   5.252  14.393  0.00  0.00    +0.000 A 
ATOM      5  N   UNL     1       8.004   5.271  13.277  0.00  0.00    +0.000 NA
ATOM      6  N   UNL     1       7.327   4.381  12.347  0.00  0.00    +0.000 NA
ATOM      7  C   UNL     1       6.288   3.872  12.961  0.00  0.00    +0.000 A 
ATOM      8  C   UNL     1       5.366   2.888  12.324  0.00  0.00    +0.000 C 
ATOM      9  C   UNL     1       6.164   4.387  14.325  0.00  0.00    +0.000 A 
ATOM     10  C   UNL     1       5.321   4.287  15.363  0.00  0.00    +0.000 A 
ENDROOT
BRANCH   1  14
ATOM     11  C   UNL     1       3.675   2.528  20.373  0.00  0.00    +0.000 C 
ATOM     12  C   UNL     1       3.710   3.807  19.580  0.00  0.00    +0.000 A 
ATOM     13  C   UNL     1       4.766   4.031  18.673  0.00  0.00    +0.000 A 
ATOM     14  C   UNL     1       4.706   5.026  17.667  0.00  0.00    +0.000 A 
ATOM     15  C   UNL     1       3.618   5.909  17.741  0.00  0.00    +0.000 A 
ATOM     16  C   UNL     1       2.659   5.815  18.757  0.00  0.00    +0.000 A 
ATOM     17  C   UNL     1       2.682   4.748  19.651  0.00  0.00    +0.000 A 
ATOM     18 CL   UNL     1       1.395   4.605  20.789  0.00  0.00    +0.000 Cl
ENDBRANCH   1  14
BRANCH  10  19
ATOM     19  N   UNL     1       4.183   3.484  15.230  0.00  0.00    +0.000 N 
ATOM     20  H   UNL     1       4.079   2.737  15.906  0.00  0.00    +0.000 HD
ATOM     21  H   UNL     1       4.083   3.119  14.287  0.00  0.00    +0.000 HD
ENDBRANCH  10  19
BRANCH   2  22
ATOM     22  S   UNL     1       7.453   6.638  17.999  0.00  0.00    +0.000 S 
BRANCH  22  23
ATOM     23  C   UNL     1       7.427   8.396  17.524  0.00  0.00    +0.000 C 
BRANCH  23  24
ATOM     24  C   UNL     1       8.420   9.235  18.324  0.00  0.00    +0.000 C 
ATOM     25  O   UNL     1       9.029   8.802  19.300  0.00  0.00    +0.000 OA
ATOM     26  N   UNL     1       8.584  10.542  17.880  0.00  0.00    +0.000 N 
ATOM     27  H   UNL     1       8.131  10.856  17.032  0.00  0.00    +0.000 HD
BRANCH  26  28
ATOM     28  C   UNL     1       9.417  11.472  18.632  0.00  0.00    +0.000 C 
BRANCH  28  29
ATOM     29  C   UNL     1      10.723  11.861  17.925  0.00  0.00    +0.000 C 
BRANCH  29  30
ATOM     30  C   UNL     1      10.830  13.355  17.656  0.00  0.00    +0.000 C 
ATOM     31  C   UNL     1       9.832  14.212  17.957  0.00  0.00    +0.000 C 
ATOM     32  C   UNL     1       9.894  15.690  17.689  0.00  0.00    +0.000 C 
ATOM     33  C   UNL     1      11.048  16.097  16.773  0.00  0.00    +0.000 C 
ATOM     34  C   UNL     1      12.327  15.356  17.141  0.00  0.00    +0.000 C 
ATOM     35  C   UNL     1      12.129  13.840  17.049  0.00  0.00    +0.000 C 
ENDBRANCH  29  30
ENDBRANCH  28  29
ENDBRANCH  26  28
ENDBRANCH  23  24
ENDBRANCH  22  23
ENDBRANCH   2  22
TORSDOF 8
ENDMDL
MODEL 5
REMARK VINA RESULT:      -8.6      5.487      8.806
REMARK  Name = 
REMARK  10 active torsions:
REMARK  status: ('A' for Active; 'I' for Inactive)
REMARK    1  A    between atoms: C_1  and  C_2
REMARK    2  A    between atoms: C_4  and  N_5
REMARK    3  A    between atoms: C_6  and  S_7
REMARK    4  A    between atoms: S_7  and  C_8
REMARK    5  A    between atoms: C_8  and  C_9
REMARK    6  A    between atoms: N_11  and  C_12
REMARK    7  A    between atoms: C_12  and  C_13
REMARK    8  A    between atoms: C_13  and  C_14
REMARK    9  A    between atoms: C_24  and  C_25
REMARK   10  A    between atoms: C_27  and  N_28
REMARK                            x       y       z     vdW  Elec       q    Type
REMARK                         _______ _______ _______ _____ _____    ______ ____
ROOT
ATOM      1  N   UNL     1      -1.617  11.750  20.359  0.00  0.00    +0.000 N 
ATOM      2  C   UNL     1      -0.603  10.815  19.971  0.00  0.00    +0.000 A 
ATOM      3  N   UNL     1      -0.574  10.151  18.854  0.00  0.00    +0.000 NA
ATOM      4  C   UNL     1      -1.576  10.377  17.972  0.00  0.00    +0.000 A 
ATOM      5  N   UNL     1      -1.689   9.835  16.792  0.00  0.00    +0.000 NA
ATOM      6  N   UNL     1      -2.930  10.318  16.210  0.00  0.00    +0.000 NA
ATOM      7  C   UNL     1      -3.497  11.120  17.077  0.00  0.00    +0.000 A 
ATOM      8  C   UNL     1      -4.808  11.787  16.834  0.00  0.00    +0.000 C 
ATOM      9  C   UNL     1      -2.685  11.263  18.287  0.00  0.00    +0.000 A 
ATOM     10  C   UNL     1      -2.710  11.953  19.435  0.00  0.00    +0.000 A 
ENDROOT
BRANCH   1  14
ATOM     11  C   UNL     1      -3.817  13.093  24.610  0.00  0.00    +0.000 C 
ATOM     12  C   UNL     1      -2.627  13.232  23.700  0.00  0.00    +0.000 A 
ATOM     13  C   UNL     1      -2.443  12.306  22.653  0.00  0.00    +0.000 A 
ATOM     14  C   UNL     1      -1.562  12.546  21.572  0.00  0.00    +0.000 A 
ATOM     15  C   UNL     1      -0.732  13.672  21.693  0.00  0.00    +0.000 A 
ATOM     16  C   UNL     1      -0.770  14.498  22.823  0.00  0.00    +0.000 A 
ATOM     17  C   UNL     1      -1.738  14.303  23.805  0.00  0.00    +0.000 A 
ATOM     18 CL   UNL     1      -1.828  15.437  25.102  0.00  0.00    +0.000 Cl
ENDBRANCH   1  14
BRANCH  10  19
ATOM     19  N   UNL     1      -3.772  12.834  19.669  0.00  0.00    +0.000 N 
ATOM     20  H   UNL     1      -3.572  13.820  19.553  0.00  0.00    +0.000 HD
ATOM     21  H   UNL     1      -4.212  12.668  20.570  0.00  0.00    +0.000 HD
ENDBRANCH  10  19
BRANCH   2  22
ATOM     22  S   UNL     1       0.701  10.330  21.095  0.00  0.00    +0.000 S 
BRANCH  22  23
ATOM     23  C   UNL     1       0.279   8.604  21.492  0.00  0.00    +0.000 C 
BRANCH  23  24
ATOM     24  C   UNL     1       1.186   7.600  20.787  0.00  0.00    +0.000 C 
ATOM     25  O   UNL     1       1.353   6.451  21.190  0.00  0.00    +0.000 OA
ATOM     26  N   UNL     1       1.832   8.078  19.653  0.00  0.00    +0.000 N 
ATOM     27  H   UNL     1       1.624   9.002  19.297  0.00  0.00    +0.000 HD
BRANCH  26  28
ATOM     28  C   UNL     1       2.812   7.249  18.963  0.00  0.00    +0.000 C 
BRANCH  28  29
ATOM     29  C   UNL     1       2.242   6.454  17.780  0.00  0.00    +0.000 C 
BRANCH  29  30
ATOM     30  C   UNL     1       2.402   4.950  17.942  0.00  0.00    +0.000 C 
ATOM     31  C   UNL     1       1.367   4.148  18.269  0.00  0.00    +0.000 C 
ATOM     32  C   UNL     1       1.490   2.662  18.456  0.00  0.00    +0.000 C 
ATOM     33  C   UNL     1       2.936   2.175  18.547  0.00  0.00    +0.000 C 
ATOM     34  C   UNL     1       3.813   2.868  17.511  0.00  0.00    +0.000 C 
ATOM     35  C   UNL     1       3.787   4.387  17.697  0.00  0.00    +0.000 C 
ENDBRANCH  29  30
ENDBRANCH  28  29
ENDBRANCH  26  28
ENDBRANCH  23  24
ENDBRANCH  22  23
ENDBRANCH   2  22
TORSDOF 8
ENDMDL
MODEL 6
REMARK VINA RESULT:      -8.6      3.190      5.959
REMARK  Name = 
REMARK  10 active torsions:
REMARK  status: ('A' for Active; 'I' for Inactive)
REMARK    1  A    between atoms: C_1  and  C_2
REMARK    2  A    between atoms: C_4  and  N_5
REMARK    3  A    between atoms: C_6  and  S_7
REMARK    4  A    between atoms: S_7  and  C_8
REMARK    5  A    between atoms: C_8  and  C_9
REMARK    6  A    between atoms: N_11  and  C_12
REMARK    7  A    between atoms: C_12  and  C_13
REMARK    8  A    between atoms: C_13  and  C_14
REMARK    9  A    between atoms: C_24  and  C_25
REMARK   10  A    between atoms: C_27  and  N_28
REMARK                            x       y       z     vdW  Elec       q    Type
REMARK                         _______ _______ _______ _____ _____    ______ ____
ROOT
ATOM      1  N   UNL     1       2.858   6.337  19.138  0.00  0.00    +0.000 N 
ATOM      2  C   UNL     1       3.970   5.915  18.339  0.00  0.00    +0.000 A 
ATOM      3  N   UNL     1       4.488   4.722  18.333  0.00  0.00    +0.000 NA
ATOM      4  C   UNL     1       3.914   3.793  19.132  0.00  0.00    +0.000 A 
ATOM      5  N   UNL     1       4.270   2.543  19.226  0.00  0.00    +0.000 NA
ATOM      6  N   UNL     1       3.422   1.924  20.231  0.00  0.00    +0.000 NA
ATOM      7  C   UNL     1       2.606   2.840  20.690  0.00  0.00    +0.000 A 
ATOM      8  C   UNL     1       1.603   2.575  21.761  0.00  0.00    +0.000 C 
ATOM      9  C   UNL     1       2.815   4.127  20.025  0.00  0.00    +0.000 A 
ATOM     10  C   UNL     1       2.277   5.355  20.025  0.00  0.00    +0.000 A 
ENDROOT
BRANCH   1  14
ATOM     11  C   UNL     1       0.162   9.888  21.339  0.00  0.00    +0.000 C 
ATOM     12  C   UNL     1       0.912   9.442  20.111  0.00  0.00    +0.000 A 
ATOM     13  C   UNL     1       1.772   8.328  20.191  0.00  0.00    +0.000 A 
ATOM     14  C   UNL     1       2.247   7.650  19.043  0.00  0.00    +0.000 A 
ATOM     15  C   UNL     1       1.973   8.264  17.810  0.00  0.00    +0.000 A 
ATOM     16  C   UNL     1       1.280   9.478  17.729  0.00  0.00    +0.000 A 
ATOM     17  C   UNL     1       0.719  10.047  18.869  0.00  0.00    +0.000 A 
ATOM     18 CL   UNL     1      -0.243  11.466  18.686  0.00  0.00    +0.000 Cl
ENDBRANCH   1  14
BRANCH  10  19
ATOM     19  N   UNL     1       1.188   5.613  20.864  0.00  0.00    +0.000 N 
ATOM     20  H   UNL     1       1.374   6.184  21.680  0.00  0.00    +0.000 HD
ATOM     21  H   UNL     1       0.707   4.759  21.135  0.00  0.00    +0.000 HD
ENDBRANCH  10  19
BRANCH   2  22
ATOM     22  S   UNL     1       4.898   7.073  17.341  0.00  0.00    +0.000 S 
BRANCH  22  23
ATOM     23  C   UNL     1       6.627   6.629  17.698  0.00  0.00    +0.000 C 
BRANCH  23  24
ATOM     24  C   UNL     1       7.148   5.520  16.789  0.00  0.00    +0.000 C 
ATOM     25  O   UNL     1       7.891   4.623  17.184  0.00  0.00    +0.000 OA
ATOM     26  N   UNL     1       6.735   5.595  15.463  0.00  0.00    +0.000 N 
ATOM     27  H   UNL     1       6.066   6.297  15.175  0.00  0.00    +0.000 HD
BRANCH  26  28
ATOM     28  C   UNL     1       7.261   4.660  14.478  0.00  0.00    +0.000 C 
BRANCH  28  29
ATOM     29  C   UNL     1       6.816   4.948  13.037  0.00  0.00    +0.000 C 
BRANCH  29  30
ATOM     30  C   UNL     1       6.417   3.693  12.276  0.00  0.00    +0.000 C 
ATOM     31  C   UNL     1       5.132   3.419  11.965  0.00  0.00    +0.000 C 
ATOM     32  C   UNL     1       4.696   2.181  11.232  0.00  0.00    +0.000 C 
ATOM     33  C   UNL     1       5.785   1.114  11.136  0.00  0.00    +0.000 C 
ATOM     34  C   UNL     1       7.135   1.736  10.804  0.00  0.00    +0.000 C 
ATOM     35  C   UNL     1       7.540   2.766  11.863  0.00  0.00    +0.000 C 
ENDBRANCH  29  30
ENDBRANCH  28  29
ENDBRANCH  26  28
ENDBRANCH  23  24
ENDBRANCH  22  23
ENDBRANCH   2  22
TORSDOF 8
ENDMDL
MODEL 7
REMARK VINA RESULT:      -8.6      4.804      8.398
REMARK  Name = 
REMARK  10 active torsions:
REMARK  status: ('A' for Active; 'I' for Inactive)
REMARK    1  A    between atoms: C_1  and  C_2
REMARK    2  A    between atoms: C_4  and  N_5
REMARK    3  A    between atoms: C_6  and  S_7
REMARK    4  A    between atoms: S_7  and  C_8
REMARK    5  A    between atoms: C_8  and  C_9
REMARK    6  A    between atoms: N_11  and  C_12
REMARK    7  A    between atoms: C_12  and  C_13
REMARK    8  A    between atoms: C_13  and  C_14
REMARK    9  A    between atoms: C_24  and  C_25
REMARK   10  A    between atoms: C_27  and  N_28
REMARK                            x       y       z     vdW  Elec       q    Type
REMARK                         _______ _______ _______ _____ _____    ______ ____
ROOT
ATOM      1  N   UNL     1      -0.569  12.401  19.914  0.00  0.00    +0.000 N 
ATOM      2  C   UNL     1       0.167  11.665  20.898  0.00  0.00    +0.000 A 
ATOM      3  N   UNL     1       1.337  11.986  21.365  0.00  0.00    +0.000 NA
ATOM      4  C   UNL     1       1.899  13.126  20.899  0.00  0.00    +0.000 A 
ATOM      5  N   UNL     1       3.042  13.623  21.281  0.00  0.00    +0.000 NA
ATOM      6  N   UNL     1       3.279  14.821  20.491  0.00  0.00    +0.000 NA
ATOM      7  C   UNL     1       2.267  14.972  19.675  0.00  0.00    +0.000 A 
ATOM      8  C   UNL     1       2.175  16.085  18.686  0.00  0.00    +0.000 C 
ATOM      9  C   UNL     1       1.265  13.921  19.860  0.00  0.00    +0.000 A 
ATOM     10  C   UNL     1       0.056  13.593  19.384  0.00  0.00    +0.000 A 
ENDROOT
BRANCH   1  14
ATOM     11  C   UNL     1      -3.533  10.642  16.331  0.00  0.00    +0.000 C 
ATOM     12  C   UNL     1      -3.420  11.186  17.730  0.00  0.00    +0.000 A 
ATOM     13  C   UNL     1      -2.152  11.277  18.339  0.00  0.00    +0.000 A 
ATOM     14  C   UNL     1      -1.916  12.064  19.491  0.00  0.00    +0.000 A 
ATOM     15  C   UNL     1      -3.054  12.599  20.114  0.00  0.00    +0.000 A 
ATOM     16  C   UNL     1      -4.344  12.356  19.626  0.00  0.00    +0.000 A 
ATOM     17  C   UNL     1      -4.526  11.685  18.420  0.00  0.00    +0.000 A 
ATOM     18 CL   UNL     1      -6.128  11.541  17.797  0.00  0.00    +0.000 Cl
ENDBRANCH   1  14
BRANCH  10  19
ATOM     19  N   UNL     1      -0.536  14.418  18.422  0.00  0.00    +0.000 N 
ATOM     20  H   UNL     1      -0.182  15.366  18.364  0.00  0.00    +0.000 HD
ATOM     21  H   UNL     1      -1.549  14.427  18.500  0.00  0.00    +0.000 HD
ENDBRANCH  10  19
BRANCH   2  22
ATOM     22  S   UNL     1      -0.402  10.079  21.498  0.00  0.00    +0.000 S 
BRANCH  22  23
ATOM     23  C   UNL     1       1.138   9.118  21.642  0.00  0.00    +0.000 C 
BRANCH  23  24
ATOM     24  C   UNL     1       1.558   8.480  20.321  0.00  0.00    +0.000 C 
ATOM     25  O   UNL     1       1.254   8.946  19.225  0.00  0.00    +0.000 OA
ATOM     26  N   UNL     1       2.306   7.314  20.437  0.00  0.00    +0.000 N 
ATOM     27  H   UNL     1       2.609   6.988  21.346  0.00  0.00    +0.000 HD
BRANCH  26  28
ATOM     28  C   UNL     1       2.666   6.553  19.248  0.00  0.00    +0.000 C 
BRANCH  28  29
ATOM     29  C   UNL     1       3.523   5.311  19.531  0.00  0.00    +0.000 C 
BRANCH  29  30
ATOM     30  C   UNL     1       4.712   5.183  18.590  0.00  0.00    +0.000 C 
ATOM     31  C   UNL     1       4.561   4.996  17.262  0.00  0.00    +0.000 C 
ATOM     32  C   UNL     1       5.710   4.846  16.305  0.00  0.00    +0.000 C 
ATOM     33  C   UNL     1       7.054   4.618  16.995  0.00  0.00    +0.000 C 
ATOM     34  C   UNL     1       7.210   5.530  18.205  0.00  0.00    +0.000 C 
ATOM     35  C   UNL     1       6.085   5.297  19.217  0.00  0.00    +0.000 C 
ENDBRANCH  29  30
ENDBRANCH  28  29
ENDBRANCH  26  28
ENDBRANCH  23  24
ENDBRANCH  22  23
ENDBRANCH   2  22
TORSDOF 8
ENDMDL
MODEL 8
REMARK VINA RESULT:      -8.5      5.670      9.559
REMARK  Name = 
REMARK  10 active torsions:
REMARK  status: ('A' for Active; 'I' for Inactive)
REMARK    1  A    between atoms: C_1  and  C_2
REMARK    2  A    between atoms: C_4  and  N_5
REMARK    3  A    between atoms: C_6  and  S_7
REMARK    4  A    between atoms: S_7  and  C_8
REMARK    5  A    between atoms: C_8  and  C_9
REMARK    6  A    between atoms: N_11  and  C_12
REMARK    7  A    between atoms: C_12  and  C_13
REMARK    8  A    between atoms: C_13  and  C_14
REMARK    9  A    between atoms: C_24  and  C_25
REMARK   10  A    between atoms: C_27  and  N_28
REMARK                            x       y       z     vdW  Elec       q    Type
REMARK                         _______ _______ _______ _____ _____    ______ ____
ROOT
ATOM      1  N   UNL     1      -2.707  12.349  20.238  0.00  0.00    +0.000 N 
ATOM      2  C   UNL     1      -1.584  11.723  19.606  0.00  0.00    +0.000 A 
ATOM      3  N   UNL     1      -1.574  11.222  18.406  0.00  0.00    +0.000 NA
ATOM      4  C   UNL     1      -2.715  11.318  17.684  0.00  0.00    +0.000 A 
ATOM      5  N   UNL     1      -2.877  10.910  16.457  0.00  0.00    +0.000 NA
ATOM      6  N   UNL     1      -4.262  11.165  16.094  0.00  0.00    +0.000 NA
ATOM      7  C   UNL     1      -4.856  11.707  17.128  0.00  0.00    +0.000 A 
ATOM      8  C   UNL     1      -6.299  12.083  17.134  0.00  0.00    +0.000 C 
ATOM      9  C   UNL     1      -3.930  11.885  18.248  0.00  0.00    +0.000 A 
ATOM     10  C   UNL     1      -3.937  12.409  19.482  0.00  0.00    +0.000 A 
ENDROOT
BRANCH   1  14
ATOM     11  C   UNL     1      -4.314  12.450  24.942  0.00  0.00    +0.000 C 
ATOM     12  C   UNL     1      -3.424  13.061  23.893  0.00  0.00    +0.000 A 
ATOM     13  C   UNL     1      -3.186  12.361  22.692  0.00  0.00    +0.000 A 
ATOM     14  C   UNL     1      -2.649  12.986  21.541  0.00  0.00    +0.000 A 
ATOM     15  C   UNL     1      -2.183  14.298  21.715  0.00  0.00    +0.000 A 
ATOM     16  C   UNL     1      -2.239  14.942  22.958  0.00  0.00    +0.000 A 
ATOM     17  C   UNL     1      -2.889  14.342  24.033  0.00  0.00    +0.000 A 
ATOM     18 CL   UNL     1      -3.051  15.241  25.496  0.00  0.00    +0.000 Cl
ENDBRANCH   1  14
BRANCH  10  19
ATOM     19  N   UNL     1      -5.117  12.990  19.960  0.00  0.00    +0.000 N 
ATOM     20  H   UNL     1      -5.598  13.616  19.326  0.00  0.00    +0.000 HD
ATOM     21  H   UNL     1      -4.981  13.439  20.861  0.00  0.00    +0.000 HD
ENDBRANCH  10  19
BRANCH   2  22
ATOM     22  S   UNL     1      -0.062  11.416  20.493  0.00  0.00    +0.000 S 
BRANCH  22  23
ATOM     23  C   UNL     1       0.944  10.507  19.278  0.00  0.00    +0.000 C 
BRANCH  23  24
ATOM     24  C   UNL     1       1.358   9.124  19.775  0.00  0.00    +0.000 C 
ATOM     25  O   UNL     1       1.151   8.736  20.923  0.00  0.00    +0.000 OA
ATOM     26  N   UNL     1       2.003   8.325  18.839  0.00  0.00    +0.000 N 
ATOM     27  H   UNL     1       2.097   8.635  17.880  0.00  0.00    +0.000 HD
BRANCH  26  28
ATOM     28  C   UNL     1       2.547   7.031  19.230  0.00  0.00    +0.000 C 
BRANCH  28  29
ATOM     29  C   UNL     1       2.748   6.055  18.063  0.00  0.00    +0.000 C 
BRANCH  29  30
ATOM     30  C   UNL     1       2.329   4.632  18.400  0.00  0.00    +0.000 C 
ATOM     31  C   UNL     1       1.363   4.362  19.304  0.00  0.00    +0.000 C 
ATOM     32  C   UNL     1       0.935   2.970  19.677  0.00  0.00    +0.000 C 
ATOM     33  C   UNL     1       1.887   1.884  19.178  0.00  0.00    +0.000 C 
ATOM     34  C   UNL     1       2.337   2.164  17.750  0.00  0.00    +0.000 C 
ATOM     35  C   UNL     1       3.037   3.522  17.651  0.00  0.00    +0.000 C 
ENDBRANCH  29  30
ENDBRANCH  28  29
ENDBRANCH  26  28
ENDBRANCH  23  24
ENDBRANCH  22  23
ENDBRANCH   2  22
TORSDOF 8
ENDMDL
MODEL 9
REMARK VINA RESULT:      -8.4      4.726      8.534
REMARK  Name = 
REMARK  10 active torsions:
REMARK  status: ('A' for Active; 'I' for Inactive)
REMARK    1  A    between atoms: C_1  and  C_2
REMARK    2  A    between atoms: C_4  and  N_5
REMARK    3  A    between atoms: C_6  and  S_7
REMARK    4  A    between atoms: S_7  and  C_8
REMARK    5  A    between atoms: C_8  and  C_9
REMARK    6  A    between atoms: N_11  and  C_12
REMARK    7  A    between atoms: C_12  and  C_13
REMARK    8  A    between atoms: C_13  and  C_14
REMARK    9  A    between atoms: C_24  and  C_25
REMARK   10  A    between atoms: C_27  and  N_28
REMARK                            x       y       z     vdW  Elec       q    Type
REMARK                         _______ _______ _______ _____ _____    ______ ____
ROOT
ATOM      1  N   UNL     1      -0.145  12.185  19.039  0.00  0.00    +0.000 N 
ATOM      2  C   UNL     1       0.171  10.919  18.447  0.00  0.00    +0.000 A 
ATOM      3  N   UNL     1      -0.692  10.064  17.985  0.00  0.00    +0.000 NA
ATOM      4  C   UNL     1      -2.000  10.406  18.049  0.00  0.00    +0.000 A 
ATOM      5  N   UNL     1      -2.997   9.696  17.601  0.00  0.00    +0.000 NA
ATOM      6  N   UNL     1      -4.220  10.415  17.919  0.00  0.00    +0.000 NA
ATOM      7  C   UNL     1      -3.889  11.515  18.547  0.00  0.00    +0.000 A 
ATOM      8  C   UNL     1      -4.890  12.497  19.056  0.00  0.00    +0.000 C 
ATOM      9  C   UNL     1      -2.436  11.642  18.679  0.00  0.00    +0.000 A 
ATOM     10  C   UNL     1      -1.545  12.527  19.148  0.00  0.00    +0.000 A 
ENDROOT
BRANCH   1  14
ATOM     11  C   UNL     1       3.389  15.413  17.694  0.00  0.00    +0.000 C 
ATOM     12  C   UNL     1       2.614  14.776  18.816  0.00  0.00    +0.000 A 
ATOM     13  C   UNL     1       1.445  14.045  18.524  0.00  0.00    +0.000 A 
ATOM     14  C   UNL     1       0.852  13.156  19.452  0.00  0.00    +0.000 A 
ATOM     15  C   UNL     1       1.379  13.184  20.752  0.00  0.00    +0.000 A 
ATOM     16  C   UNL     1       2.421  14.049  21.107  0.00  0.00    +0.000 A 
ATOM     17  C   UNL     1       3.062  14.815  20.137  0.00  0.00    +0.000 A 
ATOM     18 CL   UNL     1       4.430  15.754  20.608  0.00  0.00    +0.000 Cl
ENDBRANCH   1  14
BRANCH  10  19
ATOM     19  N   UNL     1      -2.012  13.726  19.699  0.00  0.00    +0.000 N 
ATOM     20  H   UNL     1      -2.882  14.083  19.323  0.00  0.00    +0.000 HD
ATOM     21  H   UNL     1      -1.301  14.452  19.688  0.00  0.00    +0.000 HD
ENDBRANCH  10  19
BRANCH   2  22
ATOM     22  S   UNL     1       1.845  10.291  18.420  0.00  0.00    +0.000 S 
BRANCH  22  23
ATOM     23  C   UNL     1       1.652   8.639  17.679  0.00  0.00    +0.000 C 
BRANCH  23  24
ATOM     24  C   UNL     1       2.536   7.589  18.345  0.00  0.00    +0.000 C 
ATOM     25  O   UNL     1       2.429   7.277  19.529  0.00  0.00    +0.000 OA
ATOM     26  N   UNL     1       3.494   7.010  17.520  0.00  0.00    +0.000 N 
ATOM     27  H   UNL     1       3.517   7.227  16.533  0.00  0.00    +0.000 HD
BRANCH  26  28
ATOM     28  C   UNL     1       4.471   6.081  18.072  0.00  0.00    +0.000 C 
BRANCH  28  29
ATOM     29  C   UNL     1       4.235   4.615  17.682  0.00  0.00    +0.000 C 
BRANCH  29  30
ATOM     30  C   UNL     1       3.126   3.956  18.489  0.00  0.00    +0.000 C 
ATOM     31  C   UNL     1       2.012   3.462  17.909  0.00  0.00    +0.000 C 
ATOM     32  C   UNL     1       0.887   2.822  18.673  0.00  0.00    +0.000 C 
ATOM     33  C   UNL     1       0.968   3.049  20.182  0.00  0.00    +0.000 C 
ATOM     34  C   UNL     1       2.396   2.883  20.686  0.00  0.00    +0.000 C 
ATOM     35  C   UNL     1       3.343   3.861  19.984  0.00  0.00    +0.000 C 
ENDBRANCH  29  30
ENDBRANCH  28  29
ENDBRANCH  26  28
ENDBRANCH  23  24
ENDBRANCH  22  23
ENDBRANCH   2  22
TORSDOF 8
ENDMDL
