MODEL 1
REMARK VINA RESULT:      -8.1      0.000      0.000
REMARK  Name = 
REMARK  6 active torsions:
REMARK  status: ('A' for Active; 'I' for Inactive)
REMARK    1  A    between atoms: C_1  and  C_2
REMARK    2  A    between atoms: C_7  and  C_8
REMARK    3  A    between atoms: C_8  and  O_10
REMARK    4  A    between atoms: C_11  and  O_12
REMARK    5  A    between atoms: C_13  and  C_14
REMARK    6  A    between atoms: C_14  and  C_15
REMARK                            x       y       z     vdW  Elec       q    Type
REMARK                         _______ _______ _______ _____ _____    ______ ____
ROOT
ATOM      1  C   UNL     1       0.755   4.085  20.061  0.00  0.00    +0.000 C 
ATOM      2  C   UNL     1       1.921   3.536  19.272  0.00  0.00    +0.000 A 
ATOM      3  C   UNL     1       2.204   2.166  19.355  0.00  0.00    +0.000 A 
ATOM      4  C   UNL     1       3.250   1.631  18.620  0.00  0.00    +0.000 A 
ATOM      5  C   UNL     1       4.005   2.459  17.798  0.00  0.00    +0.000 A 
ATOM      6  C   UNL     1       3.748   3.852  17.709  0.00  0.00    +0.000 A 
ATOM      7  C   UNL     1       4.504   4.761  16.919  0.00  0.00    +0.000 A 
ATOM      8  C   UNL     1       4.250   6.137  16.989  0.00  0.00    +0.000 A 
ATOM      9  C   UNL     1       3.204   6.582  17.782  0.00  0.00    +0.000 A 
ATOM     10  N   UNL     1       2.431   5.716  18.486  0.00  0.00    +0.000 NA
ATOM     11  C   UNL     1       2.697   4.395  18.478  0.00  0.00    +0.000 A 
ENDROOT
BRANCH   7  12
ATOM     12  C   UNL     1       5.531   4.253  15.964  0.00  0.00    +0.000 C 
ATOM     13  O   UNL     1       5.340   4.156  14.765  0.00  0.00    +0.000 OA
BRANCH  12  14
ATOM     14  O   UNL     1       6.692   3.879  16.544  0.00  0.00    +0.000 OA
ATOM     15  H   UNL     1       6.678   3.979  17.520  0.00  0.00    +0.000 HD
ENDBRANCH  12  14
ENDBRANCH   7  12
BRANCH   8  16
ATOM     16  O   UNL     1       5.080   7.006  16.331  0.00  0.00    +0.000 OA
ATOM     17  H   UNL     1       5.764   6.477  15.874  0.00  0.00    +0.000 HD
ENDBRANCH   8  16
BRANCH   9  18
ATOM     18  C   UNL     1       2.893   8.049  17.978  0.00  0.00    +0.000 C 
BRANCH  18  19
ATOM     19  C   UNL     1       1.884   8.391  19.058  0.00  0.00    +0.000 A 
ATOM     20  C   UNL     1       1.920   7.752  20.309  0.00  0.00    +0.000 A 
ATOM     21  C   UNL     1       1.121   8.203  21.365  0.00  0.00    +0.000 A 
ATOM     22  C   UNL     1       0.279   9.296  21.179  0.00  0.00    +0.000 A 
ATOM     23 CL   UNL     1      -0.633   9.913  22.501  0.00  0.00    +0.000 Cl
ATOM     24  C   UNL     1       0.201   9.917  19.935  0.00  0.00    +0.000 A 
ATOM     25  C   UNL     1       0.999   9.467  18.878  0.00  0.00    +0.000 A 
ENDBRANCH  18  19
ENDBRANCH   9  18
TORSDOF 5
ENDMDL
MODEL 2
REMARK VINA RESULT:      -7.9      3.949      6.845
REMARK  Name = 
REMARK  6 active torsions:
REMARK  status: ('A' for Active; 'I' for Inactive)
REMARK    1  A    between atoms: C_1  and  C_2
REMARK    2  A    between atoms: C_7  and  C_8
REMARK    3  A    between atoms: C_8  and  O_10
REMARK    4  A    between atoms: C_11  and  O_12
REMARK    5  A    between atoms: C_13  and  C_14
REMARK    6  A    between atoms: C_14  and  C_15
REMARK                            x       y       z     vdW  Elec       q    Type
REMARK                         _______ _______ _______ _____ _____    ______ ____
ROOT
ATOM      1  C   UNL     1       3.333   7.736  17.062  0.00  0.00    +0.000 C 
ATOM      2  C   UNL     1       2.784   7.188  18.357  0.00  0.00    +0.000 A 
ATOM      3  C   UNL     1       2.138   8.065  19.240  0.00  0.00    +0.000 A 
ATOM      4  C   UNL     1       1.599   7.583  20.421  0.00  0.00    +0.000 A 
ATOM      5  C   UNL     1       1.697   6.229  20.719  0.00  0.00    +0.000 A 
ATOM      6  C   UNL     1       2.360   5.324  19.851  0.00  0.00    +0.000 A 
ATOM      7  C   UNL     1       2.530   3.936  20.111  0.00  0.00    +0.000 A 
ATOM      8  C   UNL     1       3.305   3.146  19.251  0.00  0.00    +0.000 A 
ATOM      9  C   UNL     1       3.835   3.727  18.110  0.00  0.00    +0.000 A 
ATOM     10  N   UNL     1       3.620   5.035  17.814  0.00  0.00    +0.000 NA
ATOM     11  C   UNL     1       2.928   5.824  18.659  0.00  0.00    +0.000 A 
ENDROOT
BRANCH   7  12
ATOM     12  C   UNL     1       1.836   3.298  21.266  0.00  0.00    +0.000 C 
ATOM     13  O   UNL     1       2.380   3.077  22.335  0.00  0.00    +0.000 OA
BRANCH  12  14
ATOM     14  O   UNL     1       0.552   2.957  21.024  0.00  0.00    +0.000 OA
ATOM     15  H   UNL     1       0.261   2.179  21.546  0.00  0.00    +0.000 HD
ENDBRANCH  12  14
ENDBRANCH   7  12
BRANCH   8  16
ATOM     16  O   UNL     1       3.573   1.848  19.595  0.00  0.00    +0.000 OA
ATOM     17  H   UNL     1       3.259   1.710  20.510  0.00  0.00    +0.000 HD
ENDBRANCH   8  16
BRANCH   9  18
ATOM     18  C   UNL     1       4.738   2.978  17.156  0.00  0.00    +0.000 C 
BRANCH  18  19
ATOM     19  C   UNL     1       5.508   3.815  16.152  0.00  0.00    +0.000 A 
ATOM     20  C   UNL     1       6.666   4.514  16.531  0.00  0.00    +0.000 A 
ATOM     21  C   UNL     1       7.481   5.122  15.569  0.00  0.00    +0.000 A 
ATOM     22  C   UNL     1       7.144   5.036  14.221  0.00  0.00    +0.000 A 
ATOM     23 CL   UNL     1       8.193   5.699  13.029  0.00  0.00    +0.000 Cl
ATOM     24  C   UNL     1       5.979   4.381  13.830  0.00  0.00    +0.000 A 
ATOM     25  C   UNL     1       5.163   3.773  14.791  0.00  0.00    +0.000 A 
ENDBRANCH  18  19
ENDBRANCH   9  18
TORSDOF 5
ENDMDL
MODEL 3
REMARK VINA RESULT:      -7.9      3.779      6.401
REMARK  Name = 
REMARK  6 active torsions:
REMARK  status: ('A' for Active; 'I' for Inactive)
REMARK    1  A    between atoms: C_1  and  C_2
REMARK    2  A    between atoms: C_7  and  C_8
REMARK    3  A    between atoms: C_8  and  O_10
REMARK    4  A    between atoms: C_11  and  O_12
REMARK    5  A    between atoms: C_13  and  C_14
REMARK    6  A    between atoms: C_14  and  C_15
REMARK                            x       y       z     vdW  Elec       q    Type
REMARK                         _______ _______ _______ _____ _____    ______ ____
ROOT
ATOM      1  C   UNL     1       4.654   1.585  20.578  0.00  0.00    +0.000 C 
ATOM      2  C   UNL     1       3.619   2.683  20.506  0.00  0.00    +0.000 A 
ATOM      3  C   UNL     1       2.389   2.491  21.150  0.00  0.00    +0.000 A 
ATOM      4  C   UNL     1       1.433   3.493  21.126  0.00  0.00    +0.000 A 
ATOM      5  C   UNL     1       1.706   4.686  20.466  0.00  0.00    +0.000 A 
ATOM      6  C   UNL     1       2.936   4.898  19.792  0.00  0.00    +0.000 A 
ATOM      7  C   UNL     1       3.265   6.077  19.067  0.00  0.00    +0.000 A 
ATOM      8  C   UNL     1       4.457   6.145  18.334  0.00  0.00    +0.000 A 
ATOM      9  C   UNL     1       5.337   5.075  18.392  0.00  0.00    +0.000 A 
ATOM     10  N   UNL     1       5.065   3.973  19.137  0.00  0.00    +0.000 NA
ATOM     11  C   UNL     1       3.898   3.864  19.801  0.00  0.00    +0.000 A 
ENDROOT
BRANCH   7  12
ATOM     12  C   UNL     1       2.375   7.271  19.131  0.00  0.00    +0.000 C 
ATOM     13  O   UNL     1       1.918   7.819  18.143  0.00  0.00    +0.000 OA
BRANCH  12  14
ATOM     14  O   UNL     1       2.134   7.718  20.382  0.00  0.00    +0.000 OA
ATOM     15  H   UNL     1       2.120   6.998  21.047  0.00  0.00    +0.000 HD
ENDBRANCH  12  14
ENDBRANCH   7  12
BRANCH   8  16
ATOM     16  O   UNL     1       4.688   7.230  17.530  0.00  0.00    +0.000 OA
ATOM     17  H   UNL     1       5.355   6.972  16.865  0.00  0.00    +0.000 HD
ENDBRANCH   8  16
BRANCH   9  18
ATOM     18  C   UNL     1       6.615   5.023  17.585  0.00  0.00    +0.000 C 
BRANCH  18  19
ATOM     19  C   UNL     1       6.467   4.784  16.094  0.00  0.00    +0.000 A 
ATOM     20  C   UNL     1       7.471   5.183  15.195  0.00  0.00    +0.000 A 
ATOM     21  C   UNL     1       7.426   4.790  13.853  0.00  0.00    +0.000 A 
ATOM     22  C   UNL     1       6.377   3.996  13.399  0.00  0.00    +0.000 A 
ATOM     23 CL   UNL     1       6.368   3.431  11.774  0.00  0.00    +0.000 Cl
ATOM     24  C   UNL     1       5.352   3.624  14.266  0.00  0.00    +0.000 A 
ATOM     25  C   UNL     1       5.396   4.017  15.608  0.00  0.00    +0.000 A 
ENDBRANCH  18  19
ENDBRANCH   9  18
TORSDOF 5
ENDMDL
MODEL 4
REMARK VINA RESULT:      -7.9      1.107      1.314
REMARK  Name = 
REMARK  6 active torsions:
REMARK  status: ('A' for Active; 'I' for Inactive)
REMARK    1  A    between atoms: C_1  and  C_2
REMARK    2  A    between atoms: C_7  and  C_8
REMARK    3  A    between atoms: C_8  and  O_10
REMARK    4  A    between atoms: C_11  and  O_12
REMARK    5  A    between atoms: C_13  and  C_14
REMARK    6  A    between atoms: C_14  and  C_15
REMARK                            x       y       z     vdW  Elec       q    Type
REMARK                         _______ _______ _______ _____ _____    ______ ____
ROOT
ATOM      1  C   UNL     1       0.908   4.314  20.456  0.00  0.00    +0.000 C 
ATOM      2  C   UNL     1       2.312   3.876  20.109  0.00  0.00    +0.000 A 
ATOM      3  C   UNL     1       2.798   2.680  20.654  0.00  0.00    +0.000 A 
ATOM      4  C   UNL     1       4.071   2.240  20.329  0.00  0.00    +0.000 A 
ATOM      5  C   UNL     1       4.854   2.988  19.456  0.00  0.00    +0.000 A 
ATOM      6  C   UNL     1       4.390   4.210  18.904  0.00  0.00    +0.000 A 
ATOM      7  C   UNL     1       5.151   5.042  18.037  0.00  0.00    +0.000 A 
ATOM      8  C   UNL     1       4.653   6.289  17.639  0.00  0.00    +0.000 A 
ATOM      9  C   UNL     1       3.381   6.659  18.045  0.00  0.00    +0.000 A 
ATOM     10  N   UNL     1       2.617   5.842  18.816  0.00  0.00    +0.000 NA
ATOM     11  C   UNL     1       3.102   4.665  19.257  0.00  0.00    +0.000 A 
ENDROOT
BRANCH   7  12
ATOM     12  C   UNL     1       6.457   4.567  17.495  0.00  0.00    +0.000 C 
ATOM     13  O   UNL     1       7.535   4.918  17.943  0.00  0.00    +0.000 OA
BRANCH  12  14
ATOM     14  O   UNL     1       6.350   3.729  16.441  0.00  0.00    +0.000 OA
ATOM     15  H   UNL     1       5.505   3.232  16.436  0.00  0.00    +0.000 HD
ENDBRANCH  12  14
ENDBRANCH   7  12
BRANCH   8  16
ATOM     16  O   UNL     1       5.459   7.134  16.922  0.00  0.00    +0.000 OA
ATOM     17  H   UNL     1       6.385   6.940  17.164  0.00  0.00    +0.000 HD
ENDBRANCH   8  16
BRANCH   9  18
ATOM     18  C   UNL     1       2.781   8.010  17.726  0.00  0.00    +0.000 C 
BRANCH  18  19
ATOM     19  C   UNL     1       1.781   8.562  18.724  0.00  0.00    +0.000 A 
ATOM     20  C   UNL     1       1.819   8.175  20.075  0.00  0.00    +0.000 A 
ATOM     21  C   UNL     1       1.029   8.828  21.028  0.00  0.00    +0.000 A 
ATOM     22  C   UNL     1       0.196   9.872  20.639  0.00  0.00    +0.000 A 
ATOM     23 CL   UNL     1      -0.704  10.740  21.821  0.00  0.00    +0.000 Cl
ATOM     24  C   UNL     1       0.115  10.244  19.299  0.00  0.00    +0.000 A 
ATOM     25  C   UNL     1       0.904   9.592  18.345  0.00  0.00    +0.000 A 
ENDBRANCH  18  19
ENDBRANCH   9  18
TORSDOF 5
ENDMDL
MODEL 5
REMARK VINA RESULT:      -7.8      1.146      1.700
REMARK  Name = 
REMARK  6 active torsions:
REMARK  status: ('A' for Active; 'I' for Inactive)
REMARK    1  A    between atoms: C_1  and  C_2
REMARK    2  A    between atoms: C_7  and  C_8
REMARK    3  A    between atoms: C_8  and  O_10
REMARK    4  A    between atoms: C_11  and  O_12
REMARK    5  A    between atoms: C_13  and  C_14
REMARK    6  A    between atoms: C_14  and  C_15
REMARK                            x       y       z     vdW  Elec       q    Type
REMARK                         _______ _______ _______ _____ _____    ______ ____
ROOT
ATOM      1  C   UNL     1       0.753   4.028  20.419  0.00  0.00    +0.000 C 
ATOM      2  C   UNL     1       2.198   3.670  20.162  0.00  0.00    +0.000 A 
ATOM      3  C   UNL     1       2.721   2.513  20.758  0.00  0.00    +0.000 A 
ATOM      4  C   UNL     1       4.034   2.145  20.516  0.00  0.00    +0.000 A 
ATOM      5  C   UNL     1       4.822   2.924  19.675  0.00  0.00    +0.000 A 
ATOM      6  C   UNL     1       4.321   4.107  19.074  0.00  0.00    +0.000 A 
ATOM      7  C   UNL     1       5.082   4.968  18.236  0.00  0.00    +0.000 A 
ATOM      8  C   UNL     1       4.536   6.177  17.786  0.00  0.00    +0.000 A 
ATOM      9  C   UNL     1       3.223   6.477  18.110  0.00  0.00    +0.000 A 
ATOM     10  N   UNL     1       2.464   5.629  18.851  0.00  0.00    +0.000 NA
ATOM     11  C   UNL     1       2.989   4.490  19.343  0.00  0.00    +0.000 A 
ENDROOT
BRANCH   7  12
ATOM     12  C   UNL     1       6.442   4.563  17.780  0.00  0.00    +0.000 C 
ATOM     13  O   UNL     1       7.466   4.896  18.352  0.00  0.00    +0.000 OA
BRANCH  12  14
ATOM     14  O   UNL     1       6.453   3.814  16.657  0.00  0.00    +0.000 OA
ATOM     15  H   UNL     1       5.971   4.236  15.914  0.00  0.00    +0.000 HD
ENDBRANCH  12  14
ENDBRANCH   7  12
BRANCH   8  16
ATOM     16  O   UNL     1       5.332   7.057  17.100  0.00  0.00    +0.000 OA
ATOM     17  H   UNL     1       5.421   7.864  17.643  0.00  0.00    +0.000 HD
ENDBRANCH   8  16
BRANCH   9  18
ATOM     18  C   UNL     1       2.564   7.785  17.730  0.00  0.00    +0.000 C 
BRANCH  18  19
ATOM     19  C   UNL     1       1.891   8.557  18.849  0.00  0.00    +0.000 A 
ATOM     20  C   UNL     1       1.137   9.711  18.580  0.00  0.00    +0.000 A 
ATOM     21  C   UNL     1       0.360  10.306  19.579  0.00  0.00    +0.000 A 
ATOM     22  C   UNL     1       0.330   9.753  20.856  0.00  0.00    +0.000 A 
ATOM     23 CL   UNL     1      -0.698  10.425  22.060  0.00  0.00    +0.000 Cl
ATOM     24  C   UNL     1       1.102   8.632  21.153  0.00  0.00    +0.000 A 
ATOM     25  C   UNL     1       1.880   8.037  20.154  0.00  0.00    +0.000 A 
ENDBRANCH  18  19
ENDBRANCH   9  18
TORSDOF 5
ENDMDL
MODEL 6
REMARK VINA RESULT:      -7.7      3.710      6.352
REMARK  Name = 
REMARK  6 active torsions:
REMARK  status: ('A' for Active; 'I' for Inactive)
REMARK    1  A    between atoms: C_1  and  C_2
REMARK    2  A    between atoms: C_7  and  C_8
REMARK    3  A    between atoms: C_8  and  O_10
REMARK    4  A    between atoms: C_11  and  O_12
REMARK    5  A    between atoms: C_13  and  C_14
REMARK    6  A    between atoms: C_14  and  C_15
REMARK                            x       y       z     vdW  Elec       q    Type
REMARK                         _______ _______ _______ _____ _____    ______ ____
ROOT
ATOM      1  C   UNL     1       4.479   1.766  20.541  0.00  0.00    +0.000 C 
ATOM      2  C   UNL     1       3.447   2.862  20.409  0.00  0.00    +0.000 A 
ATOM      3  C   UNL     1       2.184   2.670  20.985  0.00  0.00    +0.000 A 
ATOM      4  C   UNL     1       1.228   3.670  20.905  0.00  0.00    +0.000 A 
ATOM      5  C   UNL     1       1.535   4.862  20.258  0.00  0.00    +0.000 A 
ATOM      6  C   UNL     1       2.801   5.075  19.654  0.00  0.00    +0.000 A 
ATOM      7  C   UNL     1       3.168   6.253  18.945  0.00  0.00    +0.000 A 
ATOM      8  C   UNL     1       4.398   6.321  18.279  0.00  0.00    +0.000 A 
ATOM      9  C   UNL     1       5.275   5.253  18.388  0.00  0.00    +0.000 A 
ATOM     10  N   UNL     1       4.965   4.153  19.120  0.00  0.00    +0.000 NA
ATOM     11  C   UNL     1       3.762   4.043  19.718  0.00  0.00    +0.000 A 
ENDROOT
BRANCH   7  12
ATOM     12  C   UNL     1       2.273   7.445  18.957  0.00  0.00    +0.000 C 
ATOM     13  O   UNL     1       1.912   8.001  19.980  0.00  0.00    +0.000 OA
BRANCH  12  14
ATOM     14  O   UNL     1       1.868   7.848  17.733  0.00  0.00    +0.000 OA
ATOM     15  H   UNL     1       2.556   7.722  17.045  0.00  0.00    +0.000 HD
ENDBRANCH  12  14
ENDBRANCH   7  12
BRANCH   8  16
ATOM     16  O   UNL     1       4.671   7.405  17.487  0.00  0.00    +0.000 OA
ATOM     17  H   UNL     1       4.580   7.124  16.555  0.00  0.00    +0.000 HD
ENDBRANCH   8  16
BRANCH   9  18
ATOM     18  C   UNL     1       6.596   5.202  17.653  0.00  0.00    +0.000 C 
BRANCH  18  19
ATOM     19  C   UNL     1       6.566   4.653  16.240  0.00  0.00    +0.000 A 
ATOM     20  C   UNL     1       5.573   3.743  15.838  0.00  0.00    +0.000 A 
ATOM     21  C   UNL     1       5.429   3.391  14.492  0.00  0.00    +0.000 A 
ATOM     22  C   UNL     1       6.276   3.944  13.536  0.00  0.00    +0.000 A 
ATOM     23 CL   UNL     1       6.040   3.587  11.870  0.00  0.00    +0.000 Cl
ATOM     24  C   UNL     1       7.292   4.816  13.920  0.00  0.00    +0.000 A 
ATOM     25  C   UNL     1       7.437   5.169  15.266  0.00  0.00    +0.000 A 
ENDBRANCH  18  19
ENDBRANCH   9  18
TORSDOF 5
ENDMDL
MODEL 7
REMARK VINA RESULT:      -7.7      3.932      6.781
REMARK  Name = 
REMARK  6 active torsions:
REMARK  status: ('A' for Active; 'I' for Inactive)
REMARK    1  A    between atoms: C_1  and  C_2
REMARK    2  A    between atoms: C_7  and  C_8
REMARK    3  A    between atoms: C_8  and  O_10
REMARK    4  A    between atoms: C_11  and  O_12
REMARK    5  A    between atoms: C_13  and  C_14
REMARK    6  A    between atoms: C_14  and  C_15
REMARK                            x       y       z     vdW  Elec       q    Type
REMARK                         _______ _______ _______ _____ _____    ______ ____
ROOT
ATOM      1  C   UNL     1       3.161   8.392  18.031  0.00  0.00    +0.000 C 
ATOM      2  C   UNL     1       2.597   7.376  18.996  0.00  0.00    +0.000 A 
ATOM      3  C   UNL     1       1.461   7.716  19.744  0.00  0.00    +0.000 A 
ATOM      4  C   UNL     1       0.906   6.793  20.615  0.00  0.00    +0.000 A 
ATOM      5  C   UNL     1       1.478   5.531  20.735  0.00  0.00    +0.000 A 
ATOM      6  C   UNL     1       2.636   5.168  20.000  0.00  0.00    +0.000 A 
ATOM      7  C   UNL     1       3.293   3.911  20.102  0.00  0.00    +0.000 A 
ATOM      8  C   UNL     1       4.501   3.688  19.428  0.00  0.00    +0.000 A 
ATOM      9  C   UNL     1       4.998   4.687  18.605  0.00  0.00    +0.000 A 
ATOM     10  N   UNL     1       4.343   5.866  18.445  0.00  0.00    +0.000 NA
ATOM     11  C   UNL     1       3.212   6.121  19.132  0.00  0.00    +0.000 A 
ENDROOT
BRANCH   7  12
ATOM     12  C   UNL     1       2.672   2.799  20.878  0.00  0.00    +0.000 C 
ATOM     13  O   UNL     1       3.044   2.469  21.990  0.00  0.00    +0.000 OA
BRANCH  12  14
ATOM     14  O   UNL     1       1.670   2.163  20.232  0.00  0.00    +0.000 OA
ATOM     15  H   UNL     1       1.904   1.245  19.979  0.00  0.00    +0.000 HD
ENDBRANCH  12  14
ENDBRANCH   7  12
BRANCH   8  16
ATOM     16  O   UNL     1       5.188   2.525  19.651  0.00  0.00    +0.000 OA
ATOM     17  H   UNL     1       4.756   2.060  20.394  0.00  0.00    +0.000 HD
ENDBRANCH   8  16
BRANCH   9  18
ATOM     18  C   UNL     1       6.325   4.572  17.889  0.00  0.00    +0.000 C 
BRANCH  18  19
ATOM     19  C   UNL     1       6.276   4.521  16.374  0.00  0.00    +0.000 A 
ATOM     20  C   UNL     1       7.293   5.103  15.597  0.00  0.00    +0.000 A 
ATOM     21  C   UNL     1       7.350   4.888  14.216  0.00  0.00    +0.000 A 
ATOM     22  C   UNL     1       6.391   4.090  13.600  0.00  0.00    +0.000 A 
ATOM     23 CL   UNL     1       6.512   3.745  11.918  0.00  0.00    +0.000 Cl
ATOM     24  C   UNL     1       5.353   3.537  14.346  0.00  0.00    +0.000 A 
ATOM     25  C   UNL     1       5.295   3.752  15.727  0.00  0.00    +0.000 A 
ENDBRANCH  18  19
ENDBRANCH   9  18
TORSDOF 5
ENDMDL
MODEL 8
REMARK VINA RESULT:      -7.7      2.297      3.748
REMARK  Name = 
REMARK  6 active torsions:
REMARK  status: ('A' for Active; 'I' for Inactive)
REMARK    1  A    between atoms: C_1  and  C_2
REMARK    2  A    between atoms: C_7  and  C_8
REMARK    3  A    between atoms: C_8  and  O_10
REMARK    4  A    between atoms: C_11  and  O_12
REMARK    5  A    between atoms: C_13  and  C_14
REMARK    6  A    between atoms: C_14  and  C_15
REMARK                            x       y       z     vdW  Elec       q    Type
REMARK                         _______ _______ _______ _____ _____    ______ ____
ROOT
ATOM      1  C   UNL     1       6.555   7.420  17.429  0.00  0.00    +0.000 C 
ATOM      2  C   UNL     1       6.048   6.067  16.988  0.00  0.00    +0.000 A 
ATOM      3  C   UNL     1       6.649   5.450  15.882  0.00  0.00    +0.000 A 
ATOM      4  C   UNL     1       6.224   4.196  15.474  0.00  0.00    +0.000 A 
ATOM      5  C   UNL     1       5.206   3.556  16.172  0.00  0.00    +0.000 A 
ATOM      6  C   UNL     1       4.570   4.167  17.284  0.00  0.00    +0.000 A 
ATOM      7  C   UNL     1       3.500   3.585  18.019  0.00  0.00    +0.000 A 
ATOM      8  C   UNL     1       2.856   4.316  19.026  0.00  0.00    +0.000 A 
ATOM      9  C   UNL     1       3.332   5.580  19.339  0.00  0.00    +0.000 A 
ATOM     10  N   UNL     1       4.398   6.117  18.693  0.00  0.00    +0.000 NA
ATOM     11  C   UNL     1       4.992   5.454  17.681  0.00  0.00    +0.000 A 
ENDROOT
BRANCH   7  12
ATOM     12  C   UNL     1       3.094   2.173  17.764  0.00  0.00    +0.000 C 
ATOM     13  O   UNL     1       2.037   1.864  17.242  0.00  0.00    +0.000 OA
BRANCH  12  14
ATOM     14  O   UNL     1       3.987   1.253  18.188  0.00  0.00    +0.000 OA
ATOM     15  H   UNL     1       4.319   0.684  17.462  0.00  0.00    +0.000 HD
ENDBRANCH  12  14
ENDBRANCH   7  12
BRANCH   8  16
ATOM     16  O   UNL     1       1.739   3.794  19.622  0.00  0.00    +0.000 OA
ATOM     17  H   UNL     1       1.847   2.824  19.661  0.00  0.00    +0.000 HD
ENDBRANCH   8  16
BRANCH   9  18
ATOM     18  C   UNL     1       2.666   6.474  20.362  0.00  0.00    +0.000 C 
BRANCH  18  19
ATOM     19  C   UNL     1       2.036   7.751  19.839  0.00  0.00    +0.000 A 
ATOM     20  C   UNL     1       2.101   8.084  18.475  0.00  0.00    +0.000 A 
ATOM     21  C   UNL     1       1.358   9.153  17.965  0.00  0.00    +0.000 A 
ATOM     22  C   UNL     1       0.543   9.898  18.812  0.00  0.00    +0.000 A 
ATOM     23 CL   UNL     1      -0.446  11.152  18.171  0.00  0.00    +0.000 Cl
ATOM     24  C   UNL     1       0.495   9.608  20.174  0.00  0.00    +0.000 A 
ATOM     25  C   UNL     1       1.239   8.539  20.686  0.00  0.00    +0.000 A 
ENDBRANCH  18  19
ENDBRANCH   9  18
TORSDOF 5
ENDMDL
MODEL 9
REMARK VINA RESULT:      -7.6      2.598      3.817
REMARK  Name = 
REMARK  6 active torsions:
REMARK  status: ('A' for Active; 'I' for Inactive)
REMARK    1  A    between atoms: C_1  and  C_2
REMARK    2  A    between atoms: C_7  and  C_8
REMARK    3  A    between atoms: C_8  and  O_10
REMARK    4  A    between atoms: C_11  and  O_12
REMARK    5  A    between atoms: C_13  and  C_14
REMARK    6  A    between atoms: C_14  and  C_15
REMARK                            x       y       z     vdW  Elec       q    Type
REMARK                         _______ _______ _______ _____ _____    ______ ____
ROOT
ATOM      1  C   UNL     1       5.788   7.046  17.456  0.00  0.00    +0.000 C 
ATOM      2  C   UNL     1       5.035   5.760  17.207  0.00  0.00    +0.000 A 
ATOM      3  C   UNL     1       5.428   4.948  16.133  0.00  0.00    +0.000 A 
ATOM      4  C   UNL     1       4.775   3.749  15.899  0.00  0.00    +0.000 A 
ATOM      5  C   UNL     1       3.737   3.357  16.738  0.00  0.00    +0.000 A 
ATOM      6  C   UNL     1       3.311   4.169  17.821  0.00  0.00    +0.000 A 
ATOM      7  C   UNL     1       2.235   3.847  18.694  0.00  0.00    +0.000 A 
ATOM      8  C   UNL     1       1.810   4.768  19.660  0.00  0.00    +0.000 A 
ATOM      9  C   UNL     1       2.505   5.959  19.796  0.00  0.00    +0.000 A 
ATOM     10  N   UNL     1       3.579   6.247  19.015  0.00  0.00    +0.000 NA
ATOM     11  C   UNL     1       3.965   5.400  18.041  0.00  0.00    +0.000 A 
ENDROOT
BRANCH   7  12
ATOM     12  C   UNL     1       1.591   2.504  18.628  0.00  0.00    +0.000 C 
ATOM     13  O   UNL     1       0.404   2.341  18.406  0.00  0.00    +0.000 OA
BRANCH  12  14
ATOM     14  O   UNL     1       2.430   1.472  18.864  0.00  0.00    +0.000 OA
ATOM     15  H   UNL     1       2.847   1.517  19.751  0.00  0.00    +0.000 HD
ENDBRANCH  12  14
ENDBRANCH   7  12
BRANCH   8  16
ATOM     16  O   UNL     1       0.685   4.499  20.393  0.00  0.00    +0.000 OA
ATOM     17  H   UNL     1      -0.084   4.839  19.896  0.00  0.00    +0.000 HD
ENDBRANCH   8  16
BRANCH   9  18
ATOM     18  C   UNL     1       2.085   7.046  20.760  0.00  0.00    +0.000 C 
BRANCH  18  19
ATOM     19  C   UNL     1       1.435   8.276  20.157  0.00  0.00    +0.000 A 
ATOM     20  C   UNL     1       1.655   8.625  18.813  0.00  0.00    +0.000 A 
ATOM     21  C   UNL     1       0.907   9.639  18.207  0.00  0.00    +0.000 A 
ATOM     22  C   UNL     1      -0.067  10.313  18.937  0.00  0.00    +0.000 A 
ATOM     23 CL   UNL     1      -1.054  11.494  18.169  0.00  0.00    +0.000 Cl
ATOM     24  C   UNL     1      -0.272  10.009  20.281  0.00  0.00    +0.000 A 
ATOM     25  C   UNL     1       0.476   8.995  20.889  0.00  0.00    +0.000 A 
ENDBRANCH  18  19
ENDBRANCH   9  18
TORSDOF 5
ENDMDL
