MODEL 1
REMARK VINA RESULT:      -7.9      0.000      0.000
REMARK  Name = 
REMARK  9 active torsions:
REMARK  status: ('A' for Active; 'I' for Inactive)
REMARK    1  A    between atoms: C_1  and  C_2
REMARK    2  A    between atoms: C_2  and  O_3
REMARK    3  A    between atoms: O_3  and  C_4
REMARK    4  A    between atoms: C_4  and  C_6
REMARK    5  A    between atoms: N_8  and  C_9
REMARK    6  A    between atoms: C_11  and  C_12
REMARK    7  A    between atoms: C_16  and  O_17
REMARK    8  A    between atoms: O_17  and  C_18
REMARK    9  A    between atoms: C_27  and  C_28
REMARK                            x       y       z     vdW  Elec       q    Type
REMARK                         _______ _______ _______ _____ _____    ______ ____
ROOT
ATOM      1  C   UNL     1       1.825   6.737  20.709  0.00  0.00    +0.000 A 
ATOM      2  C   UNL     1       2.101   7.311  19.472  0.00  0.00    +0.000 A 
ATOM      3  C   UNL     1       1.691   8.619  19.162  0.00  0.00    +0.000 A 
ATOM      4  C   UNL     1       0.971   9.368  20.117  0.00  0.00    +0.000 A 
ATOM      5  C   UNL     1       0.743   8.833  21.399  0.00  0.00    +0.000 A 
ATOM      6  C   UNL     1       1.133   7.494  21.653  0.00  0.00    +0.000 A 
ENDROOT
BRANCH   1   9
ATOM      7  C   UNL     1       1.581   4.262  20.782  0.00  0.00    +0.000 C 
ATOM      8  O   UNL     1       0.528   4.130  20.179  0.00  0.00    +0.000 OA
ATOM      9  N   UNL     1       2.248   5.445  21.069  0.00  0.00    +0.000 N 
ATOM     10  H   UNL     1       3.173   5.334  21.480  0.00  0.00    +0.000 HD
BRANCH   7  11
ATOM     11  C   UNL     1       2.379   3.019  21.216  0.00  0.00    +0.000 C 
ATOM     12  O   UNL     1       2.044   2.343  22.174  0.00  0.00    +0.000 OA
BRANCH  11  13
ATOM     13  O   UNL     1       3.496   2.917  20.469  0.00  0.00    +0.000 OA
BRANCH  13  15
ATOM     14  C   UNL     1       4.014   3.170  18.145  0.00  0.00    +0.000 C 
ATOM     15  C   UNL     1       3.348   2.289  19.191  0.00  0.00    +0.000 C 
ENDBRANCH  13  15
ENDBRANCH  11  13
ENDBRANCH   7  11
ENDBRANCH   1   9
BRANCH   3  16
ATOM     16  C   UNL     1       2.076   9.202  17.819  0.00  0.00    +0.000 C 
ATOM     17  F   UNL     1       1.022   9.329  16.961  0.00  0.00    +0.000 F 
ATOM     18  F   UNL     1       2.612  10.448  17.917  0.00  0.00    +0.000 F 
ATOM     19  F   UNL     1       2.986   8.439  17.153  0.00  0.00    +0.000 F 
ENDBRANCH   3  16
BRANCH   5  20
ATOM     20  C   UNL     1       0.148   9.577  22.574  0.00  0.00    +0.000 C 
ATOM     21  F   UNL     1       0.599   9.235  23.806  0.00  0.00    +0.000 F 
ATOM     22  F   UNL     1       0.325  10.924  22.454  0.00  0.00    +0.000 F 
ATOM     23  F   UNL     1      -1.206   9.400  22.638  0.00  0.00    +0.000 F 
ENDBRANCH   5  20
BRANCH   4  24
ATOM     24  O   UNL     1       0.677  10.659  19.746  0.00  0.00    +0.000 OA
BRANCH  24  25
ATOM     25  C   UNL     1      -0.584  11.026  19.326  0.00  0.00    +0.000 A 
ATOM     26  C   UNL     1      -1.093  12.151  19.985  0.00  0.00    +0.000 A 
ATOM     27  C   UNL     1      -2.398  12.602  19.763  0.00  0.00    +0.000 A 
ATOM     28  C   UNL     1      -3.177  11.882  18.856  0.00  0.00    +0.000 A 
ATOM     29  N   UNL     1      -4.485  12.068  18.469  0.00  0.00    +0.000 N 
ATOM     30  C   UNL     1      -4.847  11.115  17.554  0.00  0.00    +0.000 A 
ATOM     31  C   UNL     1      -3.760  10.296  17.348  0.00  0.00    +0.000 A 
ATOM     32  C   UNL     1      -2.691  10.777  18.155  0.00  0.00    +0.000 A 
ATOM     33  C   UNL     1      -1.357  10.362  18.365  0.00  0.00    +0.000 A 
ATOM     34  H   UNL     1      -5.087  12.801  18.819  0.00  0.00    +0.000 HD
ENDBRANCH  24  25
ENDBRANCH   4  24
TORSDOF 8
ENDMDL
MODEL 2
REMARK VINA RESULT:      -7.7      0.823      3.247
REMARK  Name = 
REMARK  9 active torsions:
REMARK  status: ('A' for Active; 'I' for Inactive)
REMARK    1  A    between atoms: C_1  and  C_2
REMARK    2  A    between atoms: C_2  and  O_3
REMARK    3  A    between atoms: O_3  and  C_4
REMARK    4  A    between atoms: C_4  and  C_6
REMARK    5  A    between atoms: N_8  and  C_9
REMARK    6  A    between atoms: C_11  and  C_12
REMARK    7  A    between atoms: C_16  and  O_17
REMARK    8  A    between atoms: O_17  and  C_18
REMARK    9  A    between atoms: C_27  and  C_28
REMARK                            x       y       z     vdW  Elec       q    Type
REMARK                         _______ _______ _______ _____ _____    ______ ____
ROOT
ATOM      1  C   UNL     1       1.986   6.560  20.779  0.00  0.00    +0.000 A 
ATOM      2  C   UNL     1       1.327   7.337  21.726  0.00  0.00    +0.000 A 
ATOM      3  C   UNL     1       0.965   8.668  21.459  0.00  0.00    +0.000 A 
ATOM      4  C   UNL     1       1.285   9.241  20.210  0.00  0.00    +0.000 A 
ATOM      5  C   UNL     1       1.888   8.451  19.212  0.00  0.00    +0.000 A 
ATOM      6  C   UNL     1       2.278   7.127  19.539  0.00  0.00    +0.000 A 
ENDROOT
BRANCH   1   9
ATOM      7  C   UNL     1       1.548   4.113  20.687  0.00  0.00    +0.000 C 
ATOM      8  O   UNL     1       0.437   4.110  20.183  0.00  0.00    +0.000 OA
ATOM      9  N   UNL     1       2.334   5.215  20.995  0.00  0.00    +0.000 N 
ATOM     10  H   UNL     1       3.280   5.001  21.303  0.00  0.00    +0.000 HD
BRANCH   7  11
ATOM     11  C   UNL     1       2.278   2.782  20.943  0.00  0.00    +0.000 C 
ATOM     12  O   UNL     1       2.809   2.536  22.012  0.00  0.00    +0.000 OA
BRANCH  11  13
ATOM     13  O   UNL     1       2.322   2.065  19.802  0.00  0.00    +0.000 OA
BRANCH  13  15
ATOM     14  C   UNL     1       2.661   2.407  17.457  0.00  0.00    +0.000 C 
ATOM     15  C   UNL     1       3.298   2.471  18.837  0.00  0.00    +0.000 C 
ENDBRANCH  13  15
ENDBRANCH  11  13
ENDBRANCH   7  11
ENDBRANCH   1   9
BRANCH   3  16
ATOM     16  C   UNL     1       0.198   9.437  22.513  0.00  0.00    +0.000 C 
ATOM     17  F   UNL     1      -1.117   9.079  22.596  0.00  0.00    +0.000 F 
ATOM     18  F   UNL     1       0.697   9.260  23.766  0.00  0.00    +0.000 F 
ATOM     19  F   UNL     1       0.186  10.780  22.286  0.00  0.00    +0.000 F 
ENDBRANCH   3  16
BRANCH   5  20
ATOM     20  C   UNL     1       2.128   8.869  17.778  0.00  0.00    +0.000 C 
ATOM     21  F   UNL     1       2.509  10.153  17.571  0.00  0.00    +0.000 F 
ATOM     22  F   UNL     1       3.066   8.082  17.178  0.00  0.00    +0.000 F 
ATOM     23  F   UNL     1       0.999   8.715  17.023  0.00  0.00    +0.000 F 
ENDBRANCH   5  20
BRANCH   4  24
ATOM     24  O   UNL     1       0.827  10.523  20.019  0.00  0.00    +0.000 OA
BRANCH  24  25
ATOM     25  C   UNL     1      -0.230  10.800  19.179  0.00  0.00    +0.000 A 
ATOM     26  C   UNL     1      -0.213  12.101  18.662  0.00  0.00    +0.000 A 
ATOM     27  C   UNL     1      -1.262  12.591  17.877  0.00  0.00    +0.000 A 
ATOM     28  C   UNL     1      -2.332  11.729  17.630  0.00  0.00    +0.000 A 
ATOM     29  N   UNL     1      -3.499  11.942  16.931  0.00  0.00    +0.000 N 
ATOM     30  C   UNL     1      -4.274  10.814  16.949  0.00  0.00    +0.000 A 
ATOM     31  C   UNL     1      -3.603   9.855  17.674  0.00  0.00    +0.000 A 
ATOM     32  C   UNL     1      -2.366  10.415  18.100  0.00  0.00    +0.000 A 
ATOM     33  C   UNL     1      -1.278   9.928  18.859  0.00  0.00    +0.000 A 
ATOM     34  H   UNL     1      -3.743  12.813  16.478  0.00  0.00    +0.000 HD
ENDBRANCH  24  25
ENDBRANCH   4  24
TORSDOF 8
ENDMDL
MODEL 3
REMARK VINA RESULT:      -7.5      4.887      7.590
REMARK  Name = 
REMARK  9 active torsions:
REMARK  status: ('A' for Active; 'I' for Inactive)
REMARK    1  A    between atoms: C_1  and  C_2
REMARK    2  A    between atoms: C_2  and  O_3
REMARK    3  A    between atoms: O_3  and  C_4
REMARK    4  A    between atoms: C_4  and  C_6
REMARK    5  A    between atoms: N_8  and  C_9
REMARK    6  A    between atoms: C_11  and  C_12
REMARK    7  A    between atoms: C_16  and  O_17
REMARK    8  A    between atoms: O_17  and  C_18
REMARK    9  A    between atoms: C_27  and  C_28
REMARK                            x       y       z     vdW  Elec       q    Type
REMARK                         _______ _______ _______ _____ _____    ______ ____
ROOT
ATOM      1  C   UNL     1       5.702   3.732  15.643  0.00  0.00    +0.000 A 
ATOM      2  C   UNL     1       4.436   3.351  16.078  0.00  0.00    +0.000 A 
ATOM      3  C   UNL     1       3.933   3.767  17.323  0.00  0.00    +0.000 A 
ATOM      4  C   UNL     1       4.729   4.575  18.161  0.00  0.00    +0.000 A 
ATOM      5  C   UNL     1       5.983   5.030  17.711  0.00  0.00    +0.000 A 
ATOM      6  C   UNL     1       6.471   4.550  16.469  0.00  0.00    +0.000 A 
ENDROOT
BRANCH   1   9
ATOM      7  C   UNL     1       5.593   3.529  13.166  0.00  0.00    +0.000 C 
ATOM      8  O   UNL     1       4.490   4.009  12.957  0.00  0.00    +0.000 OA
ATOM      9  N   UNL     1       6.226   3.366  14.391  0.00  0.00    +0.000 N 
ATOM     10  H   UNL     1       7.193   3.053  14.341  0.00  0.00    +0.000 HD
BRANCH   7  11
ATOM     11  C   UNL     1       6.494   3.133  11.983  0.00  0.00    +0.000 C 
ATOM     12  O   UNL     1       7.479   3.784  11.679  0.00  0.00    +0.000 OA
BRANCH  11  13
ATOM     13  O   UNL     1       5.947   2.089  11.328  0.00  0.00    +0.000 OA
BRANCH  13  15
ATOM     14  C   UNL     1       6.115  -0.300  11.326  0.00  0.00    +0.000 C 
ATOM     15  C   UNL     1       6.829   1.006  11.013  0.00  0.00    +0.000 C 
ENDBRANCH  13  15
ENDBRANCH  11  13
ENDBRANCH   7  11
ENDBRANCH   1   9
BRANCH   3  16
ATOM     16  C   UNL     1       2.526   3.364  17.708  0.00  0.00    +0.000 C 
ATOM     17  F   UNL     1       2.365   3.171  19.050  0.00  0.00    +0.000 F 
ATOM     18  F   UNL     1       1.596   4.297  17.366  0.00  0.00    +0.000 F 
ATOM     19  F   UNL     1       2.133   2.195  17.132  0.00  0.00    +0.000 F 
ENDBRANCH   3  16
BRANCH   5  20
ATOM     20  C   UNL     1       6.864   6.038  18.416  0.00  0.00    +0.000 C 
ATOM     21  F   UNL     1       6.614   7.347  18.169  0.00  0.00    +0.000 F 
ATOM     22  F   UNL     1       6.818   5.881  19.770  0.00  0.00    +0.000 F 
ATOM     23  F   UNL     1       8.178   5.865  18.082  0.00  0.00    +0.000 F 
ENDBRANCH   5  20
BRANCH   4  24
ATOM     24  O   UNL     1       4.122   4.986  19.325  0.00  0.00    +0.000 OA
BRANCH  24  25
ATOM     25  C   UNL     1       3.356   6.131  19.380  0.00  0.00    +0.000 A 
ATOM     26  C   UNL     1       2.591   6.242  20.547  0.00  0.00    +0.000 A 
ATOM     27  C   UNL     1       1.675   7.283  20.728  0.00  0.00    +0.000 A 
ATOM     28  C   UNL     1       1.552   8.212  19.692  0.00  0.00    +0.000 A 
ATOM     29  N   UNL     1       0.722   9.304  19.576  0.00  0.00    +0.000 N 
ATOM     30  C   UNL     1       0.935   9.934  18.379  0.00  0.00    +0.000 A 
ATOM     31  C   UNL     1       1.913   9.237  17.705  0.00  0.00    +0.000 A 
ATOM     32  C   UNL     1       2.322   8.152  18.530  0.00  0.00    +0.000 A 
ATOM     33  C   UNL     1       3.269   7.113  18.385  0.00  0.00    +0.000 A 
ATOM     34  H   UNL     1       0.051   9.590  20.276  0.00  0.00    +0.000 HD
ENDBRANCH  24  25
ENDBRANCH   4  24
TORSDOF 8
ENDMDL
MODEL 4
REMARK VINA RESULT:      -7.5      0.625      1.475
REMARK  Name = 
REMARK  9 active torsions:
REMARK  status: ('A' for Active; 'I' for Inactive)
REMARK    1  A    between atoms: C_1  and  C_2
REMARK    2  A    between atoms: C_2  and  O_3
REMARK    3  A    between atoms: O_3  and  C_4
REMARK    4  A    between atoms: C_4  and  C_6
REMARK    5  A    between atoms: N_8  and  C_9
REMARK    6  A    between atoms: C_11  and  C_12
REMARK    7  A    between atoms: C_16  and  O_17
REMARK    8  A    between atoms: O_17  and  C_18
REMARK    9  A    between atoms: C_27  and  C_28
REMARK                            x       y       z     vdW  Elec       q    Type
REMARK                         _______ _______ _______ _____ _____    ______ ____
ROOT
ATOM      1  C   UNL     1       1.831   6.898  20.688  0.00  0.00    +0.000 A 
ATOM      2  C   UNL     1       2.028   7.492  19.446  0.00  0.00    +0.000 A 
ATOM      3  C   UNL     1       1.542   8.780  19.163  0.00  0.00    +0.000 A 
ATOM      4  C   UNL     1       0.825   9.487  20.152  0.00  0.00    +0.000 A 
ATOM      5  C   UNL     1       0.675   8.933  21.438  0.00  0.00    +0.000 A 
ATOM      6  C   UNL     1       1.141   7.613  21.666  0.00  0.00    +0.000 A 
ENDROOT
BRANCH   1   9
ATOM      7  C   UNL     1       1.703   4.415  20.771  0.00  0.00    +0.000 C 
ATOM      8  O   UNL     1       0.624   4.235  20.229  0.00  0.00    +0.000 OA
ATOM      9  N   UNL     1       2.332   5.627  21.020  0.00  0.00    +0.000 N 
ATOM     10  H   UNL     1       3.282   5.557  21.377  0.00  0.00    +0.000 HD
BRANCH   7  11
ATOM     11  C   UNL     1       2.579   3.209  21.155  0.00  0.00    +0.000 C 
ATOM     12  O   UNL     1       2.472   2.655  22.235  0.00  0.00    +0.000 OA
BRANCH  11  13
ATOM     13  O   UNL     1       3.497   2.994  20.191  0.00  0.00    +0.000 OA
BRANCH  13  15
ATOM     14  C   UNL     1       3.425   2.898  17.800  0.00  0.00    +0.000 C 
ATOM     15  C   UNL     1       3.082   2.175  19.093  0.00  0.00    +0.000 C 
ENDBRANCH  13  15
ENDBRANCH  11  13
ENDBRANCH   7  11
ENDBRANCH   1   9
BRANCH   3  16
ATOM     16  C   UNL     1       1.843   9.389  17.811  0.00  0.00    +0.000 C 
ATOM     17  F   UNL     1       2.398  10.634  17.889  0.00  0.00    +0.000 F 
ATOM     18  F   UNL     1       2.721   8.650  17.081  0.00  0.00    +0.000 F 
ATOM     19  F   UNL     1       0.732   9.544  17.040  0.00  0.00    +0.000 F 
ENDBRANCH   3  16
BRANCH   5  20
ATOM     20  C   UNL     1       0.093   9.639  22.642  0.00  0.00    +0.000 C 
ATOM     21  F   UNL     1       0.504   9.211  23.861  0.00  0.00    +0.000 F 
ATOM     22  F   UNL     1       0.334  10.981  22.599  0.00  0.00    +0.000 F 
ATOM     23  F   UNL     1      -1.269   9.524  22.673  0.00  0.00    +0.000 F 
ENDBRANCH   5  20
BRANCH   4  24
ATOM     24  O   UNL     1       0.453  10.764  19.804  0.00  0.00    +0.000 OA
BRANCH  24  25
ATOM     25  C   UNL     1      -0.870  11.116  19.639  0.00  0.00    +0.000 A 
ATOM     26  C   UNL     1      -1.476  10.525  18.525  0.00  0.00    +0.000 A 
ATOM     27  C   UNL     1      -2.782  10.850  18.142  0.00  0.00    +0.000 A 
ATOM     28  C   UNL     1      -3.458  11.794  18.918  0.00  0.00    +0.000 A 
ATOM     29  N   UNL     1      -4.719  12.326  18.765  0.00  0.00    +0.000 N 
ATOM     30  C   UNL     1      -4.973  13.232  19.760  0.00  0.00    +0.000 A 
ATOM     31  C   UNL     1      -3.860  13.292  20.568  0.00  0.00    +0.000 A 
ATOM     32  C   UNL     1      -2.897  12.378  20.054  0.00  0.00    +0.000 A 
ATOM     33  C   UNL     1      -1.591  12.006  20.445  0.00  0.00    +0.000 A 
ATOM     34  H   UNL     1      -5.357  12.083  18.019  0.00  0.00    +0.000 HD
ENDBRANCH  24  25
ENDBRANCH   4  24
TORSDOF 8
ENDMDL
MODEL 5
REMARK VINA RESULT:      -7.5      0.393      3.175
REMARK  Name = 
REMARK  9 active torsions:
REMARK  status: ('A' for Active; 'I' for Inactive)
REMARK    1  A    between atoms: C_1  and  C_2
REMARK    2  A    between atoms: C_2  and  O_3
REMARK    3  A    between atoms: O_3  and  C_4
REMARK    4  A    between atoms: C_4  and  C_6
REMARK    5  A    between atoms: N_8  and  C_9
REMARK    6  A    between atoms: C_11  and  C_12
REMARK    7  A    between atoms: C_16  and  O_17
REMARK    8  A    between atoms: O_17  and  C_18
REMARK    9  A    between atoms: C_27  and  C_28
REMARK                            x       y       z     vdW  Elec       q    Type
REMARK                         _______ _______ _______ _____ _____    ______ ____
ROOT
ATOM      1  C   UNL     1       1.880   6.834  20.792  0.00  0.00    +0.000 A 
ATOM      2  C   UNL     1       1.216   7.629  21.720  0.00  0.00    +0.000 A 
ATOM      3  C   UNL     1       0.866   8.959  21.430  0.00  0.00    +0.000 A 
ATOM      4  C   UNL     1       1.205   9.511  20.177  0.00  0.00    +0.000 A 
ATOM      5  C   UNL     1       1.813   8.704  19.198  0.00  0.00    +0.000 A 
ATOM      6  C   UNL     1       2.190   7.382  19.548  0.00  0.00    +0.000 A 
ENDROOT
BRANCH   1   9
ATOM      7  C   UNL     1       1.455   4.386  20.673  0.00  0.00    +0.000 C 
ATOM      8  O   UNL     1       0.378   4.381  20.097  0.00  0.00    +0.000 OA
ATOM      9  N   UNL     1       2.216   5.490  21.031  0.00  0.00    +0.000 N 
ATOM     10  H   UNL     1       3.141   5.278  21.400  0.00  0.00    +0.000 HD
BRANCH   7  11
ATOM     11  C   UNL     1       2.169   3.057  20.977  0.00  0.00    +0.000 C 
ATOM     12  O   UNL     1       2.508   2.754  22.108  0.00  0.00    +0.000 OA
BRANCH  11  13
ATOM     13  O   UNL     1       2.439   2.415  19.822  0.00  0.00    +0.000 OA
BRANCH  13  15
ATOM     14  C   UNL     1       3.647   3.148  17.889  0.00  0.00    +0.000 C 
ATOM     15  C   UNL     1       3.760   2.585  19.297  0.00  0.00    +0.000 C 
ENDBRANCH  13  15
ENDBRANCH  11  13
ENDBRANCH   7  11
ENDBRANCH   1   9
BRANCH   3  16
ATOM     16  C   UNL     1       0.093   9.748  22.465  0.00  0.00    +0.000 C 
ATOM     17  F   UNL     1       0.457  11.062  22.528  0.00  0.00    +0.000 F 
ATOM     18  F   UNL     1      -1.248   9.758  22.231  0.00  0.00    +0.000 F 
ATOM     19  F   UNL     1       0.262   9.272  23.729  0.00  0.00    +0.000 F 
ENDBRANCH   3  16
BRANCH   5  20
ATOM     20  C   UNL     1       2.072   9.100  17.761  0.00  0.00    +0.000 C 
ATOM     21  F   UNL     1       2.429  10.388  17.536  0.00  0.00    +0.000 F 
ATOM     22  F   UNL     1       3.039   8.323  17.194  0.00  0.00    +0.000 F 
ATOM     23  F   UNL     1       0.962   8.906  16.987  0.00  0.00    +0.000 F 
ENDBRANCH   5  20
BRANCH   4  24
ATOM     24  O   UNL     1       0.757  10.794  19.964  0.00  0.00    +0.000 OA
BRANCH  24  25
ATOM     25  C   UNL     1      -0.484  11.051  19.423  0.00  0.00    +0.000 A 
ATOM     26  C   UNL     1      -1.073  12.228  19.898  0.00  0.00    +0.000 A 
ATOM     27  C   UNL     1      -2.375  12.592  19.540  0.00  0.00    +0.000 A 
ATOM     28  C   UNL     1      -3.069  11.730  18.689  0.00  0.00    +0.000 A 
ATOM     29  N   UNL     1      -4.354  11.809  18.202  0.00  0.00    +0.000 N 
ATOM     30  C   UNL     1      -4.623  10.733  17.399  0.00  0.00    +0.000 A 
ATOM     31  C   UNL     1      -3.498   9.941  17.368  0.00  0.00    +0.000 A 
ATOM     32  C   UNL     1      -2.501  10.566  18.169  0.00  0.00    +0.000 A 
ATOM     33  C   UNL     1      -1.170  10.237  18.512  0.00  0.00    +0.000 A 
ATOM     34  H   UNL     1      -5.002  12.555  18.417  0.00  0.00    +0.000 HD
ENDBRANCH  24  25
ENDBRANCH   4  24
TORSDOF 8
ENDMDL
MODEL 6
REMARK VINA RESULT:      -7.5      4.922      7.567
REMARK  Name = 
REMARK  9 active torsions:
REMARK  status: ('A' for Active; 'I' for Inactive)
REMARK    1  A    between atoms: C_1  and  C_2
REMARK    2  A    between atoms: C_2  and  O_3
REMARK    3  A    between atoms: O_3  and  C_4
REMARK    4  A    between atoms: C_4  and  C_6
REMARK    5  A    between atoms: N_8  and  C_9
REMARK    6  A    between atoms: C_11  and  C_12
REMARK    7  A    between atoms: C_16  and  O_17
REMARK    8  A    between atoms: O_17  and  C_18
REMARK    9  A    between atoms: C_27  and  C_28
REMARK                            x       y       z     vdW  Elec       q    Type
REMARK                         _______ _______ _______ _____ _____    ______ ____
ROOT
ATOM      1  C   UNL     1       5.808   3.925  15.529  0.00  0.00    +0.000 A 
ATOM      2  C   UNL     1       4.636   3.491  16.141  0.00  0.00    +0.000 A 
ATOM      3  C   UNL     1       4.191   4.052  17.351  0.00  0.00    +0.000 A 
ATOM      4  C   UNL     1       4.950   5.067  17.970  0.00  0.00    +0.000 A 
ATOM      5  C   UNL     1       6.099   5.569  17.331  0.00  0.00    +0.000 A 
ATOM      6  C   UNL     1       6.538   4.944  16.136  0.00  0.00    +0.000 A 
ENDROOT
BRANCH   1   9
ATOM      7  C   UNL     1       5.581   3.454  13.096  0.00  0.00    +0.000 C 
ATOM      8  O   UNL     1       4.477   3.931  12.885  0.00  0.00    +0.000 OA
ATOM      9  N   UNL     1       6.268   3.414  14.302  0.00  0.00    +0.000 N 
ATOM     10  H   UNL     1       7.227   3.078  14.244  0.00  0.00    +0.000 HD
BRANCH   7  11
ATOM     11  C   UNL     1       6.421   2.913  11.925  0.00  0.00    +0.000 C 
ATOM     12  O   UNL     1       7.459   3.448  11.578  0.00  0.00    +0.000 OA
BRANCH  11  13
ATOM     13  O   UNL     1       5.763   1.898  11.330  0.00  0.00    +0.000 OA
BRANCH  13  15
ATOM     14  C   UNL     1       6.062  -0.476  11.439  0.00  0.00    +0.000 C 
ATOM     15  C   UNL     1       6.571   0.824  10.836  0.00  0.00    +0.000 C 
ENDBRANCH  13  15
ENDBRANCH  11  13
ENDBRANCH   7  11
ENDBRANCH   1   9
BRANCH   3  16
ATOM     16  C   UNL     1       2.877   3.573  17.932  0.00  0.00    +0.000 C 
ATOM     17  F   UNL     1       2.909   3.418  19.288  0.00  0.00    +0.000 F 
ATOM     18  F   UNL     1       1.849   4.431  17.693  0.00  0.00    +0.000 F 
ATOM     19  F   UNL     1       2.493   2.361  17.445  0.00  0.00    +0.000 F 
ENDBRANCH   3  16
BRANCH   5  20
ATOM     20  C   UNL     1       6.908   6.767  17.780  0.00  0.00    +0.000 C 
ATOM     21  F   UNL     1       6.256   7.953  17.851  0.00  0.00    +0.000 F 
ATOM     22  F   UNL     1       7.473   6.558  19.003  0.00  0.00    +0.000 F 
ATOM     23  F   UNL     1       7.960   6.997  16.937  0.00  0.00    +0.000 F 
ENDBRANCH   5  20
BRANCH   4  24
ATOM     24  O   UNL     1       4.395   5.599  19.110  0.00  0.00    +0.000 OA
BRANCH  24  25
ATOM     25  C   UNL     1       3.417   6.569  19.059  0.00  0.00    +0.000 A 
ATOM     26  C   UNL     1       3.375   7.264  17.845  0.00  0.00    +0.000 A 
ATOM     27  C   UNL     1       2.518   8.352  17.653  0.00  0.00    +0.000 A 
ATOM     28  C   UNL     1       1.702   8.721  18.725  0.00  0.00    +0.000 A 
ATOM     29  N   UNL     1       0.799   9.753  18.837  0.00  0.00    +0.000 N 
ATOM     30  C   UNL     1       0.223   9.745  20.079  0.00  0.00    +0.000 A 
ATOM     31  C   UNL     1       0.764   8.694  20.785  0.00  0.00    +0.000 A 
ATOM     32  C   UNL     1       1.692   8.029  19.937  0.00  0.00    +0.000 A 
ATOM     33  C   UNL     1       2.538   6.909  20.096  0.00  0.00    +0.000 A 
ATOM     34  H   UNL     1       0.600  10.421  18.104  0.00  0.00    +0.000 HD
ENDBRANCH  24  25
ENDBRANCH   4  24
TORSDOF 8
ENDMDL
MODEL 7
REMARK VINA RESULT:      -7.3      4.957      7.483
REMARK  Name = 
REMARK  9 active torsions:
REMARK  status: ('A' for Active; 'I' for Inactive)
REMARK    1  A    between atoms: C_1  and  C_2
REMARK    2  A    between atoms: C_2  and  O_3
REMARK    3  A    between atoms: O_3  and  C_4
REMARK    4  A    between atoms: C_4  and  C_6
REMARK    5  A    between atoms: N_8  and  C_9
REMARK    6  A    between atoms: C_11  and  C_12
REMARK    7  A    between atoms: C_16  and  O_17
REMARK    8  A    between atoms: O_17  and  C_18
REMARK    9  A    between atoms: C_27  and  C_28
REMARK                            x       y       z     vdW  Elec       q    Type
REMARK                         _______ _______ _______ _____ _____    ______ ____
ROOT
ATOM      1  C   UNL     1       5.703   3.849  15.463  0.00  0.00    +0.000 A 
ATOM      2  C   UNL     1       6.449   4.725  16.245  0.00  0.00    +0.000 A 
ATOM      3  C   UNL     1       5.949   5.234  17.457  0.00  0.00    +0.000 A 
ATOM      4  C   UNL     1       4.658   4.863  17.888  0.00  0.00    +0.000 A 
ATOM      5  C   UNL     1       3.916   3.923  17.149  0.00  0.00    +0.000 A 
ATOM      6  C   UNL     1       4.438   3.470  15.910  0.00  0.00    +0.000 A 
ENDROOT
BRANCH   1   9
ATOM      7  C   UNL     1       5.623   3.468  13.006  0.00  0.00    +0.000 C 
ATOM      8  O   UNL     1       4.636   4.125  12.717  0.00  0.00    +0.000 OA
ATOM      9  N   UNL     1       6.182   3.291  14.264  0.00  0.00    +0.000 N 
ATOM     10  H   UNL     1       7.074   2.802  14.278  0.00  0.00    +0.000 HD
BRANCH   7  11
ATOM     11  C   UNL     1       6.464   2.816  11.894  0.00  0.00    +0.000 C 
ATOM     12  O   UNL     1       7.482   3.337  11.470  0.00  0.00    +0.000 OA
BRANCH  11  13
ATOM     13  O   UNL     1       5.831   1.719  11.434  0.00  0.00    +0.000 OA
BRANCH  13  15
ATOM     14  C   UNL     1       5.957  -0.670  11.320  0.00  0.00    +0.000 C 
ATOM     15  C   UNL     1       6.668   0.638  11.008  0.00  0.00    +0.000 C 
ENDBRANCH  13  15
ENDBRANCH  11  13
ENDBRANCH   7  11
ENDBRANCH   1   9
BRANCH   3  16
ATOM     16  C   UNL     1       6.837   6.137  18.286  0.00  0.00    +0.000 C 
ATOM     17  F   UNL     1       8.162   6.021  17.981  0.00  0.00    +0.000 F 
ATOM     18  F   UNL     1       6.545   7.457  18.127  0.00  0.00    +0.000 F 
ATOM     19  F   UNL     1       6.755   5.879  19.620  0.00  0.00    +0.000 F 
ENDBRANCH   3  16
BRANCH   5  20
ATOM     20  C   UNL     1       2.605   3.298  17.574  0.00  0.00    +0.000 C 
ATOM     21  F   UNL     1       2.270   2.122  16.989  0.00  0.00    +0.000 F 
ATOM     22  F   UNL     1       2.566   3.088  18.921  0.00  0.00    +0.000 F 
ATOM     23  F   UNL     1       1.553   4.130  17.313  0.00  0.00    +0.000 F 
ENDBRANCH   5  20
BRANCH   4  24
ATOM     24  O   UNL     1       4.288   5.357  19.117  0.00  0.00    +0.000 OA
BRANCH  24  25
ATOM     25  C   UNL     1       3.421   6.420  19.243  0.00  0.00    +0.000 A 
ATOM     26  C   UNL     1       2.657   6.390  20.415  0.00  0.00    +0.000 A 
ATOM     27  C   UNL     1       1.650   7.330  20.659  0.00  0.00    +0.000 A 
ATOM     28  C   UNL     1       1.436   8.304  19.682  0.00  0.00    +0.000 A 
ATOM     29  N   UNL     1       0.509   9.321  19.632  0.00  0.00    +0.000 N 
ATOM     30  C   UNL     1       0.655  10.038  18.476  0.00  0.00    +0.000 A 
ATOM     31  C   UNL     1       1.689   9.476  17.760  0.00  0.00    +0.000 A 
ATOM     32  C   UNL     1       2.201   8.386  18.517  0.00  0.00    +0.000 A 
ATOM     33  C   UNL     1       3.238   7.449  18.309  0.00  0.00    +0.000 A 
ATOM     34  H   UNL     1      -0.181   9.501  20.349  0.00  0.00    +0.000 HD
ENDBRANCH  24  25
ENDBRANCH   4  24
TORSDOF 8
ENDMDL
MODEL 8
REMARK VINA RESULT:      -7.2      3.041      4.455
REMARK  Name = 
REMARK  9 active torsions:
REMARK  status: ('A' for Active; 'I' for Inactive)
REMARK    1  A    between atoms: C_1  and  C_2
REMARK    2  A    between atoms: C_2  and  O_3
REMARK    3  A    between atoms: O_3  and  C_4
REMARK    4  A    between atoms: C_4  and  C_6
REMARK    5  A    between atoms: N_8  and  C_9
REMARK    6  A    between atoms: C_11  and  C_12
REMARK    7  A    between atoms: C_16  and  O_17
REMARK    8  A    between atoms: O_17  and  C_18
REMARK    9  A    between atoms: C_27  and  C_28
REMARK                            x       y       z     vdW  Elec       q    Type
REMARK                         _______ _______ _______ _____ _____    ______ ____
ROOT
ATOM      1  C   UNL     1       1.150   9.546  18.109  0.00  0.00    +0.000 A 
ATOM      2  C   UNL     1      -0.143   9.447  17.607  0.00  0.00    +0.000 A 
ATOM      3  C   UNL     1      -1.120  10.414  17.901  0.00  0.00    +0.000 A 
ATOM      4  C   UNL     1      -0.792  11.504  18.733  0.00  0.00    +0.000 A 
ATOM      5  C   UNL     1       0.529  11.662  19.194  0.00  0.00    +0.000 A 
ATOM      6  C   UNL     1       1.471  10.639  18.912  0.00  0.00    +0.000 A 
ENDROOT
BRANCH   1   9
ATOM      7  C   UNL     1       2.558   7.557  18.614  0.00  0.00    +0.000 C 
ATOM      8  O   UNL     1       2.107   7.244  19.704  0.00  0.00    +0.000 OA
ATOM      9  N   UNL     1       2.164   8.618  17.810  0.00  0.00    +0.000 N 
ATOM     10  H   UNL     1       2.585   8.640  16.883  0.00  0.00    +0.000 HD
BRANCH   7  11
ATOM     11  C   UNL     1       3.613   6.666  17.934  0.00  0.00    +0.000 C 
ATOM     12  O   UNL     1       4.261   7.054  16.976  0.00  0.00    +0.000 OA
BRANCH  11  13
ATOM     13  O   UNL     1       3.584   5.435  18.481  0.00  0.00    +0.000 OA
BRANCH  13  15
ATOM     14  C   UNL     1       1.756   4.111  17.679  0.00  0.00    +0.000 C 
ATOM     15  C   UNL     1       3.254   4.358  17.597  0.00  0.00    +0.000 C 
ENDBRANCH  13  15
ENDBRANCH  11  13
ENDBRANCH   7  11
ENDBRANCH   1   9
BRANCH   3  16
ATOM     16  C   UNL     1      -2.491  10.275  17.273  0.00  0.00    +0.000 C 
ATOM     17  F   UNL     1      -2.517   9.414  16.214  0.00  0.00    +0.000 F 
ATOM     18  F   UNL     1      -3.425   9.804  18.143  0.00  0.00    +0.000 F 
ATOM     19  F   UNL     1      -2.972  11.451  16.786  0.00  0.00    +0.000 F 
ENDBRANCH   3  16
BRANCH   5  20
ATOM     20  C   UNL     1       1.069  12.862  19.939  0.00  0.00    +0.000 C 
ATOM     21  F   UNL     1       2.401  13.093  19.843  0.00  0.00    +0.000 F 
ATOM     22  F   UNL     1       0.445  14.012  19.553  0.00  0.00    +0.000 F 
ATOM     23  F   UNL     1       0.828  12.761  21.281  0.00  0.00    +0.000 F 
ENDBRANCH   5  20
BRANCH   4  24
ATOM     24  O   UNL     1      -1.793  12.432  18.903  0.00  0.00    +0.000 OA
BRANCH  24  25
ATOM     25  C   UNL     1      -2.616  12.419  20.009  0.00  0.00    +0.000 A 
ATOM     26  C   UNL     1      -3.971  12.597  19.706  0.00  0.00    +0.000 A 
ATOM     27  C   UNL     1      -4.937  12.717  20.711  0.00  0.00    +0.000 A 
ATOM     28  C   UNL     1      -4.494  12.654  22.033  0.00  0.00    +0.000 A 
ATOM     29  N   UNL     1      -5.199  12.773  23.210  0.00  0.00    +0.000 N 
ATOM     30  C   UNL     1      -4.354  12.653  24.281  0.00  0.00    +0.000 A 
ATOM     31  C   UNL     1      -3.082  12.458  23.793  0.00  0.00    +0.000 A 
ATOM     32  C   UNL     1      -3.157  12.443  22.372  0.00  0.00    +0.000 A 
ATOM     33  C   UNL     1      -2.203  12.286  21.341  0.00  0.00    +0.000 A 
ATOM     34  H   UNL     1      -6.196  12.933  23.266  0.00  0.00    +0.000 HD
ENDBRANCH  24  25
ENDBRANCH   4  24
TORSDOF 8
ENDMDL
MODEL 9
REMARK VINA RESULT:      -7.2      4.895      7.299
REMARK  Name = 
REMARK  9 active torsions:
REMARK  status: ('A' for Active; 'I' for Inactive)
REMARK    1  A    between atoms: C_1  and  C_2
REMARK    2  A    between atoms: C_2  and  O_3
REMARK    3  A    between atoms: O_3  and  C_4
REMARK    4  A    between atoms: C_4  and  C_6
REMARK    5  A    between atoms: N_8  and  C_9
REMARK    6  A    between atoms: C_11  and  C_12
REMARK    7  A    between atoms: C_16  and  O_17
REMARK    8  A    between atoms: O_17  and  C_18
REMARK    9  A    between atoms: C_27  and  C_28
REMARK                            x       y       z     vdW  Elec       q    Type
REMARK                         _______ _______ _______ _____ _____    ______ ____
ROOT
ATOM      1  C   UNL     1       5.245   4.076  15.189  0.00  0.00    +0.000 A 
ATOM      2  C   UNL     1       6.083   5.041  15.739  0.00  0.00    +0.000 A 
ATOM      3  C   UNL     1       5.759   5.697  16.939  0.00  0.00    +0.000 A 
ATOM      4  C   UNL     1       4.551   5.387  17.598  0.00  0.00    +0.000 A 
ATOM      5  C   UNL     1       3.723   4.364  17.097  0.00  0.00    +0.000 A 
ATOM      6  C   UNL     1       4.065   3.760  15.861  0.00  0.00    +0.000 A 
ENDROOT
BRANCH   1   9
ATOM      7  C   UNL     1       6.397   3.810  13.000  0.00  0.00    +0.000 C 
ATOM      8  O   UNL     1       7.015   4.861  12.951  0.00  0.00    +0.000 OA
ATOM      9  N   UNL     1       5.552   3.373  14.011  0.00  0.00    +0.000 N 
ATOM     10  H   UNL     1       5.224   2.414  13.918  0.00  0.00    +0.000 HD
BRANCH   7  11
ATOM     11  C   UNL     1       6.606   2.745  11.909  0.00  0.00    +0.000 C 
ATOM     12  O   UNL     1       7.718   2.438  11.515  0.00  0.00    +0.000 OA
BRANCH  11  13
ATOM     13  O   UNL     1       5.409   2.352  11.426  0.00  0.00    +0.000 OA
BRANCH  13  15
ATOM     14  C   UNL     1       3.367   3.041  10.382  0.00  0.00    +0.000 C 
ATOM     15  C   UNL     1       4.348   3.309  11.514  0.00  0.00    +0.000 C 
ENDBRANCH  13  15
ENDBRANCH  11  13
ENDBRANCH   7  11
ENDBRANCH   1   9
BRANCH   3  16
ATOM     16  C   UNL     1       6.745   6.694  17.510  0.00  0.00    +0.000 C 
ATOM     17  F   UNL     1       7.904   6.780  16.795  0.00  0.00    +0.000 F 
ATOM     18  F   UNL     1       6.252   7.961  17.551  0.00  0.00    +0.000 F 
ATOM     19  F   UNL     1       7.133   6.386  18.779  0.00  0.00    +0.000 F 
ENDBRANCH   3  16
BRANCH   5  20
ATOM     20  C   UNL     1       2.499   3.801  17.785  0.00  0.00    +0.000 C 
ATOM     21  F   UNL     1       1.370   4.550  17.733  0.00  0.00    +0.000 F 
ATOM     22  F   UNL     1       2.173   2.570  17.297  0.00  0.00    +0.000 F 
ATOM     23  F   UNL     1       2.726   3.606  19.118  0.00  0.00    +0.000 F 
ENDBRANCH   5  20
BRANCH   4  24
ATOM     24  O   UNL     1       4.358   6.030  18.798  0.00  0.00    +0.000 OA
BRANCH  24  25
ATOM     25  C   UNL     1       3.308   6.901  18.995  0.00  0.00    +0.000 A 
ATOM     26  C   UNL     1       3.096   7.780  17.927  0.00  0.00    +0.000 A 
ATOM     27  C   UNL     1       2.142   8.801  17.996  0.00  0.00    +0.000 A 
ATOM     28  C   UNL     1       1.409   8.911  19.179  0.00  0.00    +0.000 A 
ATOM     29  N   UNL     1       0.444   9.824  19.541  0.00  0.00    +0.000 N 
ATOM     30  C   UNL     1      -0.007   9.558  20.806  0.00  0.00    +0.000 A 
ATOM     31  C   UNL     1       0.679   8.460  21.275  0.00  0.00    +0.000 A 
ATOM     32  C   UNL     1       1.569   8.032  20.250  0.00  0.00    +0.000 A 
ATOM     33  C   UNL     1       2.510   6.983  20.144  0.00  0.00    +0.000 A 
ATOM     34  H   UNL     1       0.124  10.582  18.954  0.00  0.00    +0.000 HD
ENDBRANCH  24  25
ENDBRANCH   4  24
TORSDOF 8
ENDMDL
