MODEL 1
REMARK VINA RESULT:      -8.9      0.000      0.000
REMARK  Name = 
REMARK  9 active torsions:
REMARK  status: ('A' for Active; 'I' for Inactive)
REMARK    1  A    between atoms: C_1  and  C_2
REMARK    2  A    between atoms: C_2  and  C_3
REMARK    3  A    between atoms: C_2  and  C_13
REMARK    4  A    between atoms: C_3  and  C_4
REMARK    5  A    between atoms: C_4  and  C_5
REMARK    6  A    between atoms: C_5  and  C_6
REMARK    7  A    between atoms: C_15  and  O_16
REMARK    8  A    between atoms: C_21  and  C_22
REMARK    9  A    between atoms: C_21  and  C_23
REMARK                            x       y       z     vdW  Elec       q    Type
REMARK                         _______ _______ _______ _____ _____    ______ ____
ROOT
ATOM      1  C   UNL     1       2.981   7.138  18.148  0.00  0.00    +0.000 A 
ATOM      2  C   UNL     1       2.688   6.636  19.421  0.00  0.00    +0.000 A 
ATOM      3  C   UNL     1       1.968   7.378  20.360  0.00  0.00    +0.000 A 
ATOM      4  C   UNL     1       1.492   8.673  20.025  0.00  0.00    +0.000 A 
ATOM      5  C   UNL     1       1.767   9.166  18.740  0.00  0.00    +0.000 A 
ATOM      6  C   UNL     1       2.507   8.417  17.820  0.00  0.00    +0.000 A 
ATOM      7  O   UNL     1       1.322  10.377  18.354  0.00  0.00    +0.000 OA
ATOM      8  C   UNL     1       0.551  11.262  19.090  0.00  0.00    +0.000 C 
ATOM      9  C   UNL     1      -0.765  11.450  18.315  0.00  0.00    +0.000 C 
ATOM     10  C   UNL     1       1.320  12.590  19.143  0.00  0.00    +0.000 C 
ATOM     11  C   UNL     1       0.263  10.764  20.522  0.00  0.00    +0.000 C 
ATOM     12  C   UNL     1       0.722   9.556  20.963  0.00  0.00    +0.000 C 
ATOM     13  C   UNL     1       0.476   9.103  22.408  0.00  0.00    +0.000 C 
ATOM     14  N   UNL     1      -0.076  10.139  23.290  0.00  0.00    +0.000 NA
ATOM     15  C   UNL     1      -1.133  10.878  22.621  0.00  0.00    +0.000 C 
ATOM     16  C   UNL     1      -0.547  11.659  21.451  0.00  0.00    +0.000 C 
ATOM     17  H   UNL     1       0.684  10.804  23.569  0.00  0.00    +0.000 HD
ENDROOT
BRANCH   1  19
ATOM     18  C   UNL     1       4.589   7.118  16.172  0.00  0.00    +0.000 C 
ATOM     19  C   UNL     1       3.780   6.271  17.170  0.00  0.00    +0.000 C 
BRANCH  19  20
ATOM     20  C   UNL     1       4.723   5.266  17.888  0.00  0.00    +0.000 C 
BRANCH  20  21
ATOM     21  C   UNL     1       4.709   3.824  17.335  0.00  0.00    +0.000 C 
BRANCH  21  22
ATOM     22  C   UNL     1       3.300   3.199  17.253  0.00  0.00    +0.000 C 
BRANCH  22  23
ATOM     23  C   UNL     1       2.662   3.068  18.619  0.00  0.00    +0.000 A 
ATOM     24  C   UNL     1       1.290   3.335  18.805  0.00  0.00    +0.000 A 
ATOM     25  C   UNL     1       0.708   3.203  20.069  0.00  0.00    +0.000 A 
ATOM     26  C   UNL     1       1.481   2.791  21.156  0.00  0.00    +0.000 A 
ATOM     27  F   UNL     1       0.912   2.658  22.381  0.00  0.00    +0.000 F 
ATOM     28  C   UNL     1       2.839   2.514  20.982  0.00  0.00    +0.000 A 
ATOM     29  C   UNL     1       3.429   2.654  19.722  0.00  0.00    +0.000 A 
ENDBRANCH  22  23
ENDBRANCH  21  22
ENDBRANCH  20  21
ENDBRANCH  19  20
ENDBRANCH   1  19
BRANCH   3  30
ATOM     30  O   UNL     1       1.740   6.828  21.570  0.00  0.00    +0.000 OA
ATOM     31  H   UNL     1       1.584   7.358  22.366  0.00  0.00    +0.000 HD
ENDBRANCH   3  30
TORSDOF 6
ENDMDL
MODEL 2
REMARK VINA RESULT:      -8.6      0.669      1.122
REMARK  Name = 
REMARK  9 active torsions:
REMARK  status: ('A' for Active; 'I' for Inactive)
REMARK    1  A    between atoms: C_1  and  C_2
REMARK    2  A    between atoms: C_2  and  C_3
REMARK    3  A    between atoms: C_2  and  C_13
REMARK    4  A    between atoms: C_3  and  C_4
REMARK    5  A    between atoms: C_4  and  C_5
REMARK    6  A    between atoms: C_5  and  C_6
REMARK    7  A    between atoms: C_15  and  O_16
REMARK    8  A    between atoms: C_21  and  C_22
REMARK    9  A    between atoms: C_21  and  C_23
REMARK                            x       y       z     vdW  Elec       q    Type
REMARK                         _______ _______ _______ _____ _____    ______ ____
ROOT
ATOM      1  C   UNL     1       2.584   7.494  18.404  0.00  0.00    +0.000 A 
ATOM      2  C   UNL     1       2.399   7.189  19.758  0.00  0.00    +0.000 A 
ATOM      3  C   UNL     1       1.650   8.011  20.604  0.00  0.00    +0.000 A 
ATOM      4  C   UNL     1       1.032   9.181  20.091  0.00  0.00    +0.000 A 
ATOM      5  C   UNL     1       1.200   9.474  18.729  0.00  0.00    +0.000 A 
ATOM      6  C   UNL     1       1.970   8.651  17.901  0.00  0.00    +0.000 A 
ATOM      7  O   UNL     1       0.619  10.556  18.177  0.00  0.00    +0.000 OA
ATOM      8  C   UNL     1      -0.205  11.478  18.803  0.00  0.00    +0.000 C 
ATOM      9  C   UNL     1      -1.565  11.411  18.088  0.00  0.00    +0.000 C 
ATOM     10  C   UNL     1       0.429  12.861  18.592  0.00  0.00    +0.000 C 
ATOM     11  C   UNL     1      -0.378  11.204  20.311  0.00  0.00    +0.000 C 
ATOM     12  C   UNL     1       0.218  10.135  20.916  0.00  0.00    +0.000 C 
ATOM     13  C   UNL     1       0.083   9.912  22.428  0.00  0.00    +0.000 C 
ATOM     14  N   UNL     1      -0.531  11.026  23.160  0.00  0.00    +0.000 NA
ATOM     15  C   UNL     1      -1.685  11.542  22.444  0.00  0.00    +0.000 C 
ATOM     16  C   UNL     1      -1.232  12.165  21.128  0.00  0.00    +0.000 C 
ATOM     17  H   UNL     1       0.169  11.796  23.280  0.00  0.00    +0.000 HD
ENDROOT
BRANCH   1  19
ATOM     18  C   UNL     1       4.329   7.319  16.557  0.00  0.00    +0.000 C 
ATOM     19  C   UNL     1       3.422   6.552  17.536  0.00  0.00    +0.000 C 
BRANCH  19  20
ATOM     20  C   UNL     1       4.277   5.560  18.374  0.00  0.00    +0.000 C 
BRANCH  20  21
ATOM     21  C   UNL     1       4.719   4.275  17.642  0.00  0.00    +0.000 C 
BRANCH  21  22
ATOM     22  C   UNL     1       3.609   3.208  17.524  0.00  0.00    +0.000 C 
BRANCH  22  23
ATOM     23  C   UNL     1       2.853   3.038  18.824  0.00  0.00    +0.000 A 
ATOM     24  C   UNL     1       3.506   2.571  19.984  0.00  0.00    +0.000 A 
ATOM     25  C   UNL     1       2.801   2.425  21.182  0.00  0.00    +0.000 A 
ATOM     26  C   UNL     1       1.445   2.754  21.242  0.00  0.00    +0.000 A 
ATOM     27  F   UNL     1       0.765   2.617  22.407  0.00  0.00    +0.000 F 
ATOM     28  C   UNL     1       0.791   3.226  20.102  0.00  0.00    +0.000 A 
ATOM     29  C   UNL     1       1.489   3.365  18.898  0.00  0.00    +0.000 A 
ENDBRANCH  22  23
ENDBRANCH  21  22
ENDBRANCH  20  21
ENDBRANCH  19  20
ENDBRANCH   1  19
BRANCH   3  30
ATOM     30  O   UNL     1       1.531   7.654  21.899  0.00  0.00    +0.000 OA
ATOM     31  H   UNL     1       2.225   7.819  22.554  0.00  0.00    +0.000 HD
ENDBRANCH   3  30
TORSDOF 6
ENDMDL
MODEL 3
REMARK VINA RESULT:      -8.2      2.542      4.569
REMARK  Name = 
REMARK  9 active torsions:
REMARK  status: ('A' for Active; 'I' for Inactive)
REMARK    1  A    between atoms: C_1  and  C_2
REMARK    2  A    between atoms: C_2  and  C_3
REMARK    3  A    between atoms: C_2  and  C_13
REMARK    4  A    between atoms: C_3  and  C_4
REMARK    5  A    between atoms: C_4  and  C_5
REMARK    6  A    between atoms: C_5  and  C_6
REMARK    7  A    between atoms: C_15  and  O_16
REMARK    8  A    between atoms: C_21  and  C_22
REMARK    9  A    between atoms: C_21  and  C_23
REMARK                            x       y       z     vdW  Elec       q    Type
REMARK                         _______ _______ _______ _____ _____    ______ ____
ROOT
ATOM      1  C   UNL     1       2.650   5.449  19.072  0.00  0.00    +0.000 A 
ATOM      2  C   UNL     1       2.859   6.342  18.014  0.00  0.00    +0.000 A 
ATOM      3  C   UNL     1       2.470   7.682  18.091  0.00  0.00    +0.000 A 
ATOM      4  C   UNL     1       1.864   8.176  19.276  0.00  0.00    +0.000 A 
ATOM      5  C   UNL     1       1.676   7.285  20.344  0.00  0.00    +0.000 A 
ATOM      6  C   UNL     1       2.053   5.942  20.242  0.00  0.00    +0.000 A 
ATOM      7  O   UNL     1       1.129   7.699  21.503  0.00  0.00    +0.000 OA
ATOM      8  C   UNL     1       0.718   8.982  21.826  0.00  0.00    +0.000 C 
ATOM      9  C   UNL     1       1.569   9.428  23.028  0.00  0.00    +0.000 C 
ATOM     10  C   UNL     1      -0.758   8.890  22.236  0.00  0.00    +0.000 C 
ATOM     11  C   UNL     1       0.878   9.978  20.658  0.00  0.00    +0.000 C 
ATOM     12  C   UNL     1       1.400   9.591  19.457  0.00  0.00    +0.000 C 
ATOM     13  C   UNL     1       1.496  10.581  18.288  0.00  0.00    +0.000 C 
ATOM     14  N   UNL     1       0.801  11.856  18.505  0.00  0.00    +0.000 NA
ATOM     15  C   UNL     1       1.052  12.360  19.844  0.00  0.00    +0.000 C 
ATOM     16  C   UNL     1       0.430  11.418  20.868  0.00  0.00    +0.000 C 
ATOM     17  H   UNL     1      -0.231  11.720  18.377  0.00  0.00    +0.000 HD
ENDROOT
BRANCH   1  19
ATOM     18  C   UNL     1       2.270   3.035  19.793  0.00  0.00    +0.000 C 
ATOM     19  C   UNL     1       3.097   3.992  18.916  0.00  0.00    +0.000 C 
BRANCH  19  20
ATOM     20  C   UNL     1       3.068   3.507  17.440  0.00  0.00    +0.000 C 
BRANCH  20  21
ATOM     21  C   UNL     1       4.441   3.175  16.818  0.00  0.00    +0.000 C 
BRANCH  21  22
ATOM     22  C   UNL     1       5.031   4.315  15.959  0.00  0.00    +0.000 C 
BRANCH  22  23
ATOM     23  C   UNL     1       5.999   5.170  16.747  0.00  0.00    +0.000 A 
ATOM     24  C   UNL     1       6.098   6.556  16.509  0.00  0.00    +0.000 A 
ATOM     25  C   UNL     1       6.989   7.340  17.248  0.00  0.00    +0.000 A 
ATOM     26  C   UNL     1       7.779   6.755  18.240  0.00  0.00    +0.000 A 
ATOM     27  F   UNL     1       8.639   7.519  18.960  0.00  0.00    +0.000 F 
ATOM     28  C   UNL     1       7.682   5.384  18.492  0.00  0.00    +0.000 A 
ATOM     29  C   UNL     1       6.800   4.594  17.749  0.00  0.00    +0.000 A 
ENDBRANCH  22  23
ENDBRANCH  21  22
ENDBRANCH  20  21
ENDBRANCH  19  20
ENDBRANCH   1  19
BRANCH   3  30
ATOM     30  O   UNL     1       2.693   8.474  17.023  0.00  0.00    +0.000 OA
ATOM     31  H   UNL     1       2.101   8.500  16.257  0.00  0.00    +0.000 HD
ENDBRANCH   3  30
TORSDOF 6
ENDMDL
MODEL 4
REMARK VINA RESULT:      -8.1      2.525      3.963
REMARK  Name = 
REMARK  9 active torsions:
REMARK  status: ('A' for Active; 'I' for Inactive)
REMARK    1  A    between atoms: C_1  and  C_2
REMARK    2  A    between atoms: C_2  and  C_3
REMARK    3  A    between atoms: C_2  and  C_13
REMARK    4  A    between atoms: C_3  and  C_4
REMARK    5  A    between atoms: C_4  and  C_5
REMARK    6  A    between atoms: C_5  and  C_6
REMARK    7  A    between atoms: C_15  and  O_16
REMARK    8  A    between atoms: C_21  and  C_22
REMARK    9  A    between atoms: C_21  and  C_23
REMARK                            x       y       z     vdW  Elec       q    Type
REMARK                         _______ _______ _______ _____ _____    ______ ____
ROOT
ATOM      1  C   UNL     1       1.595   7.994  20.264  0.00  0.00    +0.000 A 
ATOM      2  C   UNL     1       1.055   8.096  21.551  0.00  0.00    +0.000 A 
ATOM      3  C   UNL     1       0.253   9.174  21.933  0.00  0.00    +0.000 A 
ATOM      4  C   UNL     1      -0.053  10.195  20.996  0.00  0.00    +0.000 A 
ATOM      5  C   UNL     1       0.470  10.081  19.699  0.00  0.00    +0.000 A 
ATOM      6  C   UNL     1       1.288   9.005  19.340  0.00  0.00    +0.000 A 
ATOM      7  O   UNL     1       0.195  11.004  18.758  0.00  0.00    +0.000 OA
ATOM      8  C   UNL     1      -0.612  12.123  18.889  0.00  0.00    +0.000 C 
ATOM      9  C   UNL     1      -1.762  11.957  17.880  0.00  0.00    +0.000 C 
ATOM     10  C   UNL     1       0.243  13.340  18.512  0.00  0.00    +0.000 C 
ATOM     11  C   UNL     1      -1.173  12.297  20.316  0.00  0.00    +0.000 C 
ATOM     12  C   UNL     1      -0.893  11.399  21.307  0.00  0.00    +0.000 C 
ATOM     13  C   UNL     1      -1.411  11.621  22.734  0.00  0.00    +0.000 C 
ATOM     14  N   UNL     1      -2.014  12.937  22.972  0.00  0.00    +0.000 NA
ATOM     15  C   UNL     1      -2.882  13.314  21.869  0.00  0.00    +0.000 C 
ATOM     16  C   UNL     1      -2.049  13.508  20.608  0.00  0.00    +0.000 C 
ATOM     17  H   UNL     1      -1.259  13.657  23.074  0.00  0.00    +0.000 HD
ENDROOT
BRANCH   1  19
ATOM     18  C   UNL     1       1.986   5.500  20.608  0.00  0.00    +0.000 C 
ATOM     19  C   UNL     1       2.471   6.787  19.916  0.00  0.00    +0.000 C 
BRANCH  19  20
ATOM     20  C   UNL     1       2.586   6.547  18.385  0.00  0.00    +0.000 C 
BRANCH  20  21
ATOM     21  C   UNL     1       2.625   5.069  17.940  0.00  0.00    +0.000 C 
BRANCH  21  22
ATOM     22  C   UNL     1       3.818   4.724  17.024  0.00  0.00    +0.000 C 
BRANCH  22  23
ATOM     23  C   UNL     1       5.103   5.360  17.507  0.00  0.00    +0.000 A 
ATOM     24  C   UNL     1       5.705   6.411  16.785  0.00  0.00    +0.000 A 
ATOM     25  C   UNL     1       6.888   6.999  17.244  0.00  0.00    +0.000 A 
ATOM     26  C   UNL     1       7.474   6.557  18.432  0.00  0.00    +0.000 A 
ATOM     27  F   UNL     1       8.617   7.134  18.879  0.00  0.00    +0.000 F 
ATOM     28  C   UNL     1       6.880   5.524  19.161  0.00  0.00    +0.000 A 
ATOM     29  C   UNL     1       5.703   4.926  18.701  0.00  0.00    +0.000 A 
ENDBRANCH  22  23
ENDBRANCH  21  22
ENDBRANCH  20  21
ENDBRANCH  19  20
ENDBRANCH   1  19
BRANCH   3  30
ATOM     30  O   UNL     1      -0.216   9.205  23.197  0.00  0.00    +0.000 OA
ATOM     31  H   UNL     1      -0.686   8.460  23.600  0.00  0.00    +0.000 HD
ENDBRANCH   3  30
TORSDOF 6
ENDMDL
MODEL 5
REMARK VINA RESULT:      -8.1      2.815      3.858
REMARK  Name = 
REMARK  9 active torsions:
REMARK  status: ('A' for Active; 'I' for Inactive)
REMARK    1  A    between atoms: C_1  and  C_2
REMARK    2  A    between atoms: C_2  and  C_3
REMARK    3  A    between atoms: C_2  and  C_13
REMARK    4  A    between atoms: C_3  and  C_4
REMARK    5  A    between atoms: C_4  and  C_5
REMARK    6  A    between atoms: C_5  and  C_6
REMARK    7  A    between atoms: C_15  and  O_16
REMARK    8  A    between atoms: C_21  and  C_22
REMARK    9  A    between atoms: C_21  and  C_23
REMARK                            x       y       z     vdW  Elec       q    Type
REMARK                         _______ _______ _______ _____ _____    ______ ____
ROOT
ATOM      1  C   UNL     1       2.013   7.940  18.656  0.00  0.00    +0.000 A 
ATOM      2  C   UNL     1       1.932   7.808  20.047  0.00  0.00    +0.000 A 
ATOM      3  C   UNL     1       1.190   8.696  20.832  0.00  0.00    +0.000 A 
ATOM      4  C   UNL     1       0.473   9.755  20.216  0.00  0.00    +0.000 A 
ATOM      5  C   UNL     1       0.537   9.873  18.819  0.00  0.00    +0.000 A 
ATOM      6  C   UNL     1       1.300   8.988  18.052  0.00  0.00    +0.000 A 
ATOM      7  O   UNL     1      -0.142  10.842  18.175  0.00  0.00    +0.000 OA
ATOM      8  C   UNL     1      -0.977  11.796  18.734  0.00  0.00    +0.000 C 
ATOM      9  C   UNL     1      -2.374  11.565  18.131  0.00  0.00    +0.000 C 
ATOM     10  C   UNL     1      -0.441  13.168  18.302  0.00  0.00    +0.000 C 
ATOM     11  C   UNL     1      -1.038  11.716  20.273  0.00  0.00    +0.000 C 
ATOM     12  C   UNL     1      -0.342  10.767  20.967  0.00  0.00    +0.000 C 
ATOM     13  C   UNL     1      -0.368  10.741  22.501  0.00  0.00    +0.000 C 
ATOM     14  N   UNL     1      -0.999  11.910  23.125  0.00  0.00    +0.000 NA
ATOM     15  C   UNL     1      -2.225  12.267  22.431  0.00  0.00    +0.000 C 
ATOM     16  C   UNL     1      -1.893  12.732  21.018  0.00  0.00    +0.000 C 
ATOM     17  H   UNL     1      -0.339  12.723  23.095  0.00  0.00    +0.000 HD
ENDROOT
BRANCH   1  19
ATOM     18  C   UNL     1       4.210   7.516  17.439  0.00  0.00    +0.000 C 
ATOM     19  C   UNL     1       2.849   6.935  17.859  0.00  0.00    +0.000 C 
BRANCH  19  20
ATOM     20  C   UNL     1       3.063   5.595  18.617  0.00  0.00    +0.000 C 
BRANCH  20  21
ATOM     21  C   UNL     1       4.490   5.350  19.152  0.00  0.00    +0.000 C 
BRANCH  21  22
ATOM     22  C   UNL     1       5.158   4.076  18.591  0.00  0.00    +0.000 C 
BRANCH  22  23
ATOM     23  C   UNL     1       5.704   4.295  17.197  0.00  0.00    +0.000 A 
ATOM     24  C   UNL     1       4.895   4.078  16.062  0.00  0.00    +0.000 A 
ATOM     25  C   UNL     1       5.406   4.291  14.778  0.00  0.00    +0.000 A 
ATOM     26  C   UNL     1       6.720   4.734  14.612  0.00  0.00    +0.000 A 
ATOM     27  F   UNL     1       7.211   4.946  13.365  0.00  0.00    +0.000 F 
ATOM     28  C   UNL     1       7.527   4.961  15.729  0.00  0.00    +0.000 A 
ATOM     29  C   UNL     1       7.024   4.740  17.015  0.00  0.00    +0.000 A 
ENDBRANCH  22  23
ENDBRANCH  21  22
ENDBRANCH  20  21
ENDBRANCH  19  20
ENDBRANCH   1  19
BRANCH   3  30
ATOM     30  O   UNL     1       1.175   8.508  22.167  0.00  0.00    +0.000 OA
ATOM     31  H   UNL     1       1.503   7.699  22.586  0.00  0.00    +0.000 HD
ENDBRANCH   3  30
TORSDOF 6
ENDMDL
MODEL 6
REMARK VINA RESULT:      -7.9      3.389      5.213
REMARK  Name = 
REMARK  9 active torsions:
REMARK  status: ('A' for Active; 'I' for Inactive)
REMARK    1  A    between atoms: C_1  and  C_2
REMARK    2  A    between atoms: C_2  and  C_3
REMARK    3  A    between atoms: C_2  and  C_13
REMARK    4  A    between atoms: C_3  and  C_4
REMARK    5  A    between atoms: C_4  and  C_5
REMARK    6  A    between atoms: C_5  and  C_6
REMARK    7  A    between atoms: C_15  and  O_16
REMARK    8  A    between atoms: C_21  and  C_22
REMARK    9  A    between atoms: C_21  and  C_23
REMARK                            x       y       z     vdW  Elec       q    Type
REMARK                         _______ _______ _______ _____ _____    ______ ____
ROOT
ATOM      1  C   UNL     1      -0.281  10.228  18.906  0.00  0.00    +0.000 A 
ATOM      2  C   UNL     1      -0.975   9.972  17.718  0.00  0.00    +0.000 A 
ATOM      3  C   UNL     1      -2.254  10.484  17.484  0.00  0.00    +0.000 A 
ATOM      4  C   UNL     1      -2.876  11.307  18.458  0.00  0.00    +0.000 A 
ATOM      5  C   UNL     1      -2.170  11.583  19.639  0.00  0.00    +0.000 A 
ATOM      6  C   UNL     1      -0.899  11.045  19.865  0.00  0.00    +0.000 A 
ATOM      7  O   UNL     1      -2.696  12.378  20.591  0.00  0.00    +0.000 OA
ATOM      8  C   UNL     1      -3.916  13.034  20.557  0.00  0.00    +0.000 C 
ATOM      9  C   UNL     1      -3.609  14.539  20.638  0.00  0.00    +0.000 C 
ATOM     10  C   UNL     1      -4.698  12.592  21.802  0.00  0.00    +0.000 C 
ATOM     11  C   UNL     1      -4.733  12.721  19.285  0.00  0.00    +0.000 C 
ATOM     12  C   UNL     1      -4.249  11.896  18.311  0.00  0.00    +0.000 C 
ATOM     13  C   UNL     1      -5.099  11.550  17.082  0.00  0.00    +0.000 C 
ATOM     14  N   UNL     1      -6.498  11.989  17.160  0.00  0.00    +0.000 NA
ATOM     15  C   UNL     1      -6.587  13.339  17.689  0.00  0.00    +0.000 C 
ATOM     16  C   UNL     1      -6.111  13.351  19.137  0.00  0.00    +0.000 C 
ATOM     17  H   UNL     1      -7.035  11.340  17.784  0.00  0.00    +0.000 HD
ENDROOT
BRANCH   1  19
ATOM     18  C   UNL     1       1.253   8.898  20.445  0.00  0.00    +0.000 C 
ATOM     19  C   UNL     1       1.115   9.630  19.098  0.00  0.00    +0.000 C 
BRANCH  19  20
ATOM     20  C   UNL     1       1.527   8.678  17.940  0.00  0.00    +0.000 C 
BRANCH  20  21
ATOM     21  C   UNL     1       2.934   8.053  18.057  0.00  0.00    +0.000 C 
BRANCH  21  22
ATOM     22  C   UNL     1       3.027   6.614  17.505  0.00  0.00    +0.000 C 
BRANCH  22  23
ATOM     23  C   UNL     1       2.438   5.604  18.464  0.00  0.00    +0.000 A 
ATOM     24  C   UNL     1       1.692   4.505  17.989  0.00  0.00    +0.000 A 
ATOM     25  C   UNL     1       1.158   3.572  18.883  0.00  0.00    +0.000 A 
ATOM     26  C   UNL     1       1.374   3.715  20.256  0.00  0.00    +0.000 A 
ATOM     27  F   UNL     1       0.861   2.804  21.120  0.00  0.00    +0.000 F 
ATOM     28  C   UNL     1       2.120   4.793  20.737  0.00  0.00    +0.000 A 
ATOM     29  C   UNL     1       2.647   5.735  19.848  0.00  0.00    +0.000 A 
ENDBRANCH  22  23
ENDBRANCH  21  22
ENDBRANCH  20  21
ENDBRANCH  19  20
ENDBRANCH   1  19
BRANCH   3  30
ATOM     30  O   UNL     1      -2.861  10.178  16.319  0.00  0.00    +0.000 OA
ATOM     31  H   UNL     1      -3.347  10.831  15.794  0.00  0.00    +0.000 HD
ENDBRANCH   3  30
TORSDOF 6
ENDMDL
MODEL 7
REMARK VINA RESULT:      -7.9      1.823      2.933
REMARK  Name = 
REMARK  9 active torsions:
REMARK  status: ('A' for Active; 'I' for Inactive)
REMARK    1  A    between atoms: C_1  and  C_2
REMARK    2  A    between atoms: C_2  and  C_3
REMARK    3  A    between atoms: C_2  and  C_13
REMARK    4  A    between atoms: C_3  and  C_4
REMARK    5  A    between atoms: C_4  and  C_5
REMARK    6  A    between atoms: C_5  and  C_6
REMARK    7  A    between atoms: C_15  and  O_16
REMARK    8  A    between atoms: C_21  and  C_22
REMARK    9  A    between atoms: C_21  and  C_23
REMARK                            x       y       z     vdW  Elec       q    Type
REMARK                         _______ _______ _______ _____ _____    ______ ____
ROOT
ATOM      1  C   UNL     1       1.541   8.280  20.236  0.00  0.00    +0.000 A 
ATOM      2  C   UNL     1       1.296   8.505  21.596  0.00  0.00    +0.000 A 
ATOM      3  C   UNL     1       0.521   9.580  22.039  0.00  0.00    +0.000 A 
ATOM      4  C   UNL     1      -0.062  10.467  21.097  0.00  0.00    +0.000 A 
ATOM      5  C   UNL     1       0.164  10.227  19.734  0.00  0.00    +0.000 A 
ATOM      6  C   UNL     1       0.959   9.158  19.309  0.00  0.00    +0.000 A 
ATOM      7  O   UNL     1      -0.383  11.019  18.791  0.00  0.00    +0.000 OA
ATOM      8  C   UNL     1      -1.222  12.104  18.989  0.00  0.00    +0.000 C 
ATOM      9  C   UNL     1      -2.552  11.764  18.295  0.00  0.00    +0.000 C 
ATOM     10  C   UNL     1      -0.566  13.309  18.301  0.00  0.00    +0.000 C 
ATOM     11  C   UNL     1      -1.460  12.416  20.481  0.00  0.00    +0.000 C 
ATOM     12  C   UNL     1      -0.900  11.657  21.468  0.00  0.00    +0.000 C 
ATOM     13  C   UNL     1      -1.100  12.018  22.945  0.00  0.00    +0.000 C 
ATOM     14  N   UNL     1      -1.732  13.323  23.178  0.00  0.00    +0.000 NA
ATOM     15  C   UNL     1      -2.851  13.523  22.272  0.00  0.00    +0.000 C 
ATOM     16  C   UNL     1      -2.337  13.608  20.840  0.00  0.00    +0.000 C 
ATOM     17  H   UNL     1      -1.030  14.085  23.029  0.00  0.00    +0.000 HD
ENDROOT
BRANCH   1  19
ATOM     18  C   UNL     1       1.884   5.762  20.411  0.00  0.00    +0.000 C 
ATOM     19  C   UNL     1       2.404   7.085  19.822  0.00  0.00    +0.000 C 
BRANCH  19  20
ATOM     20  C   UNL     1       2.549   6.952  18.281  0.00  0.00    +0.000 C 
BRANCH  20  21
ATOM     21  C   UNL     1       3.984   7.093  17.729  0.00  0.00    +0.000 C 
BRANCH  21  22
ATOM     22  C   UNL     1       4.465   5.870  16.918  0.00  0.00    +0.000 C 
BRANCH  22  23
ATOM     23  C   UNL     1       4.014   4.568  17.542  0.00  0.00    +0.000 A 
ATOM     24  C   UNL     1       2.946   3.833  16.988  0.00  0.00    +0.000 A 
ATOM     25  C   UNL     1       2.542   2.626  17.568  0.00  0.00    +0.000 A 
ATOM     26  C   UNL     1       3.205   2.133  18.693  0.00  0.00    +0.000 A 
ATOM     27  F   UNL     1       2.815   0.958  19.249  0.00  0.00    +0.000 F 
ATOM     28  C   UNL     1       4.271   2.847  19.244  0.00  0.00    +0.000 A 
ATOM     29  C   UNL     1       4.673   4.060  18.675  0.00  0.00    +0.000 A 
ENDBRANCH  22  23
ENDBRANCH  21  22
ENDBRANCH  20  21
ENDBRANCH  19  20
ENDBRANCH   1  19
BRANCH   3  30
ATOM     30  O   UNL     1       0.345   9.736  23.367  0.00  0.00    +0.000 OA
ATOM     31  H   UNL     1       0.816  10.408  23.883  0.00  0.00    +0.000 HD
ENDBRANCH   3  30
TORSDOF 6
ENDMDL
MODEL 8
REMARK VINA RESULT:      -7.9      3.385      8.097
REMARK  Name = 
REMARK  9 active torsions:
REMARK  status: ('A' for Active; 'I' for Inactive)
REMARK    1  A    between atoms: C_1  and  C_2
REMARK    2  A    between atoms: C_2  and  C_3
REMARK    3  A    between atoms: C_2  and  C_13
REMARK    4  A    between atoms: C_3  and  C_4
REMARK    5  A    between atoms: C_4  and  C_5
REMARK    6  A    between atoms: C_5  and  C_6
REMARK    7  A    between atoms: C_15  and  O_16
REMARK    8  A    between atoms: C_21  and  C_22
REMARK    9  A    between atoms: C_21  and  C_23
REMARK                            x       y       z     vdW  Elec       q    Type
REMARK                         _______ _______ _______ _____ _____    ______ ____
ROOT
ATOM      1  C   UNL     1       1.122   8.450  20.320  0.00  0.00    +0.000 A 
ATOM      2  C   UNL     1       1.954   8.596  19.205  0.00  0.00    +0.000 A 
ATOM      3  C   UNL     1       2.627   7.510  18.637  0.00  0.00    +0.000 A 
ATOM      4  C   UNL     1       2.455   6.210  19.180  0.00  0.00    +0.000 A 
ATOM      5  C   UNL     1       1.603   6.060  20.284  0.00  0.00    +0.000 A 
ATOM      6  C   UNL     1       0.954   7.161  20.851  0.00  0.00    +0.000 A 
ATOM      7  O   UNL     1       1.380   4.849  20.828  0.00  0.00    +0.000 OA
ATOM      8  C   UNL     1       1.891   3.632  20.405  0.00  0.00    +0.000 C 
ATOM      9  C   UNL     1       0.685   2.760  20.014  0.00  0.00    +0.000 C 
ATOM     10  C   UNL     1       2.619   3.010  21.606  0.00  0.00    +0.000 C 
ATOM     11  C   UNL     1       2.863   3.768  19.215  0.00  0.00    +0.000 C 
ATOM     12  C   UNL     1       3.139   4.982  18.654  0.00  0.00    +0.000 C 
ATOM     13  C   UNL     1       4.154   5.104  17.509  0.00  0.00    +0.000 C 
ATOM     14  N   UNL     1       4.927   3.885  17.240  0.00  0.00    +0.000 NA
ATOM     15  C   UNL     1       4.068   2.713  17.264  0.00  0.00    +0.000 C 
ATOM     16  C   UNL     1       3.526   2.508  18.674  0.00  0.00    +0.000 C 
ATOM     17  H   UNL     1       5.675   3.777  17.966  0.00  0.00    +0.000 HD
ENDROOT
BRANCH   1  19
ATOM     18  C   UNL     1       0.583   9.786  22.421  0.00  0.00    +0.000 C 
ATOM     19  C   UNL     1       0.420   9.684  20.894  0.00  0.00    +0.000 C 
BRANCH  19  20
ATOM     20  C   UNL     1       0.889  11.007  20.227  0.00  0.00    +0.000 C 
BRANCH  20  21
ATOM     21  C   UNL     1      -0.160  11.721  19.348  0.00  0.00    +0.000 C 
BRANCH  21  22
ATOM     22  C   UNL     1      -1.602  11.209  19.554  0.00  0.00    +0.000 C 
BRANCH  22  23
ATOM     23  C   UNL     1      -2.296  10.936  18.238  0.00  0.00    +0.000 A 
ATOM     24  C   UNL     1      -1.744  10.036  17.303  0.00  0.00    +0.000 A 
ATOM     25  C   UNL     1      -2.397   9.784  16.092  0.00  0.00    +0.000 A 
ATOM     26  C   UNL     1      -3.611  10.413  15.807  0.00  0.00    +0.000 A 
ATOM     27  F   UNL     1      -4.245  10.161  14.635  0.00  0.00    +0.000 F 
ATOM     28  C   UNL     1      -4.172  11.298  16.730  0.00  0.00    +0.000 A 
ATOM     29  C   UNL     1      -3.518  11.562  17.938  0.00  0.00    +0.000 A 
ENDBRANCH  22  23
ENDBRANCH  21  22
ENDBRANCH  20  21
ENDBRANCH  19  20
ENDBRANCH   1  19
BRANCH   3  30
ATOM     30  O   UNL     1       3.422   7.738  17.572  0.00  0.00    +0.000 OA
ATOM     31  H   UNL     1       3.219   8.404  16.899  0.00  0.00    +0.000 HD
ENDBRANCH   3  30
TORSDOF 6
ENDMDL
MODEL 9
REMARK VINA RESULT:      -7.8      3.081      4.387
REMARK  Name = 
REMARK  9 active torsions:
REMARK  status: ('A' for Active; 'I' for Inactive)
REMARK    1  A    between atoms: C_1  and  C_2
REMARK    2  A    between atoms: C_2  and  C_3
REMARK    3  A    between atoms: C_2  and  C_13
REMARK    4  A    between atoms: C_3  and  C_4
REMARK    5  A    between atoms: C_4  and  C_5
REMARK    6  A    between atoms: C_5  and  C_6
REMARK    7  A    between atoms: C_15  and  O_16
REMARK    8  A    between atoms: C_21  and  C_22
REMARK    9  A    between atoms: C_21  and  C_23
REMARK                            x       y       z     vdW  Elec       q    Type
REMARK                         _______ _______ _______ _____ _____    ______ ____
ROOT
ATOM      1  C   UNL     1       2.703   7.471  18.207  0.00  0.00    +0.000 A 
ATOM      2  C   UNL     1       2.492   7.031  19.519  0.00  0.00    +0.000 A 
ATOM      3  C   UNL     1       1.766   7.785  20.444  0.00  0.00    +0.000 A 
ATOM      4  C   UNL     1       1.199   9.027  20.055  0.00  0.00    +0.000 A 
ATOM      5  C   UNL     1       1.391   9.457  18.734  0.00  0.00    +0.000 A 
ATOM      6  C   UNL     1       2.138   8.699  17.827  0.00  0.00    +0.000 A 
ATOM      7  O   UNL     1       0.857  10.614  18.297  0.00  0.00    +0.000 OA
ATOM      8  C   UNL     1       0.063  11.495  19.014  0.00  0.00    +0.000 C 
ATOM      9  C   UNL     1      -1.291  11.557  18.287  0.00  0.00    +0.000 C 
ATOM     10  C   UNL     1       0.751  12.866  18.957  0.00  0.00    +0.000 C 
ATOM     11  C   UNL     1      -0.136  11.068  20.483  0.00  0.00    +0.000 C 
ATOM     12  C   UNL     1       0.413   9.918  20.973  0.00  0.00    +0.000 C 
ATOM     13  C   UNL     1       0.254   9.540  22.451  0.00  0.00    +0.000 C 
ATOM     14  N   UNL     1      -0.325  10.592  23.295  0.00  0.00    +0.000 NA
ATOM     15  C   UNL     1      -1.452  11.226  22.631  0.00  0.00    +0.000 C 
ATOM     16  C   UNL     1      -0.961  11.968  21.393  0.00  0.00    +0.000 C 
ATOM     17  H   UNL     1       0.403  11.317  23.502  0.00  0.00    +0.000 HD
ENDROOT
BRANCH   1  19
ATOM     18  C   UNL     1       4.899   7.196  16.945  0.00  0.00    +0.000 C 
ATOM     19  C   UNL     1       3.514   6.596  17.248  0.00  0.00    +0.000 C 
BRANCH  19  20
ATOM     20  C   UNL     1       3.676   5.136  17.755  0.00  0.00    +0.000 C 
BRANCH  20  21
ATOM     21  C   UNL     1       3.992   4.082  16.672  0.00  0.00    +0.000 C 
BRANCH  21  22
ATOM     22  C   UNL     1       5.491   3.729  16.562  0.00  0.00    +0.000 C 
BRANCH  22  23
ATOM     23  C   UNL     1       6.034   4.005  15.177  0.00  0.00    +0.000 A 
ATOM     24  C   UNL     1       5.456   3.402  14.040  0.00  0.00    +0.000 A 
ATOM     25  C   UNL     1       5.960   3.670  12.764  0.00  0.00    +0.000 A 
ATOM     26  C   UNL     1       7.033   4.550  12.605  0.00  0.00    +0.000 A 
ATOM     27  F   UNL     1       7.515   4.814  11.365  0.00  0.00    +0.000 F 
ATOM     28  C   UNL     1       7.606   5.161  13.723  0.00  0.00    +0.000 A 
ATOM     29  C   UNL     1       7.113   4.889  15.003  0.00  0.00    +0.000 A 
ENDBRANCH  22  23
ENDBRANCH  21  22
ENDBRANCH  20  21
ENDBRANCH  19  20
ENDBRANCH   1  19
BRANCH   3  30
ATOM     30  O   UNL     1       1.621   7.297  21.693  0.00  0.00    +0.000 OA
ATOM     31  H   UNL     1       0.775   6.967  22.031  0.00  0.00    +0.000 HD
ENDBRANCH   3  30
TORSDOF 6
ENDMDL
