MODEL 1
REMARK VINA RESULT:      -7.1      0.000      0.000
REMARK  Name = 
REMARK  10 active torsions:
REMARK  status: ('A' for Active; 'I' for Inactive)
REMARK    1  A    between atoms: C_1  and  C_2
REMARK    2  A    between atoms: C_2  and  C_3
REMARK    3  A    between atoms: C_3  and  N_4
REMARK    4  A    between atoms: C_3  and  C_5
REMARK    5  A    between atoms: C_3  and  C_29
REMARK    6  A    between atoms: C_6  and  C_7
REMARK    7  A    between atoms: C_9  and  C_10
REMARK    8  A    between atoms: C_17  and  C_18
REMARK    9  A    between atoms: C_26  and  C_27
REMARK   10  A    between atoms: C_29  and  C_30
REMARK                            x       y       z     vdW  Elec       q    Type
REMARK                         _______ _______ _______ _____ _____    ______ ____
ROOT
ATOM      1  C   UNL     1       1.722   8.903  19.556  0.00  0.00    +0.000 A 
ATOM      2  N   UNL     1       1.795   7.611  19.961  0.00  0.00    +0.000 NA
ATOM      3  C   UNL     1       2.478   6.699  19.201  0.00  0.00    +0.000 A 
ATOM      4  C   UNL     1       3.131   7.079  17.996  0.00  0.00    +0.000 A 
ATOM      5  C   UNL     1       3.078   8.455  17.666  0.00  0.00    +0.000 A 
ATOM      6  C   UNL     1       2.376   9.380  18.444  0.00  0.00    +0.000 A 
ENDROOT
BRANCH   3   7
ATOM      7  C   UNL     1       2.496   5.328  19.811  0.00  0.00    +0.000 A 
ATOM      8  C   UNL     1       1.284   4.698  20.184  0.00  0.00    +0.000 A 
ATOM      9  C   UNL     1       1.246   3.459  20.833  0.00  0.00    +0.000 A 
ATOM     10  C   UNL     1       2.419   2.750  21.038  0.00  0.00    +0.000 A 
ATOM     11  C   UNL     1       3.627   3.300  20.624  0.00  0.00    +0.000 A 
ATOM     12  C   UNL     1       3.676   4.580  20.044  0.00  0.00    +0.000 A 
ATOM     13 CL   UNL     1       5.272   5.176  19.713  0.00  0.00    +0.000 Cl
ENDBRANCH   3   7
BRANCH   4  14
ATOM     14  C   UNL     1       3.856   6.163  17.064  0.00  0.00    +0.000 A 
ATOM     15  C   UNL     1       3.569   4.786  16.989  0.00  0.00    +0.000 A 
ATOM     16  C   UNL     1       4.319   3.920  16.181  0.00  0.00    +0.000 A 
ATOM     17  C   UNL     1       5.316   4.429  15.359  0.00  0.00    +0.000 A 
ATOM     18 CL   UNL     1       6.219   3.374  14.345  0.00  0.00    +0.000 Cl
ATOM     19  C   UNL     1       5.584   5.793  15.355  0.00  0.00    +0.000 A 
ATOM     20  C   UNL     1       4.874   6.644  16.213  0.00  0.00    +0.000 A 
ENDBRANCH   4  14
BRANCH   1  22
ATOM     21  C   UNL     1       0.140  10.473  20.960  0.00  0.00    +0.000 C 
ATOM     22  C   UNL     1       0.844   9.722  20.346  0.00  0.00    +0.000 C 
BRANCH  21  23
ATOM     23  C   UNL     1      -0.711  11.422  21.706  0.00  0.00    +0.000 C 
BRANCH  23  24
ATOM     24  N   UNL     1       0.050  12.649  21.964  0.00  0.00    +0.000 NA
ATOM     25  H   UNL     1       1.000  12.416  22.248  0.00  0.00    +0.000 HD
ATOM     26  H   UNL     1      -0.370  13.155  22.741  0.00  0.00    +0.000 HD
ENDBRANCH  23  24
BRANCH  23  28
ATOM     27  C   UNL     1      -0.430   9.507  23.447  0.00  0.00    +0.000 C 
ATOM     28  C   UNL     1      -1.173  10.780  23.041  0.00  0.00    +0.000 C 
ENDBRANCH  23  28
BRANCH  23  29
ATOM     29  C   UNL     1      -1.968  11.796  20.873  0.00  0.00    +0.000 C 
ATOM     30  C   UNL     1      -1.839  13.063  20.026  0.00  0.00    +0.000 C 
ENDBRANCH  23  29
ENDBRANCH  21  23
ENDBRANCH   1  22
BRANCH   6  31
ATOM     31  C   UNL     1       2.362  10.764  18.075  0.00  0.00    +0.000 C 
ATOM     32  N   UNL     1       2.410  11.886  17.788  0.00  0.00    +0.000 NA
ENDBRANCH   6  31
TORSDOF 8
ENDMDL
MODEL 2
REMARK VINA RESULT:      -6.9      5.634      8.241
REMARK  Name = 
REMARK  10 active torsions:
REMARK  status: ('A' for Active; 'I' for Inactive)
REMARK    1  A    between atoms: C_1  and  C_2
REMARK    2  A    between atoms: C_2  and  C_3
REMARK    3  A    between atoms: C_3  and  N_4
REMARK    4  A    between atoms: C_3  and  C_5
REMARK    5  A    between atoms: C_3  and  C_29
REMARK    6  A    between atoms: C_6  and  C_7
REMARK    7  A    between atoms: C_9  and  C_10
REMARK    8  A    between atoms: C_17  and  C_18
REMARK    9  A    between atoms: C_26  and  C_27
REMARK   10  A    between atoms: C_29  and  C_30
REMARK                            x       y       z     vdW  Elec       q    Type
REMARK                         _______ _______ _______ _____ _____    ______ ____
ROOT
ATOM      1  C   UNL     1       2.335  13.950  20.208  0.00  0.00    +0.000 A 
ATOM      2  N   UNL     1       1.876  12.844  20.843  0.00  0.00    +0.000 NA
ATOM      3  C   UNL     1       0.665  12.312  20.489  0.00  0.00    +0.000 A 
ATOM      4  C   UNL     1      -0.123  12.886  19.454  0.00  0.00    +0.000 A 
ATOM      5  C   UNL     1       0.445  13.996  18.781  0.00  0.00    +0.000 A 
ATOM      6  C   UNL     1       1.680  14.536  19.150  0.00  0.00    +0.000 A 
ENDROOT
BRANCH   3   7
ATOM      7  C   UNL     1       0.325  11.070  21.259  0.00  0.00    +0.000 A 
ATOM      8  C   UNL     1       0.793   9.808  20.820  0.00  0.00    +0.000 A 
ATOM      9  C   UNL     1       0.438   8.610  21.449  0.00  0.00    +0.000 A 
ATOM     10  C   UNL     1      -0.317   8.636  22.611  0.00  0.00    +0.000 A 
ATOM     11  C   UNL     1      -0.741   9.860  23.119  0.00  0.00    +0.000 A 
ATOM     12  C   UNL     1      -0.451  11.060  22.444  0.00  0.00    +0.000 A 
ATOM     13 CL   UNL     1      -1.170  12.481  23.133  0.00  0.00    +0.000 Cl
ENDBRANCH   3   7
BRANCH   4  14
ATOM     14  C   UNL     1      -1.478  12.426  19.023  0.00  0.00    +0.000 A 
ATOM     15  C   UNL     1      -1.688  11.733  17.815  0.00  0.00    +0.000 A 
ATOM     16  C   UNL     1      -2.974  11.390  17.375  0.00  0.00    +0.000 A 
ATOM     17  C   UNL     1      -4.074  11.653  18.181  0.00  0.00    +0.000 A 
ATOM     18 CL   UNL     1      -5.650  11.207  17.659  0.00  0.00    +0.000 Cl
ATOM     19  C   UNL     1      -3.901  12.275  19.412  0.00  0.00    +0.000 A 
ATOM     20  C   UNL     1      -2.619  12.673  19.816  0.00  0.00    +0.000 A 
ENDBRANCH   4  14
BRANCH   1  22
ATOM     21  C   UNL     1       4.566  14.890  21.249  0.00  0.00    +0.000 C 
ATOM     22  C   UNL     1       3.533  14.505  20.777  0.00  0.00    +0.000 C 
BRANCH  21  23
ATOM     23  C   UNL     1       5.844  15.334  21.838  0.00  0.00    +0.000 C 
BRANCH  23  24
ATOM     24  N   UNL     1       5.586  15.936  23.150  0.00  0.00    +0.000 NA
ATOM     25  H   UNL     1       4.808  16.589  23.085  0.00  0.00    +0.000 HD
ATOM     26  H   UNL     1       6.396  16.477  23.444  0.00  0.00    +0.000 HD
ENDBRANCH  23  24
BRANCH  23  28
ATOM     27  C   UNL     1       5.600  17.391  20.263  0.00  0.00    +0.000 C 
ATOM     28  C   UNL     1       6.531  16.359  20.897  0.00  0.00    +0.000 C 
ENDBRANCH  23  28
BRANCH  23  29
ATOM     29  C   UNL     1       6.800  14.124  22.038  0.00  0.00    +0.000 C 
ATOM     30  C   UNL     1       6.389  13.139  23.133  0.00  0.00    +0.000 C 
ENDBRANCH  23  29
ENDBRANCH  21  23
ENDBRANCH   1  22
BRANCH   6  31
ATOM     31  C   UNL     1       2.219  15.652  18.431  0.00  0.00    +0.000 C 
ATOM     32  N   UNL     1       2.604  16.586  17.863  0.00  0.00    +0.000 NA
ENDBRANCH   6  31
TORSDOF 8
ENDMDL
MODEL 3
REMARK VINA RESULT:      -6.9      5.009      8.027
REMARK  Name = 
REMARK  10 active torsions:
REMARK  status: ('A' for Active; 'I' for Inactive)
REMARK    1  A    between atoms: C_1  and  C_2
REMARK    2  A    between atoms: C_2  and  C_3
REMARK    3  A    between atoms: C_3  and  N_4
REMARK    4  A    between atoms: C_3  and  C_5
REMARK    5  A    between atoms: C_3  and  C_29
REMARK    6  A    between atoms: C_6  and  C_7
REMARK    7  A    between atoms: C_9  and  C_10
REMARK    8  A    between atoms: C_17  and  C_18
REMARK    9  A    between atoms: C_26  and  C_27
REMARK   10  A    between atoms: C_29  and  C_30
REMARK                            x       y       z     vdW  Elec       q    Type
REMARK                         _______ _______ _______ _____ _____    ______ ____
ROOT
ATOM      1  C   UNL     1       2.241  13.836  20.197  0.00  0.00    +0.000 A 
ATOM      2  N   UNL     1       1.779  12.710  20.797  0.00  0.00    +0.000 NA
ATOM      3  C   UNL     1       0.556  12.206  20.445  0.00  0.00    +0.000 A 
ATOM      4  C   UNL     1      -0.243  12.830  19.447  0.00  0.00    +0.000 A 
ATOM      5  C   UNL     1       0.326  13.959  18.809  0.00  0.00    +0.000 A 
ATOM      6  C   UNL     1       1.574  14.470  19.175  0.00  0.00    +0.000 A 
ENDROOT
BRANCH   3   7
ATOM      7  C   UNL     1       0.216  10.939  21.172  0.00  0.00    +0.000 A 
ATOM      8  C   UNL     1      -0.393  10.992  22.449  0.00  0.00    +0.000 A 
ATOM      9  C   UNL     1      -0.655   9.845  23.208  0.00  0.00    +0.000 A 
ATOM     10  C   UNL     1      -0.415   8.591  22.672  0.00  0.00    +0.000 A 
ATOM     11  C   UNL     1       0.119   8.490  21.392  0.00  0.00    +0.000 A 
ATOM     12  C   UNL     1       0.457   9.642  20.658  0.00  0.00    +0.000 A 
ATOM     13 CL   UNL     1       1.240   9.340  19.138  0.00  0.00    +0.000 Cl
ENDBRANCH   3   7
BRANCH   4  14
ATOM     14  C   UNL     1      -1.611  12.401  19.024  0.00  0.00    +0.000 A 
ATOM     15  C   UNL     1      -1.847  11.738  17.804  0.00  0.00    +0.000 A 
ATOM     16  C   UNL     1      -3.143  11.426  17.373  0.00  0.00    +0.000 A 
ATOM     17  C   UNL     1      -4.230  11.691  18.197  0.00  0.00    +0.000 A 
ATOM     18 CL   UNL     1      -5.820  11.283  17.685  0.00  0.00    +0.000 Cl
ATOM     19  C   UNL     1      -4.031  12.285  19.439  0.00  0.00    +0.000 A 
ATOM     20  C   UNL     1      -2.738  12.652  19.835  0.00  0.00    +0.000 A 
ENDBRANCH   4  14
BRANCH   1  22
ATOM     21  C   UNL     1       4.457  14.732  21.304  0.00  0.00    +0.000 C 
ATOM     22  C   UNL     1       3.455  14.354  20.765  0.00  0.00    +0.000 C 
BRANCH  21  23
ATOM     23  C   UNL     1       5.683  15.182  21.993  0.00  0.00    +0.000 C 
BRANCH  23  24
ATOM     24  N   UNL     1       5.555  16.607  22.318  0.00  0.00    +0.000 NA
ATOM     25  H   UNL     1       6.164  17.157  21.716  0.00  0.00    +0.000 HD
ATOM     26  H   UNL     1       5.867  16.770  23.273  0.00  0.00    +0.000 HD
ENDBRANCH  23  24
BRANCH  23  28
ATOM     27  C   UNL     1       6.848  15.589  19.701  0.00  0.00    +0.000 C 
ATOM     28  C   UNL     1       6.918  14.943  21.085  0.00  0.00    +0.000 C 
ENDBRANCH  23  28
BRANCH  23  29
ATOM     29  C   UNL     1       5.881  14.397  23.319  0.00  0.00    +0.000 C 
ATOM     30  C   UNL     1       6.031  12.883  23.167  0.00  0.00    +0.000 C 
ENDBRANCH  23  29
ENDBRANCH  21  23
ENDBRANCH   1  22
BRANCH   6  31
ATOM     31  C   UNL     1       2.112  15.607  18.491  0.00  0.00    +0.000 C 
ATOM     32  N   UNL     1       2.604  16.504  17.945  0.00  0.00    +0.000 NA
ENDBRANCH   6  31
TORSDOF 8
ENDMDL
MODEL 4
REMARK VINA RESULT:      -6.9      5.638      8.184
REMARK  Name = 
REMARK  10 active torsions:
REMARK  status: ('A' for Active; 'I' for Inactive)
REMARK    1  A    between atoms: C_1  and  C_2
REMARK    2  A    between atoms: C_2  and  C_3
REMARK    3  A    between atoms: C_3  and  N_4
REMARK    4  A    between atoms: C_3  and  C_5
REMARK    5  A    between atoms: C_3  and  C_29
REMARK    6  A    between atoms: C_6  and  C_7
REMARK    7  A    between atoms: C_9  and  C_10
REMARK    8  A    between atoms: C_17  and  C_18
REMARK    9  A    between atoms: C_26  and  C_27
REMARK   10  A    between atoms: C_29  and  C_30
REMARK                            x       y       z     vdW  Elec       q    Type
REMARK                         _______ _______ _______ _____ _____    ______ ____
ROOT
ATOM      1  C   UNL     1       2.398  13.901  20.176  0.00  0.00    +0.000 A 
ATOM      2  N   UNL     1       1.917  12.803  20.810  0.00  0.00    +0.000 NA
ATOM      3  C   UNL     1       0.680  12.316  20.481  0.00  0.00    +0.000 A 
ATOM      4  C   UNL     1      -0.114  12.930  19.473  0.00  0.00    +0.000 A 
ATOM      5  C   UNL     1       0.475  14.028  18.800  0.00  0.00    +0.000 A 
ATOM      6  C   UNL     1       1.737  14.522  19.142  0.00  0.00    +0.000 A 
ENDROOT
BRANCH   3   7
ATOM      7  C   UNL     1       0.319  11.077  21.245  0.00  0.00    +0.000 A 
ATOM      8  C   UNL     1       0.767   9.810  20.801  0.00  0.00    +0.000 A 
ATOM      9  C   UNL     1       0.391   8.614  21.425  0.00  0.00    +0.000 A 
ATOM     10  C   UNL     1      -0.366   8.648  22.585  0.00  0.00    +0.000 A 
ATOM     11  C   UNL     1      -0.771   9.877  23.097  0.00  0.00    +0.000 A 
ATOM     12  C   UNL     1      -0.461  11.075  22.428  0.00  0.00    +0.000 A 
ATOM     13 CL   UNL     1      -1.158  12.504  23.121  0.00  0.00    +0.000 Cl
ENDBRANCH   3   7
BRANCH   4  14
ATOM     14  C   UNL     1      -1.494  12.521  19.072  0.00  0.00    +0.000 A 
ATOM     15  C   UNL     1      -2.622  12.803  19.866  0.00  0.00    +0.000 A 
ATOM     16  C   UNL     1      -3.898  12.332  19.528  0.00  0.00    +0.000 A 
ATOM     17  C   UNL     1      -4.089  11.642  18.338  0.00  0.00    +0.000 A 
ATOM     18 CL   UNL     1      -5.658  11.088  17.905  0.00  0.00    +0.000 Cl
ATOM     19  C   UNL     1      -3.010  11.402  17.494  0.00  0.00    +0.000 A 
ATOM     20  C   UNL     1      -1.727  11.820  17.870  0.00  0.00    +0.000 A 
ENDBRANCH   4  14
BRANCH   1  22
ATOM     21  C   UNL     1       4.685  14.752  21.170  0.00  0.00    +0.000 C 
ATOM     22  C   UNL     1       3.628  14.408  20.720  0.00  0.00    +0.000 C 
BRANCH  21  23
ATOM     23  C   UNL     1       5.993  15.145  21.729  0.00  0.00    +0.000 C 
BRANCH  23  24
ATOM     24  N   UNL     1       7.055  14.723  20.810  0.00  0.00    +0.000 NA
ATOM     25  H   UNL     1       7.885  14.458  21.337  0.00  0.00    +0.000 HD
ATOM     26  H   UNL     1       7.325  15.504  20.215  0.00  0.00    +0.000 HD
ENDBRANCH  23  24
BRANCH  23  28
ATOM     27  C   UNL     1       6.313  12.969  23.119  0.00  0.00    +0.000 C 
ATOM     28  C   UNL     1       6.190  14.492  23.123  0.00  0.00    +0.000 C 
ENDBRANCH  23  28
BRANCH  23  29
ATOM     29  C   UNL     1       6.074  16.689  21.888  0.00  0.00    +0.000 C 
ATOM     30  C   UNL     1       7.026  17.186  22.977  0.00  0.00    +0.000 C 
ENDBRANCH  23  29
ENDBRANCH  21  23
ENDBRANCH   1  22
BRANCH   6  31
ATOM     31  C   UNL     1       2.294  15.628  18.423  0.00  0.00    +0.000 C 
ATOM     32  N   UNL     1       2.692  16.530  17.812  0.00  0.00    +0.000 NA
ENDBRANCH   6  31
TORSDOF 8
ENDMDL
MODEL 5
REMARK VINA RESULT:      -6.8      4.992      7.969
REMARK  Name = 
REMARK  10 active torsions:
REMARK  status: ('A' for Active; 'I' for Inactive)
REMARK    1  A    between atoms: C_1  and  C_2
REMARK    2  A    between atoms: C_2  and  C_3
REMARK    3  A    between atoms: C_3  and  N_4
REMARK    4  A    between atoms: C_3  and  C_5
REMARK    5  A    between atoms: C_3  and  C_29
REMARK    6  A    between atoms: C_6  and  C_7
REMARK    7  A    between atoms: C_9  and  C_10
REMARK    8  A    between atoms: C_17  and  C_18
REMARK    9  A    between atoms: C_26  and  C_27
REMARK   10  A    between atoms: C_29  and  C_30
REMARK                            x       y       z     vdW  Elec       q    Type
REMARK                         _______ _______ _______ _____ _____    ______ ____
ROOT
ATOM      1  C   UNL     1       2.216  13.886  20.157  0.00  0.00    +0.000 A 
ATOM      2  N   UNL     1       1.773  12.755  20.760  0.00  0.00    +0.000 NA
ATOM      3  C   UNL     1       0.552  12.239  20.419  0.00  0.00    +0.000 A 
ATOM      4  C   UNL     1      -0.265  12.856  19.431  0.00  0.00    +0.000 A 
ATOM      5  C   UNL     1       0.286  13.992  18.789  0.00  0.00    +0.000 A 
ATOM      6  C   UNL     1       1.532  14.515  19.144  0.00  0.00    +0.000 A 
ENDROOT
BRANCH   3   7
ATOM      7  C   UNL     1       0.233  10.966  21.147  0.00  0.00    +0.000 A 
ATOM      8  C   UNL     1      -0.401  11.009  22.412  0.00  0.00    +0.000 A 
ATOM      9  C   UNL     1      -0.646   9.860  23.174  0.00  0.00    +0.000 A 
ATOM     10  C   UNL     1      -0.361   8.610  22.649  0.00  0.00    +0.000 A 
ATOM     11  C   UNL     1       0.199   8.517  21.379  0.00  0.00    +0.000 A 
ATOM     12  C   UNL     1       0.519   9.673  20.645  0.00  0.00    +0.000 A 
ATOM     13 CL   UNL     1       1.338   9.386  19.142  0.00  0.00    +0.000 Cl
ENDBRANCH   3   7
BRANCH   4  14
ATOM     14  C   UNL     1      -1.632  12.414  19.021  0.00  0.00    +0.000 A 
ATOM     15  C   UNL     1      -1.868  11.715  17.822  0.00  0.00    +0.000 A 
ATOM     16  C   UNL     1      -3.164  11.390  17.400  0.00  0.00    +0.000 A 
ATOM     17  C   UNL     1      -4.250  11.677  18.218  0.00  0.00    +0.000 A 
ATOM     18 CL   UNL     1      -5.840  11.252  17.718  0.00  0.00    +0.000 Cl
ATOM     19  C   UNL     1      -4.051  12.305  19.441  0.00  0.00    +0.000 A 
ATOM     20  C   UNL     1      -2.759  12.686  19.826  0.00  0.00    +0.000 A 
ENDBRANCH   4  14
BRANCH   1  22
ATOM     21  C   UNL     1       4.473  14.869  21.098  0.00  0.00    +0.000 C 
ATOM     22  C   UNL     1       3.431  14.417  20.714  0.00  0.00    +0.000 C 
BRANCH  21  23
ATOM     23  C   UNL     1       5.768  15.419  21.544  0.00  0.00    +0.000 C 
BRANCH  23  24
ATOM     24  N   UNL     1       6.843  14.827  20.741  0.00  0.00    +0.000 NA
ATOM     25  H   UNL     1       7.608  15.492  20.641  0.00  0.00    +0.000 HD
ATOM     26  H   UNL     1       6.502  14.633  19.801  0.00  0.00    +0.000 HD
ENDBRANCH  23  24
BRANCH  23  28
ATOM     27  C   UNL     1       5.927  13.632  23.429  0.00  0.00    +0.000 C 
ATOM     28  C   UNL     1       5.983  15.111  23.050  0.00  0.00    +0.000 C 
ENDBRANCH  23  28
BRANCH  23  29
ATOM     29  C   UNL     1       5.802  16.960  21.342  0.00  0.00    +0.000 C 
ATOM     30  C   UNL     1       5.888  17.428  19.888  0.00  0.00    +0.000 C 
ENDBRANCH  23  29
ENDBRANCH  21  23
ENDBRANCH   1  22
BRANCH   6  31
ATOM     31  C   UNL     1       2.051  15.660  18.456  0.00  0.00    +0.000 C 
ATOM     32  N   UNL     1       2.465  16.556  17.848  0.00  0.00    +0.000 NA
ENDBRANCH   6  31
TORSDOF 8
ENDMDL
MODEL 6
REMARK VINA RESULT:      -6.8      5.026      8.002
REMARK  Name = 
REMARK  10 active torsions:
REMARK  status: ('A' for Active; 'I' for Inactive)
REMARK    1  A    between atoms: C_1  and  C_2
REMARK    2  A    between atoms: C_2  and  C_3
REMARK    3  A    between atoms: C_3  and  N_4
REMARK    4  A    between atoms: C_3  and  C_5
REMARK    5  A    between atoms: C_3  and  C_29
REMARK    6  A    between atoms: C_6  and  C_7
REMARK    7  A    between atoms: C_9  and  C_10
REMARK    8  A    between atoms: C_17  and  C_18
REMARK    9  A    between atoms: C_26  and  C_27
REMARK   10  A    between atoms: C_29  and  C_30
REMARK                            x       y       z     vdW  Elec       q    Type
REMARK                         _______ _______ _______ _____ _____    ______ ____
ROOT
ATOM      1  C   UNL     1       2.298  13.871  20.197  0.00  0.00    +0.000 A 
ATOM      2  N   UNL     1       1.827  12.747  20.793  0.00  0.00    +0.000 NA
ATOM      3  C   UNL     1       0.593  12.263  20.450  0.00  0.00    +0.000 A 
ATOM      4  C   UNL     1      -0.209  12.908  19.468  0.00  0.00    +0.000 A 
ATOM      5  C   UNL     1       0.369  14.034  18.833  0.00  0.00    +0.000 A 
ATOM      6  C   UNL     1       1.629  14.524  19.189  0.00  0.00    +0.000 A 
ENDROOT
BRANCH   3   7
ATOM      7  C   UNL     1       0.242  10.995  21.170  0.00  0.00    +0.000 A 
ATOM      8  C   UNL     1      -0.376  11.045  22.443  0.00  0.00    +0.000 A 
ATOM      9  C   UNL     1      -0.647   9.897  23.196  0.00  0.00    +0.000 A 
ATOM     10  C   UNL     1      -0.408   8.643  22.657  0.00  0.00    +0.000 A 
ATOM     11  C   UNL     1       0.135   8.545  21.380  0.00  0.00    +0.000 A 
ATOM     12  C   UNL     1       0.482   9.699  20.653  0.00  0.00    +0.000 A 
ATOM     13 CL   UNL     1       1.275   9.400  19.138  0.00  0.00    +0.000 Cl
ENDBRANCH   3   7
BRANCH   4  14
ATOM     14  C   UNL     1      -1.588  12.503  19.057  0.00  0.00    +0.000 A 
ATOM     15  C   UNL     1      -2.718  12.769  19.853  0.00  0.00    +0.000 A 
ATOM     16  C   UNL     1      -3.992  12.301  19.504  0.00  0.00    +0.000 A 
ATOM     17  C   UNL     1      -4.179  11.633  18.300  0.00  0.00    +0.000 A 
ATOM     18 CL   UNL     1      -5.746  11.084  17.854  0.00  0.00    +0.000 Cl
ATOM     19  C   UNL     1      -3.099  11.411  17.455  0.00  0.00    +0.000 A 
ATOM     20  C   UNL     1      -1.817  11.824  17.841  0.00  0.00    +0.000 A 
ENDBRANCH   4  14
BRANCH   1  22
ATOM     21  C   UNL     1       4.587  14.707  21.198  0.00  0.00    +0.000 C 
ATOM     22  C   UNL     1       3.526  14.367  20.756  0.00  0.00    +0.000 C 
BRANCH  21  23
ATOM     23  C   UNL     1       5.903  15.097  21.742  0.00  0.00    +0.000 C 
BRANCH  23  24
ATOM     24  N   UNL     1       6.588  13.902  22.246  0.00  0.00    +0.000 NA
ATOM     25  H   UNL     1       7.440  13.738  21.713  0.00  0.00    +0.000 HD
ATOM     26  H   UNL     1       5.997  13.084  22.107  0.00  0.00    +0.000 HD
ENDBRANCH  23  24
BRANCH  23  28
ATOM     27  C   UNL     1       4.944  15.639  24.100  0.00  0.00    +0.000 C 
ATOM     28  C   UNL     1       5.718  16.136  22.880  0.00  0.00    +0.000 C 
ENDBRANCH  23  28
BRANCH  23  29
ATOM     29  C   UNL     1       6.785  15.729  20.629  0.00  0.00    +0.000 C 
ATOM     30  C   UNL     1       7.288  14.758  19.561  0.00  0.00    +0.000 C 
ENDBRANCH  23  29
ENDBRANCH  21  23
ENDBRANCH   1  22
BRANCH   6  31
ATOM     31  C   UNL     1       2.176  15.659  18.509  0.00  0.00    +0.000 C 
ATOM     32  N   UNL     1       2.626  16.605  18.012  0.00  0.00    +0.000 NA
ENDBRANCH   6  31
TORSDOF 8
ENDMDL
MODEL 7
REMARK VINA RESULT:      -6.8      5.654      8.322
REMARK  Name = 
REMARK  10 active torsions:
REMARK  status: ('A' for Active; 'I' for Inactive)
REMARK    1  A    between atoms: C_1  and  C_2
REMARK    2  A    between atoms: C_2  and  C_3
REMARK    3  A    between atoms: C_3  and  N_4
REMARK    4  A    between atoms: C_3  and  C_5
REMARK    5  A    between atoms: C_3  and  C_29
REMARK    6  A    between atoms: C_6  and  C_7
REMARK    7  A    between atoms: C_9  and  C_10
REMARK    8  A    between atoms: C_17  and  C_18
REMARK    9  A    between atoms: C_26  and  C_27
REMARK   10  A    between atoms: C_29  and  C_30
REMARK                            x       y       z     vdW  Elec       q    Type
REMARK                         _______ _______ _______ _____ _____    ______ ____
ROOT
ATOM      1  C   UNL     1       2.434  13.914  20.189  0.00  0.00    +0.000 A 
ATOM      2  N   UNL     1       1.944  12.825  20.830  0.00  0.00    +0.000 NA
ATOM      3  C   UNL     1       0.711  12.335  20.490  0.00  0.00    +0.000 A 
ATOM      4  C   UNL     1      -0.068  12.936  19.463  0.00  0.00    +0.000 A 
ATOM      5  C   UNL     1       0.531  14.025  18.784  0.00  0.00    +0.000 A 
ATOM      6  C   UNL     1       1.788  14.522  19.138  0.00  0.00    +0.000 A 
ENDROOT
BRANCH   3   7
ATOM      7  C   UNL     1       0.338  11.106  21.265  0.00  0.00    +0.000 A 
ATOM      8  C   UNL     1       0.783   9.831  20.839  0.00  0.00    +0.000 A 
ATOM      9  C   UNL     1       0.396   8.645  21.473  0.00  0.00    +0.000 A 
ATOM     10  C   UNL     1      -0.369   8.696  22.627  0.00  0.00    +0.000 A 
ATOM     11  C   UNL     1      -0.772   9.932  23.122  0.00  0.00    +0.000 A 
ATOM     12  C   UNL     1      -0.451  11.121  22.442  0.00  0.00    +0.000 A 
ATOM     13 CL   UNL     1      -1.146  12.561  23.114  0.00  0.00    +0.000 Cl
ENDBRANCH   3   7
BRANCH   4  14
ATOM     14  C   UNL     1      -1.443  12.522  19.048  0.00  0.00    +0.000 A 
ATOM     15  C   UNL     1      -2.578  12.786  19.838  0.00  0.00    +0.000 A 
ATOM     16  C   UNL     1      -3.848  12.310  19.486  0.00  0.00    +0.000 A 
ATOM     17  C   UNL     1      -4.026  11.635  18.285  0.00  0.00    +0.000 A 
ATOM     18 CL   UNL     1      -5.589  11.075  17.835  0.00  0.00    +0.000 Cl
ATOM     19  C   UNL     1      -2.941  11.414  17.445  0.00  0.00    +0.000 A 
ATOM     20  C   UNL     1      -1.663  11.836  17.835  0.00  0.00    +0.000 A 
ENDBRANCH   4  14
BRANCH   1  22
ATOM     21  C   UNL     1       4.674  14.792  21.263  0.00  0.00    +0.000 C 
ATOM     22  C   UNL     1       3.656  14.428  20.744  0.00  0.00    +0.000 C 
BRANCH  21  23
ATOM     23  C   UNL     1       5.921  15.222  21.926  0.00  0.00    +0.000 C 
BRANCH  23  24
ATOM     24  N   UNL     1       5.813  14.964  23.366  0.00  0.00    +0.000 NA
ATOM     25  H   UNL     1       5.273  15.703  23.812  0.00  0.00    +0.000 HD
ATOM     26  H   UNL     1       6.739  14.985  23.789  0.00  0.00    +0.000 HD
ENDBRANCH  23  24
BRANCH  23  28
ATOM     27  C   UNL     1       7.408  17.057  20.833  0.00  0.00    +0.000 C 
ATOM     28  C   UNL     1       6.166  16.732  21.663  0.00  0.00    +0.000 C 
ENDBRANCH  23  28
BRANCH  23  29
ATOM     29  C   UNL     1       7.133  14.418  21.378  0.00  0.00    +0.000 C 
ATOM     30  C   UNL     1       7.934  13.645  22.427  0.00  0.00    +0.000 C 
ENDBRANCH  23  29
ENDBRANCH  21  23
ENDBRANCH   1  22
BRANCH   6  31
ATOM     31  C   UNL     1       2.357  15.618  18.412  0.00  0.00    +0.000 C 
ATOM     32  N   UNL     1       2.834  16.467  17.782  0.00  0.00    +0.000 NA
ENDBRANCH   6  31
TORSDOF 8
ENDMDL
MODEL 8
REMARK VINA RESULT:      -6.8      5.040      8.000
REMARK  Name = 
REMARK  10 active torsions:
REMARK  status: ('A' for Active; 'I' for Inactive)
REMARK    1  A    between atoms: C_1  and  C_2
REMARK    2  A    between atoms: C_2  and  C_3
REMARK    3  A    between atoms: C_3  and  N_4
REMARK    4  A    between atoms: C_3  and  C_5
REMARK    5  A    between atoms: C_3  and  C_29
REMARK    6  A    between atoms: C_6  and  C_7
REMARK    7  A    between atoms: C_9  and  C_10
REMARK    8  A    between atoms: C_17  and  C_18
REMARK    9  A    between atoms: C_26  and  C_27
REMARK   10  A    between atoms: C_29  and  C_30
REMARK                            x       y       z     vdW  Elec       q    Type
REMARK                         _______ _______ _______ _____ _____    ______ ____
ROOT
ATOM      1  C   UNL     1       2.267  13.903  20.233  0.00  0.00    +0.000 A 
ATOM      2  N   UNL     1       1.801  12.773  20.820  0.00  0.00    +0.000 NA
ATOM      3  C   UNL     1       0.573  12.282  20.469  0.00  0.00    +0.000 A 
ATOM      4  C   UNL     1      -0.229  12.924  19.485  0.00  0.00    +0.000 A 
ATOM      5  C   UNL     1       0.344  14.058  18.858  0.00  0.00    +0.000 A 
ATOM      6  C   UNL     1       1.598  14.556  19.223  0.00  0.00    +0.000 A 
ENDROOT
BRANCH   3   7
ATOM      7  C   UNL     1       0.228  11.007  21.181  0.00  0.00    +0.000 A 
ATOM      8  C   UNL     1      -0.382  11.047  22.458  0.00  0.00    +0.000 A 
ATOM      9  C   UNL     1      -0.648   9.893  23.204  0.00  0.00    +0.000 A 
ATOM     10  C   UNL     1      -0.410   8.644  22.653  0.00  0.00    +0.000 A 
ATOM     11  C   UNL     1       0.124   8.556  21.372  0.00  0.00    +0.000 A 
ATOM     12  C   UNL     1       0.466   9.715  20.652  0.00  0.00    +0.000 A 
ATOM     13 CL   UNL     1       1.249   9.430  19.130  0.00  0.00    +0.000 Cl
ENDBRANCH   3   7
BRANCH   4  14
ATOM     14  C   UNL     1      -1.602  12.511  19.064  0.00  0.00    +0.000 A 
ATOM     15  C   UNL     1      -2.739  12.768  19.853  0.00  0.00    +0.000 A 
ATOM     16  C   UNL     1      -4.008  12.292  19.495  0.00  0.00    +0.000 A 
ATOM     17  C   UNL     1      -4.182  11.625  18.289  0.00  0.00    +0.000 A 
ATOM     18 CL   UNL     1      -5.743  11.066  17.832  0.00  0.00    +0.000 Cl
ATOM     19  C   UNL     1      -3.095  11.411  17.450  0.00  0.00    +0.000 A 
ATOM     20  C   UNL     1      -1.819  11.833  17.845  0.00  0.00    +0.000 A 
ENDBRANCH   4  14
BRANCH   1  22
ATOM     21  C   UNL     1       4.547  14.761  21.237  0.00  0.00    +0.000 C 
ATOM     22  C   UNL     1       3.487  14.406  20.800  0.00  0.00    +0.000 C 
BRANCH  21  23
ATOM     23  C   UNL     1       5.862  15.169  21.768  0.00  0.00    +0.000 C 
BRANCH  23  24
ATOM     24  N   UNL     1       6.586  15.918  20.735  0.00  0.00    +0.000 NA
ATOM     25  H   UNL     1       7.547  15.588  20.676  0.00  0.00    +0.000 HD
ATOM     26  H   UNL     1       6.631  16.902  20.994  0.00  0.00    +0.000 HD
ENDBRANCH  23  24
BRANCH  23  28
ATOM     27  C   UNL     1       6.023  13.057  23.281  0.00  0.00    +0.000 C 
ATOM     28  C   UNL     1       6.672  13.916  22.195  0.00  0.00    +0.000 C 
ENDBRANCH  23  28
BRANCH  23  29
ATOM     29  C   UNL     1       5.686  16.093  23.005  0.00  0.00    +0.000 C 
ATOM     30  C   UNL     1       6.559  17.349  23.014  0.00  0.00    +0.000 C 
ENDBRANCH  23  29
ENDBRANCH  21  23
ENDBRANCH   1  22
BRANCH   6  31
ATOM     31  C   UNL     1       2.140  15.698  18.551  0.00  0.00    +0.000 C 
ATOM     32  N   UNL     1       2.634  16.607  18.027  0.00  0.00    +0.000 NA
ENDBRANCH   6  31
TORSDOF 8
ENDMDL
MODEL 9
REMARK VINA RESULT:      -6.8      4.773      7.873
REMARK  Name = 
REMARK  10 active torsions:
REMARK  status: ('A' for Active; 'I' for Inactive)
REMARK    1  A    between atoms: C_1  and  C_2
REMARK    2  A    between atoms: C_2  and  C_3
REMARK    3  A    between atoms: C_3  and  N_4
REMARK    4  A    between atoms: C_3  and  C_5
REMARK    5  A    between atoms: C_3  and  C_29
REMARK    6  A    between atoms: C_6  and  C_7
REMARK    7  A    between atoms: C_9  and  C_10
REMARK    8  A    between atoms: C_17  and  C_18
REMARK    9  A    between atoms: C_26  and  C_27
REMARK   10  A    between atoms: C_29  and  C_30
REMARK                            x       y       z     vdW  Elec       q    Type
REMARK                         _______ _______ _______ _____ _____    ______ ____
ROOT
ATOM      1  C   UNL     1      -2.958  13.054  20.625  0.00  0.00    +0.000 A 
ATOM      2  N   UNL     1      -2.112  12.025  20.369  0.00  0.00    +0.000 NA
ATOM      3  C   UNL     1      -0.779  12.274  20.180  0.00  0.00    +0.000 A 
ATOM      4  C   UNL     1      -0.252  13.592  20.260  0.00  0.00    +0.000 A 
ATOM      5  C   UNL     1      -1.174  14.612  20.601  0.00  0.00    +0.000 A 
ATOM      6  C   UNL     1      -2.534  14.352  20.790  0.00  0.00    +0.000 A 
ENDROOT
BRANCH   3   7
ATOM      7  C   UNL     1       0.020  11.025  19.948  0.00  0.00    +0.000 A 
ATOM      8  C   UNL     1       0.495  10.713  18.651  0.00  0.00    +0.000 A 
ATOM      9  C   UNL     1       1.171   9.523  18.361  0.00  0.00    +0.000 A 
ATOM     10  C   UNL     1       1.493   8.644  19.382  0.00  0.00    +0.000 A 
ATOM     11  C   UNL     1       1.107   8.944  20.685  0.00  0.00    +0.000 A 
ATOM     12  C   UNL     1       0.358  10.101  20.966  0.00  0.00    +0.000 A 
ATOM     13 CL   UNL     1      -0.161  10.255  22.615  0.00  0.00    +0.000 Cl
ENDBRANCH   3   7
BRANCH   4  14
ATOM     14  C   UNL     1       1.170  13.986  20.019  0.00  0.00    +0.000 A 
ATOM     15  C   UNL     1       1.651  14.313  18.737  0.00  0.00    +0.000 A 
ATOM     16  C   UNL     1       3.006  14.588  18.506  0.00  0.00    +0.000 A 
ATOM     17  C   UNL     1       3.896  14.630  19.572  0.00  0.00    +0.000 A 
ATOM     18 CL   UNL     1       5.553  14.995  19.297  0.00  0.00    +0.000 Cl
ATOM     19  C   UNL     1       3.445  14.378  20.863  0.00  0.00    +0.000 A 
ATOM     20  C   UNL     1       2.102  14.041  21.077  0.00  0.00    +0.000 A 
ENDBRANCH   4  14
BRANCH   1  22
ATOM     21  C   UNL     1      -5.495  12.355  20.733  0.00  0.00    +0.000 C 
ATOM     22  C   UNL     1      -4.347  12.689  20.640  0.00  0.00    +0.000 C 
BRANCH  21  23
ATOM     23  C   UNL     1      -6.901  11.927  20.872  0.00  0.00    +0.000 C 
BRANCH  23  24
ATOM     24  N   UNL     1      -7.184  11.657  22.286  0.00  0.00    +0.000 NA
ATOM     25  H   UNL     1      -8.043  12.126  22.564  0.00  0.00    +0.000 HD
ATOM     26  H   UNL     1      -6.440  12.044  22.864  0.00  0.00    +0.000 HD
ENDBRANCH  23  24
BRANCH  23  28
ATOM     27  C   UNL     1      -6.750  10.767  18.547  0.00  0.00    +0.000 C 
ATOM     28  C   UNL     1      -7.154  10.657  20.017  0.00  0.00    +0.000 C 
ENDBRANCH  23  28
BRANCH  23  29
ATOM     29  C   UNL     1      -7.862  13.050  20.390  0.00  0.00    +0.000 C 
ATOM     30  C   UNL     1      -7.585  14.439  20.966  0.00  0.00    +0.000 C 
ENDBRANCH  23  29
ENDBRANCH  21  23
ENDBRANCH   1  22
BRANCH   6  31
ATOM     31  C   UNL     1      -3.425  15.416  21.145  0.00  0.00    +0.000 C 
ATOM     32  N   UNL     1      -4.139  16.299  21.377  0.00  0.00    +0.000 NA
ENDBRANCH   6  31
TORSDOF 8
ENDMDL
