MODEL 1
REMARK VINA RESULT:      -7.8      0.000      0.000
REMARK  Name = 
REMARK  7 active torsions:
REMARK  status: ('A' for Active; 'I' for Inactive)
REMARK    1  A    between atoms: C_1  and  O_2
REMARK    2  A    between atoms: O_2  and  C_3
REMARK    3  A    between atoms: C_7  and  C_8
REMARK    4  A    between atoms: C_19  and  C_20
REMARK    5  A    between atoms: C_19  and  C_21
REMARK    6  A    between atoms: C_25  and  O_26
REMARK    7  A    between atoms: O_26  and  C_27
REMARK                            x       y       z     vdW  Elec       q    Type
REMARK                         _______ _______ _______ _____ _____    ______ ____
ROOT
ATOM      1  C   UNL     1       1.559   9.780  18.381  0.00  0.00    +0.000 C 
ATOM      2  N   UNL     1       2.333  10.814  18.464  0.00  0.00    +0.000 NA
ATOM      3  C   UNL     1       1.799  12.047  18.468  0.00  0.00    +0.000 A 
ATOM      4  N   UNL     1       2.441  13.144  18.175  0.00  0.00    +0.000 NA
ATOM      5  C   UNL     1       1.612  14.157  18.535  0.00  0.00    +0.000 A 
ATOM      6  C   UNL     1       1.895  15.528  18.476  0.00  0.00    +0.000 A 
ATOM      7  C   UNL     1       0.942  16.422  18.953  0.00  0.00    +0.000 A 
ATOM      8  C   UNL     1      -0.265  15.946  19.469  0.00  0.00    +0.000 A 
ATOM      9  C   UNL     1      -0.575  14.572  19.511  0.00  0.00    +0.000 A 
ATOM     10  C   UNL     1       0.395  13.680  19.025  0.00  0.00    +0.000 A 
ATOM     11  N   UNL     1       0.498  12.312  18.880  0.00  0.00    +0.000 N 
ATOM     12  C   UNL     1      -0.442  11.191  19.114  0.00  0.00    +0.000 C 
ATOM     13  C   UNL     1      -0.314  10.687  20.575  0.00  0.00    +0.000 C 
ATOM     14  C   UNL     1       0.065  10.002  18.259  0.00  0.00    +0.000 C 
ATOM     15  O   UNL     1      -0.599   9.289  17.521  0.00  0.00    +0.000 OA
ENDROOT
BRANCH   1  20
ATOM     16  C   UNL     1       2.366   6.378  19.796  0.00  0.00    +0.000 A 
ATOM     17  C   UNL     1       3.301   5.901  18.881  0.00  0.00    +0.000 A 
ATOM     18  C   UNL     1       3.672   6.672  17.773  0.00  0.00    +0.000 A 
ATOM     19  C   UNL     1       3.119   7.941  17.574  0.00  0.00    +0.000 A 
ATOM     20  C   UNL     1       2.193   8.437  18.487  0.00  0.00    +0.000 A 
ATOM     21  C   UNL     1       1.809   7.636  19.588  0.00  0.00    +0.000 A 
BRANCH  16  23
ATOM     22  C   UNL     1       1.333   4.369  20.571  0.00  0.00    +0.000 C 
ATOM     23  O   UNL     1       2.090   5.545  20.846  0.00  0.00    +0.000 OA
ENDBRANCH  16  23
ENDBRANCH   1  20
BRANCH  12  24
ATOM     24  C   UNL     1      -1.911  11.530  18.741  0.00  0.00    +0.000 A 
ATOM     25  C   UNL     1      -2.839  12.021  19.686  0.00  0.00    +0.000 A 
ATOM     26  C   UNL     1      -4.180  12.237  19.355  0.00  0.00    +0.000 A 
ATOM     27  C   UNL     1      -4.632  11.965  18.070  0.00  0.00    +0.000 A 
ATOM     28  C   UNL     1      -3.748  11.468  17.114  0.00  0.00    +0.000 A 
ATOM     29  C   UNL     1      -2.399  11.272  17.440  0.00  0.00    +0.000 A 
BRANCH  28  30
ATOM     30  O   UNL     1      -4.310  11.229  15.887  0.00  0.00    +0.000 OA
ATOM     31  C   UNL     1      -3.484  10.534  14.959  0.00  0.00    +0.000 C 
ENDBRANCH  28  30
ENDBRANCH  12  24
TORSDOF 4
ENDMDL
MODEL 2
REMARK VINA RESULT:      -7.6      0.994      1.554
REMARK  Name = 
REMARK  7 active torsions:
REMARK  status: ('A' for Active; 'I' for Inactive)
REMARK    1  A    between atoms: C_1  and  O_2
REMARK    2  A    between atoms: O_2  and  C_3
REMARK    3  A    between atoms: C_7  and  C_8
REMARK    4  A    between atoms: C_19  and  C_20
REMARK    5  A    between atoms: C_19  and  C_21
REMARK    6  A    between atoms: C_25  and  O_26
REMARK    7  A    between atoms: O_26  and  C_27
REMARK                            x       y       z     vdW  Elec       q    Type
REMARK                         _______ _______ _______ _____ _____    ______ ____
ROOT
ATOM      1  C   UNL     1       1.508   9.804  18.491  0.00  0.00    +0.000 C 
ATOM      2  N   UNL     1       2.265  10.848  18.598  0.00  0.00    +0.000 NA
ATOM      3  C   UNL     1       1.716  12.074  18.559  0.00  0.00    +0.000 A 
ATOM      4  N   UNL     1       2.360  13.175  18.283  0.00  0.00    +0.000 NA
ATOM      5  C   UNL     1       1.503  14.183  18.588  0.00  0.00    +0.000 A 
ATOM      6  C   UNL     1       1.772  15.556  18.524  0.00  0.00    +0.000 A 
ATOM      7  C   UNL     1       0.786  16.444  18.940  0.00  0.00    +0.000 A 
ATOM      8  C   UNL     1      -0.440  15.961  19.401  0.00  0.00    +0.000 A 
ATOM      9  C   UNL     1      -0.736  14.584  19.447  0.00  0.00    +0.000 A 
ATOM     10  C   UNL     1       0.268  13.697  19.022  0.00  0.00    +0.000 A 
ATOM     11  N   UNL     1       0.394  12.329  18.902  0.00  0.00    +0.000 N 
ATOM     12  C   UNL     1      -0.543  11.200  19.103  0.00  0.00    +0.000 C 
ATOM     13  C   UNL     1      -0.484  10.717  20.576  0.00  0.00    +0.000 C 
ATOM     14  C   UNL     1       0.019  10.006  18.292  0.00  0.00    +0.000 C 
ATOM     15  O   UNL     1      -0.599   9.276  17.530  0.00  0.00    +0.000 OA
ENDROOT
BRANCH   1  20
ATOM     16  C   UNL     1       3.664   6.824  17.656  0.00  0.00    +0.000 A 
ATOM     17  C   UNL     1       3.424   5.983  18.740  0.00  0.00    +0.000 A 
ATOM     18  C   UNL     1       2.569   6.380  19.775  0.00  0.00    +0.000 A 
ATOM     19  C   UNL     1       1.931   7.624  19.731  0.00  0.00    +0.000 A 
ATOM     20  C   UNL     1       2.151   8.470  18.647  0.00  0.00    +0.000 A 
ATOM     21  C   UNL     1       3.036   8.065  17.622  0.00  0.00    +0.000 A 
BRANCH  16  23
ATOM     22  C   UNL     1       4.869   4.952  16.794  0.00  0.00    +0.000 C 
ATOM     23  O   UNL     1       4.505   6.326  16.698  0.00  0.00    +0.000 OA
ENDBRANCH  16  23
ENDBRANCH   1  20
BRANCH  12  24
ATOM     24  C   UNL     1      -1.996  11.516  18.653  0.00  0.00    +0.000 A 
ATOM     25  C   UNL     1      -2.983  11.985  19.548  0.00  0.00    +0.000 A 
ATOM     26  C   UNL     1      -4.307  12.180  19.146  0.00  0.00    +0.000 A 
ATOM     27  C   UNL     1      -4.683  11.908  17.837  0.00  0.00    +0.000 A 
ATOM     28  C   UNL     1      -3.741  11.433  16.927  0.00  0.00    +0.000 A 
ATOM     29  C   UNL     1      -2.408  11.258  17.325  0.00  0.00    +0.000 A 
BRANCH  28  30
ATOM     30  O   UNL     1      -4.230  11.192  15.670  0.00  0.00    +0.000 OA
ATOM     31  C   UNL     1      -3.412  10.377  14.838  0.00  0.00    +0.000 C 
ENDBRANCH  28  30
ENDBRANCH  12  24
TORSDOF 4
ENDMDL
MODEL 3
REMARK VINA RESULT:      -7.5      7.569      9.701
REMARK  Name = 
REMARK  7 active torsions:
REMARK  status: ('A' for Active; 'I' for Inactive)
REMARK    1  A    between atoms: C_1  and  O_2
REMARK    2  A    between atoms: O_2  and  C_3
REMARK    3  A    between atoms: C_7  and  C_8
REMARK    4  A    between atoms: C_19  and  C_20
REMARK    5  A    between atoms: C_19  and  C_21
REMARK    6  A    between atoms: C_25  and  O_26
REMARK    7  A    between atoms: O_26  and  C_27
REMARK                            x       y       z     vdW  Elec       q    Type
REMARK                         _______ _______ _______ _____ _____    ______ ____
ROOT
ATOM      1  C   UNL     1       7.457  12.294  23.140  0.00  0.00    +0.000 C 
ATOM      2  N   UNL     1       8.358  11.535  22.605  0.00  0.00    +0.000 NA
ATOM      3  C   UNL     1       8.853  11.842  21.394  0.00  0.00    +0.000 A 
ATOM      4  N   UNL     1       9.459  11.005  20.598  0.00  0.00    +0.000 NA
ATOM      5  C   UNL     1      10.001  11.768  19.613  0.00  0.00    +0.000 A 
ATOM      6  C   UNL     1      10.808  11.321  18.560  0.00  0.00    +0.000 A 
ATOM      7  C   UNL     1      11.330  12.263  17.679  0.00  0.00    +0.000 A 
ATOM      8  C   UNL     1      11.038  13.617  17.852  0.00  0.00    +0.000 A 
ATOM      9  C   UNL     1      10.206  14.080  18.892  0.00  0.00    +0.000 A 
ATOM     10  C   UNL     1       9.684  13.118  19.773  0.00  0.00    +0.000 A 
ATOM     11  N   UNL     1       8.858  13.132  20.878  0.00  0.00    +0.000 N 
ATOM     12  C   UNL     1       8.090  14.200  21.559  0.00  0.00    +0.000 C 
ATOM     13  C   UNL     1       8.966  14.869  22.651  0.00  0.00    +0.000 C 
ATOM     14  C   UNL     1       6.965  13.496  22.358  0.00  0.00    +0.000 C 
ATOM     15  O   UNL     1       5.781  13.798  22.386  0.00  0.00    +0.000 OA
ENDROOT
BRANCH   1  20
ATOM     16  C   UNL     1       5.283  10.950  25.914  0.00  0.00    +0.000 A 
ATOM     17  C   UNL     1       6.010  11.306  27.046  0.00  0.00    +0.000 A 
ATOM     18  C   UNL     1       7.234  11.975  26.927  0.00  0.00    +0.000 A 
ATOM     19  C   UNL     1       7.741  12.308  25.667  0.00  0.00    +0.000 A 
ATOM     20  C   UNL     1       7.019  11.970  24.526  0.00  0.00    +0.000 A 
ATOM     21  C   UNL     1       5.796  11.273  24.661  0.00  0.00    +0.000 A 
BRANCH  16  23
ATOM     22  C   UNL     1       3.903   9.741  27.442  0.00  0.00    +0.000 C 
ATOM     23  O   UNL     1       4.095  10.313  26.151  0.00  0.00    +0.000 OA
ENDBRANCH  16  23
ENDBRANCH   1  20
BRANCH  12  24
ATOM     24  C   UNL     1       7.481  15.242  20.582  0.00  0.00    +0.000 A 
ATOM     25  C   UNL     1       7.731  16.628  20.699  0.00  0.00    +0.000 A 
ATOM     26  C   UNL     1       7.105  17.560  19.866  0.00  0.00    +0.000 A 
ATOM     27  C   UNL     1       6.209  17.133  18.895  0.00  0.00    +0.000 A 
ATOM     28  C   UNL     1       5.927  15.775  18.758  0.00  0.00    +0.000 A 
ATOM     29  C   UNL     1       6.571  14.839  19.578  0.00  0.00    +0.000 A 
BRANCH  28  30
ATOM     30  O   UNL     1       5.021  15.476  17.774  0.00  0.00    +0.000 OA
ATOM     31  C   UNL     1       3.908  14.689  18.183  0.00  0.00    +0.000 C 
ENDBRANCH  28  30
ENDBRANCH  12  24
TORSDOF 4
ENDMDL
MODEL 4
REMARK VINA RESULT:      -7.5      3.504      6.562
REMARK  Name = 
REMARK  7 active torsions:
REMARK  status: ('A' for Active; 'I' for Inactive)
REMARK    1  A    between atoms: C_1  and  O_2
REMARK    2  A    between atoms: O_2  and  C_3
REMARK    3  A    between atoms: C_7  and  C_8
REMARK    4  A    between atoms: C_19  and  C_20
REMARK    5  A    between atoms: C_19  and  C_21
REMARK    6  A    between atoms: C_25  and  O_26
REMARK    7  A    between atoms: O_26  and  C_27
REMARK                            x       y       z     vdW  Elec       q    Type
REMARK                         _______ _______ _______ _____ _____    ______ ____
ROOT
ATOM      1  C   UNL     1       0.706  13.101  20.790  0.00  0.00    +0.000 C 
ATOM      2  N   UNL     1      -0.252  13.806  20.280  0.00  0.00    +0.000 NA
ATOM      3  C   UNL     1       0.033  14.952  19.638  0.00  0.00    +0.000 A 
ATOM      4  N   UNL     1      -0.816  15.917  19.414  0.00  0.00    +0.000 NA
ATOM      5  C   UNL     1      -0.193  16.753  18.544  0.00  0.00    +0.000 A 
ATOM      6  C   UNL     1      -0.738  17.902  17.956  0.00  0.00    +0.000 A 
ATOM      7  C   UNL     1       0.032  18.601  17.033  0.00  0.00    +0.000 A 
ATOM      8  C   UNL     1       1.318  18.159  16.718  0.00  0.00    +0.000 A 
ATOM      9  C   UNL     1       1.890  17.020  17.321  0.00  0.00    +0.000 A 
ATOM     10  C   UNL     1       1.102  16.324  18.253  0.00  0.00    +0.000 A 
ATOM     11  N   UNL     1       1.264  15.208  19.048  0.00  0.00    +0.000 N 
ATOM     12  C   UNL     1       2.408  14.305  19.312  0.00  0.00    +0.000 C 
ATOM     13  C   UNL     1       2.409  13.137  18.292  0.00  0.00    +0.000 C 
ATOM     14  C   UNL     1       2.126  13.618  20.672  0.00  0.00    +0.000 C 
ATOM     15  O   UNL     1       2.901  13.489  21.608  0.00  0.00    +0.000 OA
ENDROOT
BRANCH   1  20
ATOM     16  C   UNL     1       0.699   9.371  21.342  0.00  0.00    +0.000 A 
ATOM     17  C   UNL     1      -0.222   9.235  22.377  0.00  0.00    +0.000 A 
ATOM     18  C   UNL     1      -0.846  10.361  22.928  0.00  0.00    +0.000 A 
ATOM     19  C   UNL     1      -0.562  11.640  22.440  0.00  0.00    +0.000 A 
ATOM     20  C   UNL     1       0.348  11.790  21.397  0.00  0.00    +0.000 A 
ATOM     21  C   UNL     1       0.988  10.646  20.867  0.00  0.00    +0.000 A 
BRANCH  16  23
ATOM     22  C   UNL     1       1.833   8.228  19.578  0.00  0.00    +0.000 C 
ATOM     23  O   UNL     1       1.235   8.202  20.872  0.00  0.00    +0.000 OA
ENDBRANCH  16  23
ENDBRANCH   1  20
BRANCH  12  24
ATOM     24  C   UNL     1       3.776  15.039  19.357  0.00  0.00    +0.000 A 
ATOM     25  C   UNL     1       4.020  16.138  20.211  0.00  0.00    +0.000 A 
ATOM     26  C   UNL     1       5.227  16.843  20.176  0.00  0.00    +0.000 A 
ATOM     27  C   UNL     1       6.223  16.471  19.283  0.00  0.00    +0.000 A 
ATOM     28  C   UNL     1       6.015  15.399  18.416  0.00  0.00    +0.000 A 
ATOM     29  C   UNL     1       4.814  14.680  18.466  0.00  0.00    +0.000 A 
BRANCH  28  30
ATOM     30  O   UNL     1       7.064  15.132  17.576  0.00  0.00    +0.000 OA
ATOM     31  C   UNL     1       8.288  15.787  17.893  0.00  0.00    +0.000 C 
ENDBRANCH  28  30
ENDBRANCH  12  24
TORSDOF 4
ENDMDL
MODEL 5
REMARK VINA RESULT:      -7.5      3.495      8.887
REMARK  Name = 
REMARK  7 active torsions:
REMARK  status: ('A' for Active; 'I' for Inactive)
REMARK    1  A    between atoms: C_1  and  O_2
REMARK    2  A    between atoms: O_2  and  C_3
REMARK    3  A    between atoms: C_7  and  C_8
REMARK    4  A    between atoms: C_19  and  C_20
REMARK    5  A    between atoms: C_19  and  C_21
REMARK    6  A    between atoms: C_25  and  O_26
REMARK    7  A    between atoms: O_26  and  C_27
REMARK                            x       y       z     vdW  Elec       q    Type
REMARK                         _______ _______ _______ _____ _____    ______ ____
ROOT
ATOM      1  C   UNL     1       2.311   7.901  18.796  0.00  0.00    +0.000 C 
ATOM      2  N   UNL     1       3.250   8.165  17.946  0.00  0.00    +0.000 NA
ATOM      3  C   UNL     1       4.064   7.182  17.526  0.00  0.00    +0.000 A 
ATOM      4  N   UNL     1       5.240   7.361  16.989  0.00  0.00    +0.000 NA
ATOM      5  C   UNL     1       5.604   6.147  16.500  0.00  0.00    +0.000 A 
ATOM      6  C   UNL     1       6.763   5.854  15.772  0.00  0.00    +0.000 A 
ATOM      7  C   UNL     1       6.935   4.560  15.293  0.00  0.00    +0.000 A 
ATOM      8  C   UNL     1       5.968   3.586  15.549  0.00  0.00    +0.000 A 
ATOM      9  C   UNL     1       4.808   3.859  16.302  0.00  0.00    +0.000 A 
ATOM     10  C   UNL     1       4.647   5.170  16.781  0.00  0.00    +0.000 A 
ATOM     11  N   UNL     1       3.704   5.840  17.532  0.00  0.00    +0.000 N 
ATOM     12  C   UNL     1       2.472   5.413  18.234  0.00  0.00    +0.000 C 
ATOM     13  C   UNL     1       1.256   5.508  17.277  0.00  0.00    +0.000 C 
ATOM     14  C   UNL     1       2.184   6.483  19.317  0.00  0.00    +0.000 C 
ATOM     15  O   UNL     1       1.906   6.288  20.491  0.00  0.00    +0.000 OA
ENDROOT
BRANCH   1  20
ATOM     16  C   UNL     1       0.461  10.390  20.942  0.00  0.00    +0.000 A 
ATOM     17  C   UNL     1      -0.358  11.020  20.009  0.00  0.00    +0.000 A 
ATOM     18  C   UNL     1      -0.310  10.659  18.658  0.00  0.00    +0.000 A 
ATOM     19  C   UNL     1       0.554   9.649  18.224  0.00  0.00    +0.000 A 
ATOM     20  C   UNL     1       1.371   9.001  19.147  0.00  0.00    +0.000 A 
ATOM     21  C   UNL     1       1.328   9.394  20.504  0.00  0.00    +0.000 A 
BRANCH  16  23
ATOM     22  C   UNL     1      -0.775  10.288  22.982  0.00  0.00    +0.000 C 
ATOM     23  O   UNL     1       0.319  10.815  22.235  0.00  0.00    +0.000 OA
ENDBRANCH  16  23
ENDBRANCH   1  20
BRANCH  12  24
ATOM     24  C   UNL     1       2.590   4.009  18.888  0.00  0.00    +0.000 A 
ATOM     25  C   UNL     1       1.559   3.046  18.806  0.00  0.00    +0.000 A 
ATOM     26  C   UNL     1       1.644   1.820  19.474  0.00  0.00    +0.000 A 
ATOM     27  C   UNL     1       2.760   1.525  20.246  0.00  0.00    +0.000 A 
ATOM     28  C   UNL     1       3.792   2.455  20.360  0.00  0.00    +0.000 A 
ATOM     29  C   UNL     1       3.717   3.674  19.673  0.00  0.00    +0.000 A 
BRANCH  28  30
ATOM     30  O   UNL     1       4.836   2.056  21.153  0.00  0.00    +0.000 OA
ATOM     31  C   UNL     1       5.359   0.762  20.875  0.00  0.00    +0.000 C 
ENDBRANCH  28  30
ENDBRANCH  12  24
TORSDOF 4
ENDMDL
MODEL 6
REMARK VINA RESULT:      -7.5      2.741      4.689
REMARK  Name = 
REMARK  7 active torsions:
REMARK  status: ('A' for Active; 'I' for Inactive)
REMARK    1  A    between atoms: C_1  and  O_2
REMARK    2  A    between atoms: O_2  and  C_3
REMARK    3  A    between atoms: C_7  and  C_8
REMARK    4  A    between atoms: C_19  and  C_20
REMARK    5  A    between atoms: C_19  and  C_21
REMARK    6  A    between atoms: C_25  and  O_26
REMARK    7  A    between atoms: O_26  and  C_27
REMARK                            x       y       z     vdW  Elec       q    Type
REMARK                         _______ _______ _______ _____ _____    ______ ____
ROOT
ATOM      1  C   UNL     1       0.625  10.458  20.299  0.00  0.00    +0.000 C 
ATOM      2  N   UNL     1      -0.267  10.184  21.196  0.00  0.00    +0.000 NA
ATOM      3  C   UNL     1      -0.958  11.181  21.773  0.00  0.00    +0.000 A 
ATOM      4  N   UNL     1      -1.589  11.095  22.912  0.00  0.00    +0.000 NA
ATOM      5  C   UNL     1      -2.337  12.225  23.000  0.00  0.00    +0.000 A 
ATOM      6  C   UNL     1      -3.241  12.551  24.018  0.00  0.00    +0.000 A 
ATOM      7  C   UNL     1      -3.971  13.729  23.904  0.00  0.00    +0.000 A 
ATOM      8  C   UNL     1      -3.788  14.560  22.797  0.00  0.00    +0.000 A 
ATOM      9  C   UNL     1      -2.863  14.259  21.776  0.00  0.00    +0.000 A 
ATOM     10  C   UNL     1      -2.131  13.066  21.905  0.00  0.00    +0.000 A 
ATOM     11  N   UNL     1      -1.160  12.417  21.171  0.00  0.00    +0.000 N 
ATOM     12  C   UNL     1      -0.408  12.768  19.944  0.00  0.00    +0.000 C 
ATOM     13  C   UNL     1      -1.178  12.276  18.690  0.00  0.00    +0.000 C 
ATOM     14  C   UNL     1       0.882  11.911  19.954  0.00  0.00    +0.000 C 
ATOM     15  O   UNL     1       2.024  12.295  19.744  0.00  0.00    +0.000 OA
ENDROOT
BRANCH   1  20
ATOM     16  C   UNL     1       2.151   7.038  19.853  0.00  0.00    +0.000 A 
ATOM     17  C   UNL     1       2.549   7.073  18.519  0.00  0.00    +0.000 A 
ATOM     18  C   UNL     1       2.310   8.206  17.733  0.00  0.00    +0.000 A 
ATOM     19  C   UNL     1       1.678   9.328  18.279  0.00  0.00    +0.000 A 
ATOM     20  C   UNL     1       1.286   9.313  19.614  0.00  0.00    +0.000 A 
ATOM     21  C   UNL     1       1.512   8.151  20.389  0.00  0.00    +0.000 A 
BRANCH  16  23
ATOM     22  C   UNL     1       1.616   4.753  20.292  0.00  0.00    +0.000 C 
ATOM     23  O   UNL     1       2.449   5.885  20.528  0.00  0.00    +0.000 OA
ENDBRANCH  16  23
ENDBRANCH   1  20
BRANCH  12  24
ATOM     24  C   UNL     1      -0.049  14.276  19.851  0.00  0.00    +0.000 A 
ATOM     25  C   UNL     1       0.635  14.958  20.883  0.00  0.00    +0.000 A 
ATOM     26  C   UNL     1       0.873  16.335  20.822  0.00  0.00    +0.000 A 
ATOM     27  C   UNL     1       0.430  17.069  19.730  0.00  0.00    +0.000 A 
ATOM     28  C   UNL     1      -0.258  16.433  18.698  0.00  0.00    +0.000 A 
ATOM     29  C   UNL     1      -0.478  15.050  18.749  0.00  0.00    +0.000 A 
BRANCH  28  30
ATOM     30  O   UNL     1      -0.653  17.261  17.679  0.00  0.00    +0.000 OA
ATOM     31  C   UNL     1       0.230  18.340  17.388  0.00  0.00    +0.000 C 
ENDBRANCH  28  30
ENDBRANCH  12  24
TORSDOF 4
ENDMDL
MODEL 7
REMARK VINA RESULT:      -7.4      1.360      1.756
REMARK  Name = 
REMARK  7 active torsions:
REMARK  status: ('A' for Active; 'I' for Inactive)
REMARK    1  A    between atoms: C_1  and  O_2
REMARK    2  A    between atoms: O_2  and  C_3
REMARK    3  A    between atoms: C_7  and  C_8
REMARK    4  A    between atoms: C_19  and  C_20
REMARK    5  A    between atoms: C_19  and  C_21
REMARK    6  A    between atoms: C_25  and  O_26
REMARK    7  A    between atoms: O_26  and  C_27
REMARK                            x       y       z     vdW  Elec       q    Type
REMARK                         _______ _______ _______ _____ _____    ______ ____
ROOT
ATOM      1  C   UNL     1       0.820  10.655  18.979  0.00  0.00    +0.000 C 
ATOM      2  N   UNL     1       1.541  11.709  18.771  0.00  0.00    +0.000 NA
ATOM      3  C   UNL     1       1.005  12.928  18.948  0.00  0.00    +0.000 A 
ATOM      4  N   UNL     1       1.470  14.034  18.435  0.00  0.00    +0.000 NA
ATOM      5  C   UNL     1       0.789  15.035  19.051  0.00  0.00    +0.000 A 
ATOM      6  C   UNL     1       0.991  16.410  18.880  0.00  0.00    +0.000 A 
ATOM      7  C   UNL     1       0.240  17.291  19.650  0.00  0.00    +0.000 A 
ATOM      8  C   UNL     1      -0.695  16.798  20.562  0.00  0.00    +0.000 A 
ATOM      9  C   UNL     1      -0.928  15.417  20.728  0.00  0.00    +0.000 A 
ATOM     10  C   UNL     1      -0.163  14.538  19.942  0.00  0.00    +0.000 A 
ATOM     11  N   UNL     1      -0.076  13.170  19.788  0.00  0.00    +0.000 N 
ATOM     12  C   UNL     1      -0.839  12.033  20.350  0.00  0.00    +0.000 C 
ATOM     13  C   UNL     1      -0.192  11.564  21.679  0.00  0.00    +0.000 C 
ATOM     14  C   UNL     1      -0.629  10.838  19.387  0.00  0.00    +0.000 C 
ATOM     15  O   UNL     1      -1.487  10.093  18.937  0.00  0.00    +0.000 OA
ENDROOT
BRANCH   1  20
ATOM     16  C   UNL     1       1.960   7.203  19.983  0.00  0.00    +0.000 A 
ATOM     17  C   UNL     1       2.709   6.815  18.876  0.00  0.00    +0.000 A 
ATOM     18  C   UNL     1       2.840   7.664  17.770  0.00  0.00    +0.000 A 
ATOM     19  C   UNL     1       2.232   8.922  17.766  0.00  0.00    +0.000 A 
ATOM     20  C   UNL     1       1.491   9.330  18.871  0.00  0.00    +0.000 A 
ATOM     21  C   UNL     1       1.346   8.452  19.970  0.00  0.00    +0.000 A 
BRANCH  16  23
ATOM     22  C   UNL     1       1.919   4.916  20.667  0.00  0.00    +0.000 C 
ATOM     23  O   UNL     1       1.912   6.299  21.010  0.00  0.00    +0.000 OA
ENDBRANCH  16  23
ENDBRANCH   1  20
BRANCH  12  24
ATOM     24  C   UNL     1      -2.356  12.328  20.513  0.00  0.00    +0.000 A 
ATOM     25  C   UNL     1      -2.951  12.562  21.772  0.00  0.00    +0.000 A 
ATOM     26  C   UNL     1      -4.332  12.738  21.911  0.00  0.00    +0.000 A 
ATOM     27  C   UNL     1      -5.155  12.681  20.794  0.00  0.00    +0.000 A 
ATOM     28  C   UNL     1      -4.605  12.440  19.537  0.00  0.00    +0.000 A 
ATOM     29  C   UNL     1      -3.220  12.285  19.395  0.00  0.00    +0.000 A 
BRANCH  28  30
ATOM     30  O   UNL     1      -5.516  12.397  18.513  0.00  0.00    +0.000 OA
ATOM     31  C   UNL     1      -5.039  11.847  17.290  0.00  0.00    +0.000 C 
ENDBRANCH  28  30
ENDBRANCH  12  24
TORSDOF 4
ENDMDL
MODEL 8
REMARK VINA RESULT:      -7.3      2.183      2.979
REMARK  Name = 
REMARK  7 active torsions:
REMARK  status: ('A' for Active; 'I' for Inactive)
REMARK    1  A    between atoms: C_1  and  O_2
REMARK    2  A    between atoms: O_2  and  C_3
REMARK    3  A    between atoms: C_7  and  C_8
REMARK    4  A    between atoms: C_19  and  C_20
REMARK    5  A    between atoms: C_19  and  C_21
REMARK    6  A    between atoms: C_25  and  O_26
REMARK    7  A    between atoms: O_26  and  C_27
REMARK                            x       y       z     vdW  Elec       q    Type
REMARK                         _______ _______ _______ _____ _____    ______ ____
ROOT
ATOM      1  C   UNL     1       0.881  10.629  19.084  0.00  0.00    +0.000 C 
ATOM      2  N   UNL     1       1.581  11.690  18.840  0.00  0.00    +0.000 NA
ATOM      3  C   UNL     1       1.061  12.903  19.090  0.00  0.00    +0.000 A 
ATOM      4  N   UNL     1       1.480  14.022  18.565  0.00  0.00    +0.000 NA
ATOM      5  C   UNL     1       0.853  15.006  19.259  0.00  0.00    +0.000 A 
ATOM      6  C   UNL     1       1.039  16.386  19.103  0.00  0.00    +0.000 A 
ATOM      7  C   UNL     1       0.355  17.246  19.954  0.00  0.00    +0.000 A 
ATOM      8  C   UNL     1      -0.499  16.730  20.931  0.00  0.00    +0.000 A 
ATOM      9  C   UNL     1      -0.716  15.346  21.084  0.00  0.00    +0.000 A 
ATOM     10  C   UNL     1      -0.020  14.487  20.216  0.00  0.00    +0.000 A 
ATOM     11  N   UNL     1       0.055  13.123  20.023  0.00  0.00    +0.000 N 
ATOM     12  C   UNL     1      -0.658  11.971  20.621  0.00  0.00    +0.000 C 
ATOM     13  C   UNL     1       0.100  11.474  21.880  0.00  0.00    +0.000 C 
ATOM     14  C   UNL     1      -0.528  10.799  19.617  0.00  0.00    +0.000 C 
ATOM     15  O   UNL     1      -1.421  10.062  19.224  0.00  0.00    +0.000 OA
ENDROOT
BRANCH   1  20
ATOM     16  C   UNL     1       2.004   7.115  19.865  0.00  0.00    +0.000 A 
ATOM     17  C   UNL     1       2.741   6.790  18.729  0.00  0.00    +0.000 A 
ATOM     18  C   UNL     1       2.870   7.705  17.677  0.00  0.00    +0.000 A 
ATOM     19  C   UNL     1       2.271   8.965  17.755  0.00  0.00    +0.000 A 
ATOM     20  C   UNL     1       1.541   9.309  18.890  0.00  0.00    +0.000 A 
ATOM     21  C   UNL     1       1.399   8.366  19.933  0.00  0.00    +0.000 A 
BRANCH  16  23
ATOM     22  C   UNL     1       2.532   4.882  20.527  0.00  0.00    +0.000 C 
ATOM     23  O   UNL     1       1.957   6.150  20.834  0.00  0.00    +0.000 OA
ENDBRANCH  16  23
ENDBRANCH   1  20
BRANCH  12  24
ATOM     24  C   UNL     1      -2.155  12.258  20.919  0.00  0.00    +0.000 A 
ATOM     25  C   UNL     1      -3.066  12.651  19.914  0.00  0.00    +0.000 A 
ATOM     26  C   UNL     1      -4.389  12.992  20.213  0.00  0.00    +0.000 A 
ATOM     27  C   UNL     1      -4.836  12.951  21.527  0.00  0.00    +0.000 A 
ATOM     28  C   UNL     1      -3.963  12.580  22.548  0.00  0.00    +0.000 A 
ATOM     29  C   UNL     1      -2.644  12.218  22.245  0.00  0.00    +0.000 A 
BRANCH  28  30
ATOM     30  O   UNL     1      -4.515  12.586  23.802  0.00  0.00    +0.000 OA
ATOM     31  C   UNL     1      -5.898  12.918  23.863  0.00  0.00    +0.000 C 
ENDBRANCH  28  30
ENDBRANCH  12  24
TORSDOF 4
ENDMDL
MODEL 9
REMARK VINA RESULT:      -7.3      2.945      3.767
REMARK  Name = 
REMARK  7 active torsions:
REMARK  status: ('A' for Active; 'I' for Inactive)
REMARK    1  A    between atoms: C_1  and  O_2
REMARK    2  A    between atoms: O_2  and  C_3
REMARK    3  A    between atoms: C_7  and  C_8
REMARK    4  A    between atoms: C_19  and  C_20
REMARK    5  A    between atoms: C_19  and  C_21
REMARK    6  A    between atoms: C_25  and  O_26
REMARK    7  A    between atoms: O_26  and  C_27
REMARK                            x       y       z     vdW  Elec       q    Type
REMARK                         _______ _______ _______ _____ _____    ______ ____
ROOT
ATOM      1  C   UNL     1       0.776  11.040  19.994  0.00  0.00    +0.000 C 
ATOM      2  N   UNL     1       1.619  11.962  20.330  0.00  0.00    +0.000 NA
ATOM      3  C   UNL     1       1.178  13.082  20.928  0.00  0.00    +0.000 A 
ATOM      4  N   UNL     1       1.829  14.211  20.978  0.00  0.00    +0.000 NA
ATOM      5  C   UNL     1       1.149  14.984  21.864  0.00  0.00    +0.000 A 
ATOM      6  C   UNL     1       1.507  16.265  22.302  0.00  0.00    +0.000 A 
ATOM      7  C   UNL     1       0.719  16.879  23.269  0.00  0.00    +0.000 A 
ATOM      8  C   UNL     1      -0.405  16.222  23.774  0.00  0.00    +0.000 A 
ATOM      9  C   UNL     1      -0.793  14.944  23.325  0.00  0.00    +0.000 A 
ATOM     10  C   UNL     1       0.011  14.335  22.346  0.00  0.00    +0.000 A 
ATOM     11  N   UNL     1      -0.006  13.143  21.653  0.00  0.00    +0.000 N 
ATOM     12  C   UNL     1      -0.961  12.013  21.597  0.00  0.00    +0.000 C 
ATOM     13  C   UNL     1      -0.606  10.963  22.683  0.00  0.00    +0.000 C 
ATOM     14  C   UNL     1      -0.698  11.275  20.260  0.00  0.00    +0.000 C 
ATOM     15  O   UNL     1      -1.530  10.913  19.441  0.00  0.00    +0.000 OA
ENDROOT
BRANCH   1  20
ATOM     16  C   UNL     1       1.908   7.444  19.886  0.00  0.00    +0.000 A 
ATOM     17  C   UNL     1       2.364   7.326  18.576  0.00  0.00    +0.000 A 
ATOM     18  C   UNL     1       2.293   8.412  17.695  0.00  0.00    +0.000 A 
ATOM     19  C   UNL     1       1.774   9.639  18.121  0.00  0.00    +0.000 A 
ATOM     20  C   UNL     1       1.326   9.776  19.432  0.00  0.00    +0.000 A 
ATOM     21  C   UNL     1       1.381   8.663  20.302  0.00  0.00    +0.000 A 
BRANCH  16  23
ATOM     22  C   UNL     1       2.077   5.065  19.992  0.00  0.00    +0.000 C 
ATOM     23  O   UNL     1       2.039   6.323  20.660  0.00  0.00    +0.000 OA
ENDBRANCH  16  23
ENDBRANCH   1  20
BRANCH  12  24
ATOM     24  C   UNL     1      -2.447  12.456  21.680  0.00  0.00    +0.000 A 
ATOM     25  C   UNL     1      -3.073  13.206  20.660  0.00  0.00    +0.000 A 
ATOM     26  C   UNL     1      -4.385  13.672  20.790  0.00  0.00    +0.000 A 
ATOM     27  C   UNL     1      -5.106  13.405  21.947  0.00  0.00    +0.000 A 
ATOM     28  C   UNL     1      -4.518  12.678  22.980  0.00  0.00    +0.000 A 
ATOM     29  C   UNL     1      -3.211  12.193  22.841  0.00  0.00    +0.000 A 
BRANCH  28  30
ATOM     30  O   UNL     1      -5.322  12.485  24.073  0.00  0.00    +0.000 OA
ATOM     31  C   UNL     1      -6.676  12.899  23.920  0.00  0.00    +0.000 C 
ENDBRANCH  28  30
ENDBRANCH  12  24
TORSDOF 4
ENDMDL
