MODEL 1
REMARK VINA RESULT:      -5.5      0.000      0.000
REMARK  Name = 
REMARK  6 active torsions:
REMARK  status: ('A' for Active; 'I' for Inactive)
REMARK    1  A    between atoms: C_1  and  C_2
REMARK    2  A    between atoms: C_2  and  C_3
REMARK    3  A    between atoms: C_3  and  C_4
REMARK    4  A    between atoms: C_3  and  N_6
REMARK    5  A    between atoms: C_4  and  C_5
REMARK    6  A    between atoms: C_11  and  N_12
REMARK                            x       y       z     vdW  Elec       q    Type
REMARK                         _______ _______ _______ _____ _____    ______ ____
ROOT
ATOM      1  N   UNL     1       6.675   5.951  16.724  0.00  0.00    +0.000 N 
ATOM      2  N   UNL     1       6.718   7.342  16.674  0.00  0.00    +0.000 N 
ATOM      3  C   UNL     1       7.606   7.777  17.635  0.00  0.00    +0.000 A 
ATOM      4  O   UNL     1       8.071   8.892  17.775  0.00  0.00    +0.000 OA
ATOM      5  C   UNL     1       7.937   6.607  18.467  0.00  0.00    +0.000 A 
ATOM      6  C   UNL     1       7.337   5.551  17.882  0.00  0.00    +0.000 A 
ATOM      7  H   UNL     1       6.556   7.860  15.823  0.00  0.00    +0.000 HD
ENDROOT
BRANCH   6   8
ATOM      8  N   UNL     1       7.420   4.279  18.378  0.00  0.00    +0.000 N 
ATOM      9  H   UNL     1       7.864   3.631  17.734  0.00  0.00    +0.000 HD
ATOM     10  H   UNL     1       6.513   3.931  18.667  0.00  0.00    +0.000 HD
ENDBRANCH   6   8
BRANCH   1  11
ATOM     11  C   UNL     1       5.591   5.293  15.976  0.00  0.00    +0.000 C 
BRANCH  11  13
ATOM     12  C   UNL     1       6.091   4.006  13.817  0.00  0.00    +0.000 C 
ATOM     13  C   UNL     1       6.053   3.967  15.342  0.00  0.00    +0.000 C 
ENDBRANCH  11  13
BRANCH  11  14
ATOM     14  C   UNL     1       4.338   5.148  16.865  0.00  0.00    +0.000 C 
ATOM     15  C   UNL     1       3.934   3.705  17.138  0.00  0.00    +0.000 C 
ENDBRANCH  11  14
ENDBRANCH   1  11
TORSDOF 4
ENDMDL
MODEL 2
REMARK VINA RESULT:      -5.3      3.409      4.949
REMARK  Name = 
REMARK  6 active torsions:
REMARK  status: ('A' for Active; 'I' for Inactive)
REMARK    1  A    between atoms: C_1  and  C_2
REMARK    2  A    between atoms: C_2  and  C_3
REMARK    3  A    between atoms: C_3  and  C_4
REMARK    4  A    between atoms: C_3  and  N_6
REMARK    5  A    between atoms: C_4  and  C_5
REMARK    6  A    between atoms: C_11  and  N_12
REMARK                            x       y       z     vdW  Elec       q    Type
REMARK                         _______ _______ _______ _____ _____    ______ ____
ROOT
ATOM      1  N   UNL     1       4.314   3.733  19.642  0.00  0.00    +0.000 N 
ATOM      2  N   UNL     1       5.444   3.332  18.932  0.00  0.00    +0.000 N 
ATOM      3  C   UNL     1       6.173   4.459  18.617  0.00  0.00    +0.000 A 
ATOM      4  O   UNL     1       7.308   4.521  18.187  0.00  0.00    +0.000 OA
ATOM      5  C   UNL     1       5.324   5.618  18.944  0.00  0.00    +0.000 A 
ATOM      6  C   UNL     1       4.221   5.119  19.536  0.00  0.00    +0.000 A 
ATOM      7  H   UNL     1       5.882   2.434  19.072  0.00  0.00    +0.000 HD
ENDROOT
BRANCH   6   8
ATOM      8  N   UNL     1       3.193   5.904  19.982  0.00  0.00    +0.000 N 
ATOM      9  H   UNL     1       2.418   5.366  20.356  0.00  0.00    +0.000 HD
ATOM     10  H   UNL     1       2.873   6.542  19.262  0.00  0.00    +0.000 HD
ENDBRANCH   6   8
BRANCH   1  11
ATOM     11  C   UNL     1       3.260   2.723  19.836  0.00  0.00    +0.000 C 
BRANCH  11  13
ATOM     12  C   UNL     1       1.289   2.878  21.467  0.00  0.00    +0.000 C 
ATOM     13  C   UNL     1       2.791   2.659  21.302  0.00  0.00    +0.000 C 
ENDBRANCH  11  13
BRANCH  11  14
ATOM     14  C   UNL     1       2.113   2.945  18.829  0.00  0.00    +0.000 C 
ATOM     15  C   UNL     1       2.503   2.696  17.377  0.00  0.00    +0.000 C 
ENDBRANCH  11  14
ENDBRANCH   1  11
TORSDOF 4
ENDMDL
MODEL 3
REMARK VINA RESULT:      -5.3      1.861      2.550
REMARK  Name = 
REMARK  6 active torsions:
REMARK  status: ('A' for Active; 'I' for Inactive)
REMARK    1  A    between atoms: C_1  and  C_2
REMARK    2  A    between atoms: C_2  and  C_3
REMARK    3  A    between atoms: C_3  and  C_4
REMARK    4  A    between atoms: C_3  and  N_6
REMARK    5  A    between atoms: C_4  and  C_5
REMARK    6  A    between atoms: C_11  and  N_12
REMARK                            x       y       z     vdW  Elec       q    Type
REMARK                         _______ _______ _______ _____ _____    ______ ____
ROOT
ATOM      1  N   UNL     1       5.720   5.789  18.195  0.00  0.00    +0.000 N 
ATOM      2  N   UNL     1       6.156   5.001  19.258  0.00  0.00    +0.000 N 
ATOM      3  C   UNL     1       7.389   5.467  19.659  0.00  0.00    +0.000 A 
ATOM      4  O   UNL     1       8.004   5.185  20.669  0.00  0.00    +0.000 OA
ATOM      5  C   UNL     1       7.829   6.433  18.638  0.00  0.00    +0.000 A 
ATOM      6  C   UNL     1       6.798   6.570  17.782  0.00  0.00    +0.000 A 
ATOM      7  H   UNL     1       5.517   4.555  19.901  0.00  0.00    +0.000 HD
ENDROOT
BRANCH   6   8
ATOM      8  N   UNL     1       6.838   7.393  16.690  0.00  0.00    +0.000 N 
ATOM      9  H   UNL     1       6.635   8.362  16.918  0.00  0.00    +0.000 HD
ATOM     10  H   UNL     1       6.227   7.064  15.952  0.00  0.00    +0.000 HD
ENDBRANCH   6   8
BRANCH   1  11
ATOM     11  C   UNL     1       4.558   5.297  17.436  0.00  0.00    +0.000 C 
BRANCH  11  13
ATOM     12  C   UNL     1       5.573   4.137  15.388  0.00  0.00    +0.000 C 
ATOM     13  C   UNL     1       4.860   3.964  16.726  0.00  0.00    +0.000 C 
ENDBRANCH  11  13
BRANCH  11  14
ATOM     14  C   UNL     1       3.310   5.246  18.341  0.00  0.00    +0.000 C 
ATOM     15  C   UNL     1       2.175   4.393  17.787  0.00  0.00    +0.000 C 
ENDBRANCH  11  14
ENDBRANCH   1  11
TORSDOF 4
ENDMDL
MODEL 4
REMARK VINA RESULT:      -5.3      2.302      3.502
REMARK  Name = 
REMARK  6 active torsions:
REMARK  status: ('A' for Active; 'I' for Inactive)
REMARK    1  A    between atoms: C_1  and  C_2
REMARK    2  A    between atoms: C_2  and  C_3
REMARK    3  A    between atoms: C_3  and  C_4
REMARK    4  A    between atoms: C_3  and  N_6
REMARK    5  A    between atoms: C_4  and  C_5
REMARK    6  A    between atoms: C_11  and  N_12
REMARK                            x       y       z     vdW  Elec       q    Type
REMARK                         _______ _______ _______ _____ _____    ______ ____
ROOT
ATOM      1  N   UNL     1       5.122   5.109  17.335  0.00  0.00    +0.000 N 
ATOM      2  N   UNL     1       6.042   4.217  17.882  0.00  0.00    +0.000 N 
ATOM      3  C   UNL     1       7.290   4.532  17.388  0.00  0.00    +0.000 A 
ATOM      4  O   UNL     1       8.371   4.128  17.769  0.00  0.00    +0.000 OA
ATOM      5  C   UNL     1       7.082   5.510  16.305  0.00  0.00    +0.000 A 
ATOM      6  C   UNL     1       5.766   5.802  16.312  0.00  0.00    +0.000 A 
ATOM      7  H   UNL     1       5.918   3.800  18.793  0.00  0.00    +0.000 HD
ENDROOT
BRANCH   6   8
ATOM      8  N   UNL     1       5.194   6.683  15.436  0.00  0.00    +0.000 N 
ATOM      9  H   UNL     1       5.330   6.420  14.465  0.00  0.00    +0.000 HD
ATOM     10  H   UNL     1       5.512   7.631  15.599  0.00  0.00    +0.000 HD
ENDBRANCH   6   8
BRANCH   1  11
ATOM     11  C   UNL     1       3.697   4.784  17.510  0.00  0.00    +0.000 C 
BRANCH  11  13
ATOM     12  C   UNL     1       2.487   2.527  17.614  0.00  0.00    +0.000 C 
ATOM     13  C   UNL     1       3.501   3.459  18.271  0.00  0.00    +0.000 C 
ENDBRANCH  11  13
BRANCH  11  14
ATOM     14  C   UNL     1       2.949   5.976  18.143  0.00  0.00    +0.000 C 
ATOM     15  C   UNL     1       2.541   5.753  19.594  0.00  0.00    +0.000 C 
ENDBRANCH  11  14
ENDBRANCH   1  11
TORSDOF 4
ENDMDL
MODEL 5
REMARK VINA RESULT:      -5.3      2.247      3.352
REMARK  Name = 
REMARK  6 active torsions:
REMARK  status: ('A' for Active; 'I' for Inactive)
REMARK    1  A    between atoms: C_1  and  C_2
REMARK    2  A    between atoms: C_2  and  C_3
REMARK    3  A    between atoms: C_3  and  C_4
REMARK    4  A    between atoms: C_3  and  N_6
REMARK    5  A    between atoms: C_4  and  C_5
REMARK    6  A    between atoms: C_11  and  N_12
REMARK                            x       y       z     vdW  Elec       q    Type
REMARK                         _______ _______ _______ _____ _____    ______ ____
ROOT
ATOM      1  N   UNL     1       4.939   4.760  16.953  0.00  0.00    +0.000 N 
ATOM      2  N   UNL     1       5.480   5.425  15.855  0.00  0.00    +0.000 N 
ATOM      3  C   UNL     1       6.849   5.269  15.891  0.00  0.00    +0.000 A 
ATOM      4  O   UNL     1       7.655   5.522  15.017  0.00  0.00    +0.000 OA
ATOM      5  C   UNL     1       7.174   4.683  17.203  0.00  0.00    +0.000 A 
ATOM      6  C   UNL     1       5.994   4.418  17.797  0.00  0.00    +0.000 A 
ATOM      7  H   UNL     1       4.977   5.537  14.986  0.00  0.00    +0.000 HD
ENDROOT
BRANCH   6   8
ATOM      8  N   UNL     1       5.895   3.863  19.044  0.00  0.00    +0.000 N 
ATOM      9  H   UNL     1       6.445   4.355  19.741  0.00  0.00    +0.000 HD
ATOM     10  H   UNL     1       6.129   2.877  19.033  0.00  0.00    +0.000 HD
ENDBRANCH   6   8
BRANCH   1  11
ATOM     11  C   UNL     1       3.525   5.028  17.262  0.00  0.00    +0.000 C 
BRANCH  11  13
ATOM     12  C   UNL     1       1.464   3.970  18.358  0.00  0.00    +0.000 C 
ATOM     13  C   UNL     1       2.750   3.733  17.571  0.00  0.00    +0.000 C 
ENDBRANCH  11  13
BRANCH  11  14
ATOM     14  C   UNL     1       3.412   6.095  18.370  0.00  0.00    +0.000 C 
ATOM     15  C   UNL     1       3.177   7.508  17.850  0.00  0.00    +0.000 C 
ENDBRANCH  11  14
ENDBRANCH   1  11
TORSDOF 4
ENDMDL
MODEL 6
REMARK VINA RESULT:      -5.2      2.912      4.511
REMARK  Name = 
REMARK  6 active torsions:
REMARK  status: ('A' for Active; 'I' for Inactive)
REMARK    1  A    between atoms: C_1  and  C_2
REMARK    2  A    between atoms: C_2  and  C_3
REMARK    3  A    between atoms: C_3  and  C_4
REMARK    4  A    between atoms: C_3  and  N_6
REMARK    5  A    between atoms: C_4  and  C_5
REMARK    6  A    between atoms: C_11  and  N_12
REMARK                            x       y       z     vdW  Elec       q    Type
REMARK                         _______ _______ _______ _____ _____    ______ ____
ROOT
ATOM      1  N   UNL     1       5.315   4.628  17.856  0.00  0.00    +0.000 N 
ATOM      2  N   UNL     1       5.780   3.629  18.708  0.00  0.00    +0.000 N 
ATOM      3  C   UNL     1       4.721   3.199  19.480  0.00  0.00    +0.000 A 
ATOM      4  O   UNL     1       4.665   2.216  20.193  0.00  0.00    +0.000 OA
ATOM      5  C   UNL     1       3.618   4.148  19.252  0.00  0.00    +0.000 A 
ATOM      6  C   UNL     1       4.039   4.987  18.286  0.00  0.00    +0.000 A 
ATOM      7  H   UNL     1       6.545   3.018  18.462  0.00  0.00    +0.000 HD
ENDROOT
BRANCH   6   8
ATOM      8  N   UNL     1       3.275   6.014  17.805  0.00  0.00    +0.000 N 
ATOM      9  H   UNL     1       2.287   5.903  18.012  0.00  0.00    +0.000 HD
ATOM     10  H   UNL     1       3.418   6.153  16.812  0.00  0.00    +0.000 HD
ENDBRANCH   6   8
BRANCH   1  11
ATOM     11  C   UNL     1       6.332   5.417  17.141  0.00  0.00    +0.000 C 
BRANCH  11  13
ATOM     12  C   UNL     1       7.607   7.600  17.560  0.00  0.00    +0.000 C 
ATOM     13  C   UNL     1       7.210   6.233  18.109  0.00  0.00    +0.000 C 
ENDBRANCH  11  13
BRANCH  11  14
ATOM     14  C   UNL     1       7.141   4.511  16.189  0.00  0.00    +0.000 C 
ATOM     15  C   UNL     1       6.748   4.643  14.723  0.00  0.00    +0.000 C 
ENDBRANCH  11  14
ENDBRANCH   1  11
TORSDOF 4
ENDMDL
MODEL 7
REMARK VINA RESULT:      -5.2      3.350      4.912
REMARK  Name = 
REMARK  6 active torsions:
REMARK  status: ('A' for Active; 'I' for Inactive)
REMARK    1  A    between atoms: C_1  and  C_2
REMARK    2  A    between atoms: C_2  and  C_3
REMARK    3  A    between atoms: C_3  and  C_4
REMARK    4  A    between atoms: C_3  and  N_6
REMARK    5  A    between atoms: C_4  and  C_5
REMARK    6  A    between atoms: C_11  and  N_12
REMARK                            x       y       z     vdW  Elec       q    Type
REMARK                         _______ _______ _______ _____ _____    ______ ____
ROOT
ATOM      1  N   UNL     1       4.331   3.683  17.717  0.00  0.00    +0.000 N 
ATOM      2  N   UNL     1       5.192   3.258  18.726  0.00  0.00    +0.000 N 
ATOM      3  C   UNL     1       4.444   2.599  19.678  0.00  0.00    +0.000 A 
ATOM      4  O   UNL     1       4.842   1.913  20.600  0.00  0.00    +0.000 OA
ATOM      5  C   UNL     1       3.029   2.844  19.349  0.00  0.00    +0.000 A 
ATOM      6  C   UNL     1       3.027   3.511  18.178  0.00  0.00    +0.000 A 
ATOM      7  H   UNL     1       6.160   3.026  18.551  0.00  0.00    +0.000 HD
ENDROOT
BRANCH   6   8
ATOM      8  N   UNL     1       1.880   3.916  17.553  0.00  0.00    +0.000 N 
ATOM      9  H   UNL     1       1.966   4.832  17.123  0.00  0.00    +0.000 HD
ATOM     10  H   UNL     1       1.084   3.888  18.179  0.00  0.00    +0.000 HD
ENDBRANCH   6   8
BRANCH   1  11
ATOM     11  C   UNL     1       4.873   4.644  16.742  0.00  0.00    +0.000 C 
BRANCH  11  13
ATOM     12  C   UNL     1       4.073   6.973  17.449  0.00  0.00    +0.000 C 
ATOM     13  C   UNL     1       5.236   5.987  17.402  0.00  0.00    +0.000 C 
ENDBRANCH  11  13
BRANCH  11  14
ATOM     14  C   UNL     1       6.038   4.007  15.955  0.00  0.00    +0.000 C 
ATOM     15  C   UNL     1       5.955   4.213  14.447  0.00  0.00    +0.000 C 
ENDBRANCH  11  14
ENDBRANCH   1  11
TORSDOF 4
ENDMDL
MODEL 8
REMARK VINA RESULT:      -5.2      3.148      4.497
REMARK  Name = 
REMARK  6 active torsions:
REMARK  status: ('A' for Active; 'I' for Inactive)
REMARK    1  A    between atoms: C_1  and  C_2
REMARK    2  A    between atoms: C_2  and  C_3
REMARK    3  A    between atoms: C_3  and  C_4
REMARK    4  A    between atoms: C_3  and  N_6
REMARK    5  A    between atoms: C_4  and  C_5
REMARK    6  A    between atoms: C_11  and  N_12
REMARK                            x       y       z     vdW  Elec       q    Type
REMARK                         _______ _______ _______ _____ _____    ______ ____
ROOT
ATOM      1  N   UNL     1       4.514   4.270  17.960  0.00  0.00    +0.000 N 
ATOM      2  N   UNL     1       3.388   4.567  17.194  0.00  0.00    +0.000 N 
ATOM      3  C   UNL     1       2.317   3.879  17.725  0.00  0.00    +0.000 A 
ATOM      4  O   UNL     1       1.136   4.024  17.474  0.00  0.00    +0.000 OA
ATOM      5  C   UNL     1       2.867   2.935  18.712  0.00  0.00    +0.000 A 
ATOM      6  C   UNL     1       4.184   3.204  18.795  0.00  0.00    +0.000 A 
ATOM      7  H   UNL     1       3.273   5.449  16.717  0.00  0.00    +0.000 HD
ENDROOT
BRANCH   6   8
ATOM      8  N   UNL     1       5.035   2.521  19.620  0.00  0.00    +0.000 N 
ATOM      9  H   UNL     1       4.816   1.531  19.681  0.00  0.00    +0.000 HD
ATOM     10  H   UNL     1       5.074   2.936  20.543  0.00  0.00    +0.000 HD
ENDBRANCH   6   8
BRANCH   1  11
ATOM     11  C   UNL     1       5.817   4.676  17.408  0.00  0.00    +0.000 C 
BRANCH  11  13
ATOM     12  C   UNL     1       6.245   4.066  14.956  0.00  0.00    +0.000 C 
ATOM     13  C   UNL     1       5.706   5.107  15.933  0.00  0.00    +0.000 C 
ENDBRANCH  11  13
BRANCH  11  14
ATOM     14  C   UNL     1       6.474   5.737  18.314  0.00  0.00    +0.000 C 
ATOM     15  C   UNL     1       7.355   6.732  17.567  0.00  0.00    +0.000 C 
ENDBRANCH  11  14
ENDBRANCH   1  11
TORSDOF 4
ENDMDL
MODEL 9
REMARK VINA RESULT:      -5.2      3.796      5.277
REMARK  Name = 
REMARK  6 active torsions:
REMARK  status: ('A' for Active; 'I' for Inactive)
REMARK    1  A    between atoms: C_1  and  C_2
REMARK    2  A    between atoms: C_2  and  C_3
REMARK    3  A    between atoms: C_3  and  C_4
REMARK    4  A    between atoms: C_3  and  N_6
REMARK    5  A    between atoms: C_4  and  C_5
REMARK    6  A    between atoms: C_11  and  N_12
REMARK                            x       y       z     vdW  Elec       q    Type
REMARK                         _______ _______ _______ _____ _____    ______ ____
ROOT
ATOM      1  N   UNL     1       3.734   3.586  18.521  0.00  0.00    +0.000 N 
ATOM      2  N   UNL     1       4.880   3.088  19.139  0.00  0.00    +0.000 N 
ATOM      3  C   UNL     1       4.493   2.405  20.272  0.00  0.00    +0.000 A 
ATOM      4  O   UNL     1       5.162   1.664  20.966  0.00  0.00    +0.000 OA
ATOM      5  C   UNL     1       3.066   2.706  20.481  0.00  0.00    +0.000 A 
ATOM      6  C   UNL     1       2.675   3.428  19.413  0.00  0.00    +0.000 A 
ATOM      7  H   UNL     1       5.710   2.838  18.622  0.00  0.00    +0.000 HD
ENDROOT
BRANCH   6   8
ATOM      8  N   UNL     1       1.399   3.895  19.255  0.00  0.00    +0.000 N 
ATOM      9  H   UNL     1       0.694   3.227  19.550  0.00  0.00    +0.000 HD
ATOM     10  H   UNL     1       1.228   4.198  18.303  0.00  0.00    +0.000 HD
ENDBRANCH   6   8
BRANCH   1  11
ATOM     11  C   UNL     1       3.934   4.576  17.451  0.00  0.00    +0.000 C 
BRANCH  11  13
ATOM     12  C   UNL     1       3.117   6.932  18.041  0.00  0.00    +0.000 C 
ATOM     13  C   UNL     1       4.296   5.964  18.014  0.00  0.00    +0.000 C 
ENDBRANCH  11  13
BRANCH  11  14
ATOM     14  C   UNL     1       4.947   4.047  16.414  0.00  0.00    +0.000 C 
ATOM     15  C   UNL     1       5.563   5.131  15.538  0.00  0.00    +0.000 C 
ENDBRANCH  11  14
ENDBRANCH   1  11
TORSDOF 4
ENDMDL
