MODEL 1
REMARK VINA RESULT:      -8.0      0.000      0.000
REMARK  Name = 
REMARK  7 active torsions:
REMARK  status: ('A' for Active; 'I' for Inactive)
REMARK    1  A    between atoms: C_1  and  C_2
REMARK    2  A    between atoms: C_5  and  C_6
REMARK    3  A    between atoms: C_6  and  C_8
REMARK    4  A    between atoms: C_9  and  N_10
REMARK    5  A    between atoms: C_11  and  C_13
REMARK    6  A    between atoms: C_13  and  S_14
REMARK    7  A    between atoms: S_14  and  C_15
REMARK                            x       y       z     vdW  Elec       q    Type
REMARK                         _______ _______ _______ _____ _____    ______ ____
ROOT
ATOM      1  C   UNL     1       4.057   5.708  18.178  0.00  0.00    +0.000 A 
ATOM      2  C   UNL     1       5.328   5.420  18.682  0.00  0.00    +0.000 A 
ATOM      3  S   UNL     1       5.464   3.801  19.201  0.00  0.00    +0.000 S 
ATOM      4  C   UNL     1       3.884   3.429  18.744  0.00  0.00    +0.000 A 
ATOM      5  C   UNL     1       3.217   4.517  18.214  0.00  0.00    +0.000 A 
ATOM      6  C   UNL     1       1.803   4.368  17.712  0.00  0.00    +0.000 C 
ATOM      7  C   UNL     1       1.104   3.147  18.337  0.00  0.00    +0.000 C 
ATOM      8  C   UNL     1       1.976   1.889  18.239  0.00  0.00    +0.000 C 
ATOM      9  C   UNL     1       3.314   2.061  18.966  0.00  0.00    +0.000 C 
ENDROOT
BRANCH   2  10
ATOM     10  N   UNL     1       6.418   6.276  18.862  0.00  0.00    +0.000 N 
ATOM     11  C   UNL     1       7.290   6.690  17.850  0.00  0.00    +0.000 C 
ATOM     12  O   UNL     1       7.280   6.310  16.684  0.00  0.00    +0.000 OA
ATOM     13  H   UNL     1       6.446   6.797  19.730  0.00  0.00    +0.000 HD
BRANCH  11  14
ATOM     14  C   UNL     1       8.312   7.712  18.344  0.00  0.00    +0.000 C 
BRANCH  14  15
ATOM     15  S   UNL     1       8.056   9.357  17.592  0.00  0.00    +0.000 S 
BRANCH  15  16
ATOM     16  C   UNL     1       9.104  10.340  18.589  0.00  0.00    +0.000 A 
ATOM     17  N   UNL     1       9.128  10.209  19.894  0.00  0.00    +0.000 NA
ATOM     18  N   UNL     1      10.053  11.050  20.481  0.00  0.00    +0.000 NA
ATOM     19  C   UNL     1      10.697  11.787  19.608  0.00  0.00    +0.000 A 
ATOM     20  N   UNL     1      11.651  12.676  19.944  0.00  0.00    +0.000 N 
ATOM     21  S   UNL     1      10.229  11.482  17.981  0.00  0.00    +0.000 S 
ATOM     22  H   UNL     1      12.026  12.611  20.887  0.00  0.00    +0.000 HD
ATOM     23  H   UNL     1      12.320  12.964  19.243  0.00  0.00    +0.000 HD
ENDBRANCH  15  16
ENDBRANCH  14  15
ENDBRANCH  11  14
ENDBRANCH   2  10
BRANCH   1  24
ATOM     24  C   UNL     1       3.598   7.016  17.683  0.00  0.00    +0.000 C 
ATOM     25  O   UNL     1       4.020   7.500  16.635  0.00  0.00    +0.000 OA
BRANCH  24  30
ATOM     26  C   UNL     1      -0.134  10.243  20.740  0.00  0.00    +0.000 C 
ATOM     27  C   UNL     1       0.771   9.340  19.955  0.00  0.00    +0.000 A 
ATOM     28  C   UNL     1       1.386   8.222  20.518  0.00  0.00    +0.000 A 
ATOM     29  C   UNL     1       2.275   7.451  19.758  0.00  0.00    +0.000 A 
ATOM     30  C   UNL     1       2.582   7.809  18.437  0.00  0.00    +0.000 A 
ATOM     31  C   UNL     1       1.929   8.896  17.857  0.00  0.00    +0.000 A 
ATOM     32  C   UNL     1       1.028   9.643  18.617  0.00  0.00    +0.000 A 
ENDBRANCH  24  30
ENDBRANCH   1  24
TORSDOF 6
ENDMDL
MODEL 2
REMARK VINA RESULT:      -7.7      6.615      8.932
REMARK  Name = 
REMARK  7 active torsions:
REMARK  status: ('A' for Active; 'I' for Inactive)
REMARK    1  A    between atoms: C_1  and  C_2
REMARK    2  A    between atoms: C_5  and  C_6
REMARK    3  A    between atoms: C_6  and  C_8
REMARK    4  A    between atoms: C_9  and  N_10
REMARK    5  A    between atoms: C_11  and  C_13
REMARK    6  A    between atoms: C_13  and  S_14
REMARK    7  A    between atoms: S_14  and  C_15
REMARK                            x       y       z     vdW  Elec       q    Type
REMARK                         _______ _______ _______ _____ _____    ______ ____
ROOT
ATOM      1  C   UNL     1       1.254   9.039  19.418  0.00  0.00    +0.000 A 
ATOM      2  C   UNL     1       0.732   8.611  20.641  0.00  0.00    +0.000 A 
ATOM      3  S   UNL     1       1.355   7.095  21.111  0.00  0.00    +0.000 S 
ATOM      4  C   UNL     1       2.347   6.981  19.752  0.00  0.00    +0.000 A 
ATOM      5  C   UNL     1       2.215   8.068  18.909  0.00  0.00    +0.000 A 
ATOM      6  C   UNL     1       3.053   8.163  17.659  0.00  0.00    +0.000 C 
ATOM      7  C   UNL     1       3.570   6.782  17.215  0.00  0.00    +0.000 C 
ATOM      8  C   UNL     1       4.208   6.019  18.381  0.00  0.00    +0.000 C 
ATOM      9  C   UNL     1       3.213   5.780  19.523  0.00  0.00    +0.000 C 
ENDROOT
BRANCH   2  10
ATOM     10  N   UNL     1      -0.237   9.216  21.445  0.00  0.00    +0.000 N 
ATOM     11  C   UNL     1       0.002   9.786  22.700  0.00  0.00    +0.000 C 
ATOM     12  O   UNL     1       1.064   9.770  23.313  0.00  0.00    +0.000 OA
ATOM     13  H   UNL     1      -1.114   9.450  20.998  0.00  0.00    +0.000 HD
BRANCH  11  14
ATOM     14  C   UNL     1      -1.239  10.466  23.277  0.00  0.00    +0.000 C 
BRANCH  14  15
ATOM     15  S   UNL     1      -1.329  12.232  22.817  0.00  0.00    +0.000 S 
BRANCH  15  16
ATOM     16  C   UNL     1      -2.957  12.619  23.326  0.00  0.00    +0.000 A 
ATOM     17  N   UNL     1      -3.655  11.798  24.075  0.00  0.00    +0.000 NA
ATOM     18  N   UNL     1      -4.895  12.316  24.392  0.00  0.00    +0.000 NA
ATOM     19  C   UNL     1      -5.096  13.506  23.880  0.00  0.00    +0.000 A 
ATOM     20  N   UNL     1      -6.228  14.213  24.062  0.00  0.00    +0.000 N 
ATOM     21  S   UNL     1      -3.754  14.097  22.979  0.00  0.00    +0.000 S 
ATOM     22  H   UNL     1      -6.854  13.895  24.796  0.00  0.00    +0.000 HD
ATOM     23  H   UNL     1      -6.204  15.216  23.931  0.00  0.00    +0.000 HD
ENDBRANCH  15  16
ENDBRANCH  14  15
ENDBRANCH  11  14
ENDBRANCH   2  10
BRANCH   1  24
ATOM     24  C   UNL     1       0.901  10.283  18.713  0.00  0.00    +0.000 C 
ATOM     25  O   UNL     1       1.748  11.116  18.399  0.00  0.00    +0.000 OA
BRANCH  24  30
ATOM     26  C   UNL     1      -4.686  11.224  17.448  0.00  0.00    +0.000 C 
ATOM     27  C   UNL     1      -3.221  11.003  17.689  0.00  0.00    +0.000 A 
ATOM     28  C   UNL     1      -2.512   9.963  17.088  0.00  0.00    +0.000 A 
ATOM     29  C   UNL     1      -1.161   9.761  17.400  0.00  0.00    +0.000 A 
ATOM     30  C   UNL     1      -0.515  10.578  18.340  0.00  0.00    +0.000 A 
ATOM     31  C   UNL     1      -1.209  11.649  18.902  0.00  0.00    +0.000 A 
ATOM     32  C   UNL     1      -2.547  11.854  18.567  0.00  0.00    +0.000 A 
ENDBRANCH  24  30
ENDBRANCH   1  24
TORSDOF 6
ENDMDL
MODEL 3
REMARK VINA RESULT:      -7.6      1.549      1.840
REMARK  Name = 
REMARK  7 active torsions:
REMARK  status: ('A' for Active; 'I' for Inactive)
REMARK    1  A    between atoms: C_1  and  C_2
REMARK    2  A    between atoms: C_5  and  C_6
REMARK    3  A    between atoms: C_6  and  C_8
REMARK    4  A    between atoms: C_9  and  N_10
REMARK    5  A    between atoms: C_11  and  C_13
REMARK    6  A    between atoms: C_13  and  S_14
REMARK    7  A    between atoms: S_14  and  C_15
REMARK                            x       y       z     vdW  Elec       q    Type
REMARK                         _______ _______ _______ _____ _____    ______ ____
ROOT
ATOM      1  C   UNL     1       3.739   6.466  17.670  0.00  0.00    +0.000 A 
ATOM      2  C   UNL     1       5.127   6.407  17.522  0.00  0.00    +0.000 A 
ATOM      3  S   UNL     1       5.711   4.805  17.560  0.00  0.00    +0.000 S 
ATOM      4  C   UNL     1       4.165   4.152  17.730  0.00  0.00    +0.000 A 
ATOM      5  C   UNL     1       3.184   5.123  17.784  0.00  0.00    +0.000 A 
ATOM      6  C   UNL     1       1.733   4.729  17.896  0.00  0.00    +0.000 C 
ATOM      7  C   UNL     1       1.573   3.306  18.463  0.00  0.00    +0.000 C 
ATOM      8  C   UNL     1       2.475   2.304  17.733  0.00  0.00    +0.000 C 
ATOM      9  C   UNL     1       3.959   2.673  17.856  0.00  0.00    +0.000 C 
ENDROOT
BRANCH   2  10
ATOM     10  N   UNL     1       6.047   7.453  17.419  0.00  0.00    +0.000 N 
ATOM     11  C   UNL     1       7.360   7.418  17.900  0.00  0.00    +0.000 C 
ATOM     12  O   UNL     1       7.873   6.509  18.545  0.00  0.00    +0.000 OA
ATOM     13  H   UNL     1       5.820   8.194  16.768  0.00  0.00    +0.000 HD
BRANCH  11  14
ATOM     14  C   UNL     1       8.148   8.676  17.535  0.00  0.00    +0.000 C 
BRANCH  14  15
ATOM     15  S   UNL     1       8.887   9.472  19.004  0.00  0.00    +0.000 S 
BRANCH  15  16
ATOM     16  C   UNL     1       9.440  10.981  18.314  0.00  0.00    +0.000 A 
ATOM     17  N   UNL     1       8.599  11.855  17.814  0.00  0.00    +0.000 NA
ATOM     18  N   UNL     1       9.242  12.990  17.360  0.00  0.00    +0.000 NA
ATOM     19  C   UNL     1      10.541  12.942  17.532  0.00  0.00    +0.000 A 
ATOM     20  N   UNL     1      11.376  13.937  17.176  0.00  0.00    +0.000 N 
ATOM     21  S   UNL     1      11.076  11.495  18.293  0.00  0.00    +0.000 S 
ATOM     22  H   UNL     1      10.953  14.836  16.963  0.00  0.00    +0.000 HD
ATOM     23  H   UNL     1      12.287  13.991  17.612  0.00  0.00    +0.000 HD
ENDBRANCH  15  16
ENDBRANCH  14  15
ENDBRANCH  11  14
ENDBRANCH   2  10
BRANCH   1  24
ATOM     24  C   UNL     1       2.925   7.692  17.717  0.00  0.00    +0.000 C 
ATOM     25  O   UNL     1       2.845   8.457  16.758  0.00  0.00    +0.000 OA
BRANCH  24  30
ATOM     26  C   UNL     1      -0.331   8.984  22.345  0.00  0.00    +0.000 C 
ATOM     27  C   UNL     1       0.562   8.724  21.167  0.00  0.00    +0.000 A 
ATOM     28  C   UNL     1       0.602   9.567  20.057  0.00  0.00    +0.000 A 
ATOM     29  C   UNL     1       1.404   9.242  18.955  0.00  0.00    +0.000 A 
ATOM     30  C   UNL     1       2.149   8.052  18.940  0.00  0.00    +0.000 A 
ATOM     31  C   UNL     1       2.149   7.235  20.070  0.00  0.00    +0.000 A 
ATOM     32  C   UNL     1       1.364   7.581  21.170  0.00  0.00    +0.000 A 
ENDBRANCH  24  30
ENDBRANCH   1  24
TORSDOF 6
ENDMDL
MODEL 4
REMARK VINA RESULT:      -7.5      6.952      9.441
REMARK  Name = 
REMARK  7 active torsions:
REMARK  status: ('A' for Active; 'I' for Inactive)
REMARK    1  A    between atoms: C_1  and  C_2
REMARK    2  A    between atoms: C_5  and  C_6
REMARK    3  A    between atoms: C_6  and  C_8
REMARK    4  A    between atoms: C_9  and  N_10
REMARK    5  A    between atoms: C_11  and  C_13
REMARK    6  A    between atoms: C_13  and  S_14
REMARK    7  A    between atoms: S_14  and  C_15
REMARK                            x       y       z     vdW  Elec       q    Type
REMARK                         _______ _______ _______ _____ _____    ______ ____
ROOT
ATOM      1  C   UNL     1       0.901   9.367  19.618  0.00  0.00    +0.000 A 
ATOM      2  C   UNL     1       0.533   8.928  20.893  0.00  0.00    +0.000 A 
ATOM      3  S   UNL     1       1.273   7.446  21.301  0.00  0.00    +0.000 S 
ATOM      4  C   UNL     1       2.118   7.364  19.844  0.00  0.00    +0.000 A 
ATOM      5  C   UNL     1       1.846   8.435  19.014  0.00  0.00    +0.000 A 
ATOM      6  C   UNL     1       2.539   8.556  17.681  0.00  0.00    +0.000 C 
ATOM      7  C   UNL     1       3.069   7.196  17.191  0.00  0.00    +0.000 C 
ATOM      8  C   UNL     1       3.864   6.474  18.286  0.00  0.00    +0.000 C 
ATOM      9  C   UNL     1       3.009   6.202  19.529  0.00  0.00    +0.000 C 
ENDROOT
BRANCH   2  10
ATOM     10  N   UNL     1      -0.371   9.496  21.793  0.00  0.00    +0.000 N 
ATOM     11  C   UNL     1      -0.311  10.809  22.271  0.00  0.00    +0.000 C 
ATOM     12  O   UNL     1       0.575  11.625  22.039  0.00  0.00    +0.000 OA
ATOM     13  H   UNL     1      -1.241   8.998  21.936  0.00  0.00    +0.000 HD
BRANCH  11  14
ATOM     14  C   UNL     1      -1.506  11.163  23.154  0.00  0.00    +0.000 C 
BRANCH  14  15
ATOM     15  S   UNL     1      -2.028  12.901  22.938  0.00  0.00    +0.000 S 
BRANCH  15  16
ATOM     16  C   UNL     1      -3.718  12.792  23.376  0.00  0.00    +0.000 A 
ATOM     17  N   UNL     1      -4.119  12.047  24.378  0.00  0.00    +0.000 NA
ATOM     18  N   UNL     1      -5.483  12.138  24.575  0.00  0.00    +0.000 NA
ATOM     19  C   UNL     1      -6.068  12.945  23.723  0.00  0.00    +0.000 A 
ATOM     20  N   UNL     1      -7.391  13.198  23.726  0.00  0.00    +0.000 N 
ATOM     21  S   UNL     1      -4.974  13.680  22.618  0.00  0.00    +0.000 S 
ATOM     22  H   UNL     1      -7.910  12.915  24.553  0.00  0.00    +0.000 HD
ATOM     23  H   UNL     1      -7.728  14.043  23.284  0.00  0.00    +0.000 HD
ENDBRANCH  15  16
ENDBRANCH  14  15
ENDBRANCH  11  14
ENDBRANCH   2  10
BRANCH   1  24
ATOM     24  C   UNL     1       0.416  10.586  18.949  0.00  0.00    +0.000 C 
ATOM     25  O   UNL     1       1.154  11.545  18.731  0.00  0.00    +0.000 OA
BRANCH  24  30
ATOM     26  C   UNL     1      -5.022  11.270  17.039  0.00  0.00    +0.000 C 
ATOM     27  C   UNL     1      -3.650  11.059  17.610  0.00  0.00    +0.000 A 
ATOM     28  C   UNL     1      -3.174  11.786  18.701  0.00  0.00    +0.000 A 
ATOM     29  C   UNL     1      -1.860  11.597  19.152  0.00  0.00    +0.000 A 
ATOM     30  C   UNL     1      -1.002  10.701  18.496  0.00  0.00    +0.000 A 
ATOM     31  C   UNL     1      -1.494   9.937  17.439  0.00  0.00    +0.000 A 
ATOM     32  C   UNL     1      -2.809  10.118  17.013  0.00  0.00    +0.000 A 
ENDBRANCH  24  30
ENDBRANCH   1  24
TORSDOF 6
ENDMDL
MODEL 5
REMARK VINA RESULT:      -7.4      4.498      8.012
REMARK  Name = 
REMARK  7 active torsions:
REMARK  status: ('A' for Active; 'I' for Inactive)
REMARK    1  A    between atoms: C_1  and  C_2
REMARK    2  A    between atoms: C_5  and  C_6
REMARK    3  A    between atoms: C_6  and  C_8
REMARK    4  A    between atoms: C_9  and  N_10
REMARK    5  A    between atoms: C_11  and  C_13
REMARK    6  A    between atoms: C_13  and  S_14
REMARK    7  A    between atoms: S_14  and  C_15
REMARK                            x       y       z     vdW  Elec       q    Type
REMARK                         _______ _______ _______ _____ _____    ______ ____
ROOT
ATOM      1  C   UNL     1      -0.621  11.475  19.094  0.00  0.00    +0.000 A 
ATOM      2  C   UNL     1      -0.430  10.454  18.160  0.00  0.00    +0.000 A 
ATOM      3  S   UNL     1      -1.899   9.932  17.467  0.00  0.00    +0.000 S 
ATOM      4  C   UNL     1      -2.810  11.051  18.339  0.00  0.00    +0.000 A 
ATOM      5  C   UNL     1      -2.034  11.823  19.182  0.00  0.00    +0.000 A 
ATOM      6  C   UNL     1      -2.669  12.907  20.016  0.00  0.00    +0.000 C 
ATOM      7  C   UNL     1      -4.177  12.665  20.210  0.00  0.00    +0.000 C 
ATOM      8  C   UNL     1      -4.874  12.362  18.878  0.00  0.00    +0.000 C 
ATOM      9  C   UNL     1      -4.301  11.110  18.203  0.00  0.00    +0.000 C 
ENDROOT
BRANCH   2  10
ATOM     10  N   UNL     1       0.751   9.802  17.798  0.00  0.00    +0.000 N 
ATOM     11  C   UNL     1       1.492   8.959  18.633  0.00  0.00    +0.000 C 
ATOM     12  O   UNL     1       1.266   8.730  19.817  0.00  0.00    +0.000 OA
ATOM     13  H   UNL     1       0.962   9.764  16.808  0.00  0.00    +0.000 HD
BRANCH  11  14
ATOM     14  C   UNL     1       2.671   8.311  17.909  0.00  0.00    +0.000 C 
BRANCH  14  15
ATOM     15  S   UNL     1       2.845   6.542  18.328  0.00  0.00    +0.000 S 
BRANCH  15  16
ATOM     16  C   UNL     1       4.333   6.153  17.495  0.00  0.00    +0.000 A 
ATOM     17  N   UNL     1       4.745   6.854  16.465  0.00  0.00    +0.000 NA
ATOM     18  N   UNL     1       5.958   6.402  15.985  0.00  0.00    +0.000 NA
ATOM     19  C   UNL     1       6.426   5.381  16.662  0.00  0.00    +0.000 A 
ATOM     20  N   UNL     1       7.597   4.777  16.384  0.00  0.00    +0.000 N 
ATOM     21  S   UNL     1       5.412   4.908  17.970  0.00  0.00    +0.000 S 
ATOM     22  H   UNL     1       8.231   5.271  15.762  0.00  0.00    +0.000 HD
ATOM     23  H   UNL     1       8.051   4.234  17.107  0.00  0.00    +0.000 HD
ENDBRANCH  15  16
ENDBRANCH  14  15
ENDBRANCH  11  14
ENDBRANCH   2  10
BRANCH   1  24
ATOM     24  C   UNL     1       0.430  12.123  19.896  0.00  0.00    +0.000 C 
ATOM     25  O   UNL     1       0.725  11.728  21.022  0.00  0.00    +0.000 OA
BRANCH  24  30
ATOM     26  C   UNL     1       3.305  16.589  17.555  0.00  0.00    +0.000 C 
ATOM     27  C   UNL     1       2.629  15.426  18.222  0.00  0.00    +0.000 A 
ATOM     28  C   UNL     1       3.157  14.136  18.193  0.00  0.00    +0.000 A 
ATOM     29  C   UNL     1       2.451  13.074  18.775  0.00  0.00    +0.000 A 
ATOM     30  C   UNL     1       1.195  13.289  19.362  0.00  0.00    +0.000 A 
ATOM     31  C   UNL     1       0.690  14.587  19.436  0.00  0.00    +0.000 A 
ATOM     32  C   UNL     1       1.413  15.638  18.874  0.00  0.00    +0.000 A 
ENDBRANCH  24  30
ENDBRANCH   1  24
TORSDOF 6
ENDMDL
MODEL 6
REMARK VINA RESULT:      -7.4      1.205      1.508
REMARK  Name = 
REMARK  7 active torsions:
REMARK  status: ('A' for Active; 'I' for Inactive)
REMARK    1  A    between atoms: C_1  and  C_2
REMARK    2  A    between atoms: C_5  and  C_6
REMARK    3  A    between atoms: C_6  and  C_8
REMARK    4  A    between atoms: C_9  and  N_10
REMARK    5  A    between atoms: C_11  and  C_13
REMARK    6  A    between atoms: C_13  and  S_14
REMARK    7  A    between atoms: S_14  and  C_15
REMARK                            x       y       z     vdW  Elec       q    Type
REMARK                         _______ _______ _______ _____ _____    ______ ____
ROOT
ATOM      1  C   UNL     1       3.767   6.176  17.882  0.00  0.00    +0.000 A 
ATOM      2  C   UNL     1       5.156   6.052  17.978  0.00  0.00    +0.000 A 
ATOM      3  S   UNL     1       5.644   4.431  18.187  0.00  0.00    +0.000 S 
ATOM      4  C   UNL     1       4.062   3.852  18.117  0.00  0.00    +0.000 A 
ATOM      5  C   UNL     1       3.135   4.863  17.958  0.00  0.00    +0.000 A 
ATOM      6  C   UNL     1       1.669   4.535  17.835  0.00  0.00    +0.000 C 
ATOM      7  C   UNL     1       1.344   3.152  18.429  0.00  0.00    +0.000 C 
ATOM      8  C   UNL     1       2.308   2.078  17.911  0.00  0.00    +0.000 C 
ATOM      9  C   UNL     1       3.765   2.391  18.271  0.00  0.00    +0.000 C 
ENDROOT
BRANCH   2  10
ATOM     10  N   UNL     1       6.130   7.053  17.989  0.00  0.00    +0.000 N 
ATOM     11  C   UNL     1       7.201   7.142  17.094  0.00  0.00    +0.000 C 
ATOM     12  O   UNL     1       7.490   6.324  16.226  0.00  0.00    +0.000 OA
ATOM     13  H   UNL     1       5.924   7.879  18.536  0.00  0.00    +0.000 HD
BRANCH  11  14
ATOM     14  C   UNL     1       8.027   8.411  17.297  0.00  0.00    +0.000 C 
BRANCH  14  15
ATOM     15  S   UNL     1       8.581   8.599  19.027  0.00  0.00    +0.000 S 
BRANCH  15  16
ATOM     16  C   UNL     1       9.047  10.285  19.040  0.00  0.00    +0.000 A 
ATOM     17  N   UNL     1       8.942  11.033  17.968  0.00  0.00    +0.000 NA
ATOM     18  N   UNL     1       9.325  12.337  18.209  0.00  0.00    +0.000 NA
ATOM     19  C   UNL     1       9.703  12.536  19.448  0.00  0.00    +0.000 A 
ATOM     20  N   UNL     1      10.112  13.730  19.919  0.00  0.00    +0.000 N 
ATOM     21  S   UNL     1       9.595  11.127  20.429  0.00  0.00    +0.000 S 
ATOM     22  H   UNL     1       9.912  14.543  19.342  0.00  0.00    +0.000 HD
ATOM     23  H   UNL     1      10.077  13.901  20.916  0.00  0.00    +0.000 HD
ENDBRANCH  15  16
ENDBRANCH  14  15
ENDBRANCH  11  14
ENDBRANCH   2  10
BRANCH   1  24
ATOM     24  C   UNL     1       3.018   7.435  17.733  0.00  0.00    +0.000 C 
ATOM     25  O   UNL     1       3.012   8.067  16.680  0.00  0.00    +0.000 OA
BRANCH  24  30
ATOM     26  C   UNL     1      -0.324   9.482  22.014  0.00  0.00    +0.000 C 
ATOM     27  C   UNL     1       0.593   9.027  20.917  0.00  0.00    +0.000 A 
ATOM     28  C   UNL     1       0.697   9.700  19.700  0.00  0.00    +0.000 A 
ATOM     29  C   UNL     1       1.519   9.193  18.684  0.00  0.00    +0.000 A 
ATOM     30  C   UNL     1       2.220   7.991  18.865  0.00  0.00    +0.000 A 
ATOM     31  C   UNL     1       2.156   7.345  20.099  0.00  0.00    +0.000 A 
ATOM     32  C   UNL     1       1.353   7.871  21.110  0.00  0.00    +0.000 A 
ENDBRANCH  24  30
ENDBRANCH   1  24
TORSDOF 6
ENDMDL
MODEL 7
REMARK VINA RESULT:      -7.3      1.626      1.770
REMARK  Name = 
REMARK  7 active torsions:
REMARK  status: ('A' for Active; 'I' for Inactive)
REMARK    1  A    between atoms: C_1  and  C_2
REMARK    2  A    between atoms: C_5  and  C_6
REMARK    3  A    between atoms: C_6  and  C_8
REMARK    4  A    between atoms: C_9  and  N_10
REMARK    5  A    between atoms: C_11  and  C_13
REMARK    6  A    between atoms: C_13  and  S_14
REMARK    7  A    between atoms: S_14  and  C_15
REMARK                            x       y       z     vdW  Elec       q    Type
REMARK                         _______ _______ _______ _____ _____    ______ ____
ROOT
ATOM      1  C   UNL     1       3.742   6.635  17.692  0.00  0.00    +0.000 A 
ATOM      2  C   UNL     1       5.130   6.579  17.538  0.00  0.00    +0.000 A 
ATOM      3  S   UNL     1       5.715   4.977  17.547  0.00  0.00    +0.000 S 
ATOM      4  C   UNL     1       4.171   4.320  17.712  0.00  0.00    +0.000 A 
ATOM      5  C   UNL     1       3.189   5.289  17.785  0.00  0.00    +0.000 A 
ATOM      6  C   UNL     1       1.739   4.891  17.895  0.00  0.00    +0.000 C 
ATOM      7  C   UNL     1       1.582   3.459  18.439  0.00  0.00    +0.000 C 
ATOM      8  C   UNL     1       2.483   2.471  17.689  0.00  0.00    +0.000 C 
ATOM      9  C   UNL     1       3.966   2.839  17.814  0.00  0.00    +0.000 C 
ENDROOT
BRANCH   2  10
ATOM     10  N   UNL     1       6.048   7.628  17.450  0.00  0.00    +0.000 N 
ATOM     11  C   UNL     1       7.368   7.581  17.911  0.00  0.00    +0.000 C 
ATOM     12  O   UNL     1       7.889   6.656  18.525  0.00  0.00    +0.000 OA
ATOM     13  H   UNL     1       5.812   8.386  16.822  0.00  0.00    +0.000 HD
BRANCH  11  14
ATOM     14  C   UNL     1       8.150   8.848  17.569  0.00  0.00    +0.000 C 
BRANCH  14  15
ATOM     15  S   UNL     1       8.914   9.603  19.046  0.00  0.00    +0.000 S 
BRANCH  15  16
ATOM     16  C   UNL     1       9.574  11.070  18.360  0.00  0.00    +0.000 A 
ATOM     17  N   UNL     1      10.743  11.082  17.763  0.00  0.00    +0.000 NA
ATOM     18  N   UNL     1      11.053  12.330  17.260  0.00  0.00    +0.000 NA
ATOM     19  C   UNL     1      10.116  13.218  17.487  0.00  0.00    +0.000 A 
ATOM     20  N   UNL     1      10.192  14.500  17.083  0.00  0.00    +0.000 N 
ATOM     21  S   UNL     1       8.757  12.577  18.325  0.00  0.00    +0.000 S 
ATOM     22  H   UNL     1      10.907  14.722  16.395  0.00  0.00    +0.000 HD
ATOM     23  H   UNL     1       9.339  15.037  16.994  0.00  0.00    +0.000 HD
ENDBRANCH  15  16
ENDBRANCH  14  15
ENDBRANCH  11  14
ENDBRANCH   2  10
BRANCH   1  24
ATOM     24  C   UNL     1       2.927   7.859  17.762  0.00  0.00    +0.000 C 
ATOM     25  O   UNL     1       2.887   8.668  16.838  0.00  0.00    +0.000 OA
BRANCH  24  30
ATOM     26  C   UNL     1      -0.055   9.153  22.571  0.00  0.00    +0.000 C 
ATOM     27  C   UNL     1       0.663   8.745  21.317  0.00  0.00    +0.000 A 
ATOM     28  C   UNL     1       1.452   7.597  21.247  0.00  0.00    +0.000 A 
ATOM     29  C   UNL     1       2.155   7.298  20.072  0.00  0.00    +0.000 A 
ATOM     30  C   UNL     1       2.100   8.162  18.967  0.00  0.00    +0.000 A 
ATOM     31  C   UNL     1       1.270   9.282  19.019  0.00  0.00    +0.000 A 
ATOM     32  C   UNL     1       0.558   9.557  20.186  0.00  0.00    +0.000 A 
ENDBRANCH  24  30
ENDBRANCH   1  24
TORSDOF 6
ENDMDL
MODEL 8
REMARK VINA RESULT:      -7.3      3.287      5.390
REMARK  Name = 
REMARK  7 active torsions:
REMARK  status: ('A' for Active; 'I' for Inactive)
REMARK    1  A    between atoms: C_1  and  C_2
REMARK    2  A    between atoms: C_5  and  C_6
REMARK    3  A    between atoms: C_6  and  C_8
REMARK    4  A    between atoms: C_9  and  N_10
REMARK    5  A    between atoms: C_11  and  C_13
REMARK    6  A    between atoms: C_13  and  S_14
REMARK    7  A    between atoms: S_14  and  C_15
REMARK                            x       y       z     vdW  Elec       q    Type
REMARK                         _______ _______ _______ _____ _____    ______ ____
ROOT
ATOM      1  C   UNL     1       5.512   5.312  17.085  0.00  0.00    +0.000 A 
ATOM      2  C   UNL     1       5.362   6.647  17.469  0.00  0.00    +0.000 A 
ATOM      3  S   UNL     1       3.826   6.954  18.144  0.00  0.00    +0.000 S 
ATOM      4  C   UNL     1       3.338   5.348  17.987  0.00  0.00    +0.000 A 
ATOM      5  C   UNL     1       4.308   4.555  17.406  0.00  0.00    +0.000 A 
ATOM      6  C   UNL     1       4.068   3.078  17.218  0.00  0.00    +0.000 C 
ATOM      7  C   UNL     1       2.566   2.742  17.221  0.00  0.00    +0.000 C 
ATOM      8  C   UNL     1       1.848   3.382  18.416  0.00  0.00    +0.000 C 
ATOM      9  C   UNL     1       1.967   4.910  18.405  0.00  0.00    +0.000 C 
ENDROOT
BRANCH   2  10
ATOM     10  N   UNL     1       6.251   7.713  17.311  0.00  0.00    +0.000 N 
ATOM     11  C   UNL     1       7.506   7.810  17.921  0.00  0.00    +0.000 C 
ATOM     12  O   UNL     1       7.978   7.025  18.737  0.00  0.00    +0.000 OA
ATOM     13  H   UNL     1       6.068   8.345  16.542  0.00  0.00    +0.000 HD
BRANCH  11  14
ATOM     14  C   UNL     1       8.284   9.042  17.462  0.00  0.00    +0.000 C 
BRANCH  14  15
ATOM     15  S   UNL     1       9.121   9.882  18.852  0.00  0.00    +0.000 S 
BRANCH  15  16
ATOM     16  C   UNL     1       9.561  11.399  18.100  0.00  0.00    +0.000 A 
ATOM     17  N   UNL     1       8.662  12.314  17.825  0.00  0.00    +0.000 NA
ATOM     18  N   UNL     1       9.228  13.446  17.273  0.00  0.00    +0.000 NA
ATOM     19  C   UNL     1      10.530  13.355  17.150  0.00  0.00    +0.000 A 
ATOM     20  N   UNL     1      11.300  14.338  16.646  0.00  0.00    +0.000 N 
ATOM     21  S   UNL     1      11.169  11.867  17.730  0.00  0.00    +0.000 S 
ATOM     22  H   UNL     1      10.873  15.256  16.559  0.00  0.00    +0.000 HD
ATOM     23  H   UNL     1      12.286  14.351  16.869  0.00  0.00    +0.000 HD
ENDBRANCH  15  16
ENDBRANCH  14  15
ENDBRANCH  11  14
ENDBRANCH   2  10
BRANCH   1  24
ATOM     24  C   UNL     1       6.699   4.725  16.439  0.00  0.00    +0.000 C 
ATOM     25  O   UNL     1       7.664   4.331  17.089  0.00  0.00    +0.000 OA
BRANCH  24  30
ATOM     26  C   UNL     1       7.199   3.958  10.708  0.00  0.00    +0.000 C 
ATOM     27  C   UNL     1       7.041   4.242  12.173  0.00  0.00    +0.000 A 
ATOM     28  C   UNL     1       7.846   5.157  12.850  0.00  0.00    +0.000 A 
ATOM     29  C   UNL     1       7.701   5.334  14.233  0.00  0.00    +0.000 A 
ATOM     30  C   UNL     1       6.769   4.573  14.956  0.00  0.00    +0.000 A 
ATOM     31  C   UNL     1       5.929   3.695  14.272  0.00  0.00    +0.000 A 
ATOM     32  C   UNL     1       6.068   3.544  12.893  0.00  0.00    +0.000 A 
ENDBRANCH  24  30
ENDBRANCH   1  24
TORSDOF 6
ENDMDL
MODEL 9
REMARK VINA RESULT:      -7.2      1.127      1.437
REMARK  Name = 
REMARK  7 active torsions:
REMARK  status: ('A' for Active; 'I' for Inactive)
REMARK    1  A    between atoms: C_1  and  C_2
REMARK    2  A    between atoms: C_5  and  C_6
REMARK    3  A    between atoms: C_6  and  C_8
REMARK    4  A    between atoms: C_9  and  N_10
REMARK    5  A    between atoms: C_11  and  C_13
REMARK    6  A    between atoms: C_13  and  S_14
REMARK    7  A    between atoms: S_14  and  C_15
REMARK                            x       y       z     vdW  Elec       q    Type
REMARK                         _______ _______ _______ _____ _____    ______ ____
ROOT
ATOM      1  C   UNL     1       3.842   5.842  17.919  0.00  0.00    +0.000 A 
ATOM      2  C   UNL     1       5.193   5.533  18.095  0.00  0.00    +0.000 A 
ATOM      3  S   UNL     1       5.436   3.880  18.438  0.00  0.00    +0.000 S 
ATOM      4  C   UNL     1       3.791   3.524  18.326  0.00  0.00    +0.000 A 
ATOM      5  C   UNL     1       3.026   4.640  18.050  0.00  0.00    +0.000 A 
ATOM      6  C   UNL     1       1.534   4.513  17.874  0.00  0.00    +0.000 C 
ATOM      7  C   UNL     1       0.991   3.237  18.542  0.00  0.00    +0.000 C 
ATOM      8  C   UNL     1       1.811   2.002  18.148  0.00  0.00    +0.000 C 
ATOM      9  C   UNL     1       3.281   2.135  18.562  0.00  0.00    +0.000 C 
ENDROOT
BRANCH   2  10
ATOM     10  N   UNL     1       6.300   6.386  18.090  0.00  0.00    +0.000 N 
ATOM     11  C   UNL     1       7.370   6.318  18.987  0.00  0.00    +0.000 C 
ATOM     12  O   UNL     1       7.463   5.565  19.950  0.00  0.00    +0.000 OA
ATOM     13  H   UNL     1       6.439   6.941  17.255  0.00  0.00    +0.000 HD
BRANCH  11  14
ATOM     14  C   UNL     1       8.476   7.317  18.651  0.00  0.00    +0.000 C 
BRANCH  14  15
ATOM     15  S   UNL     1       7.819   8.828  17.861  0.00  0.00    +0.000 S 
BRANCH  15  16
ATOM     16  C   UNL     1       8.959  10.022  18.440  0.00  0.00    +0.000 A 
ATOM     17  N   UNL     1       9.667  10.751  17.611  0.00  0.00    +0.000 NA
ATOM     18  N   UNL     1      10.471  11.656  18.276  0.00  0.00    +0.000 NA
ATOM     19  C   UNL     1      10.346  11.586  19.579  0.00  0.00    +0.000 A 
ATOM     20  N   UNL     1      11.022  12.375  20.436  0.00  0.00    +0.000 N 
ATOM     21  S   UNL     1       9.202  10.408  20.093  0.00  0.00    +0.000 S 
ATOM     22  H   UNL     1      11.482  13.191  20.041  0.00  0.00    +0.000 HD
ATOM     23  H   UNL     1      10.661  12.504  21.371  0.00  0.00    +0.000 HD
ENDBRANCH  15  16
ENDBRANCH  14  15
ENDBRANCH  11  14
ENDBRANCH   2  10
BRANCH   1  24
ATOM     24  C   UNL     1       3.288   7.179  17.647  0.00  0.00    +0.000 C 
ATOM     25  O   UNL     1       3.504   7.770  16.591  0.00  0.00    +0.000 OA
BRANCH  24  30
ATOM     26  C   UNL     1      -0.299   9.744  21.421  0.00  0.00    +0.000 C 
ATOM     27  C   UNL     1       0.683   9.155  20.451  0.00  0.00    +0.000 A 
ATOM     28  C   UNL     1       0.890   9.687  19.178  0.00  0.00    +0.000 A 
ATOM     29  C   UNL     1       1.769   9.057  18.287  0.00  0.00    +0.000 A 
ATOM     30  C   UNL     1       2.425   7.871  18.649  0.00  0.00    +0.000 A 
ATOM     31  C   UNL     1       2.258   7.367  19.939  0.00  0.00    +0.000 A 
ATOM     32  C   UNL     1       1.398   8.015  20.825  0.00  0.00    +0.000 A 
ENDBRANCH  24  30
ENDBRANCH   1  24
TORSDOF 6
ENDMDL
