MODEL 1
REMARK VINA RESULT:      -7.1      0.000      0.000
REMARK  Name = 
REMARK  6 active torsions:
REMARK  status: ('A' for Active; 'I' for Inactive)
REMARK    1  A    between atoms: C_4  and  C_5
REMARK    2  A    between atoms: C_5  and  N_6
REMARK    3  A    between atoms: C_13  and  C_14
REMARK    4  A    between atoms: C_14  and  O_15
REMARK    5  A    between atoms: O_15  and  C_16
REMARK    6  A    between atoms: C_16  and  C_17
REMARK                            x       y       z     vdW  Elec       q    Type
REMARK                         _______ _______ _______ _____ _____    ______ ____
ROOT
ATOM      1  N   UNL     1       3.000   2.827  17.713  0.00  0.00    +0.000 NA
ATOM      2  C   UNL     1       3.817   2.031  18.606  0.00  0.00    +0.000 C 
ATOM      3  C   UNL     1       4.400   2.783  19.794  0.00  0.00    +0.000 C 
ATOM      4  C   UNL     1       5.218   4.021  19.462  0.00  0.00    +0.000 C 
ATOM      5  N   UNL     1       5.732   4.186  18.123  0.00  0.00    +0.000 N 
ATOM      6  C   UNL     1       6.991   4.652  17.851  0.00  0.00    +0.000 A 
ATOM      7  N   UNL     1       7.148   4.935  16.583  0.00  0.00    +0.000 NA
ATOM      8  C   UNL     1       5.949   4.614  15.990  0.00  0.00    +0.000 A 
ATOM      9  C   UNL     1       5.056   4.104  16.932  0.00  0.00    +0.000 A 
ATOM     10  C   UNL     1       3.673   3.607  16.683  0.00  0.00    +0.000 C 
ENDROOT
BRANCH   1  11
ATOM     11  C   UNL     1       1.793   3.437  18.265  0.00  0.00    +0.000 C 
BRANCH  11  15
ATOM     12  C   UNL     1       2.555   7.147  18.594  0.00  0.00    +0.000 A 
ATOM     13  C   UNL     1       2.350   6.961  19.940  0.00  0.00    +0.000 A 
ATOM     14  S   UNL     1       1.905   5.352  20.307  0.00  0.00    +0.000 S 
ATOM     15  C   UNL     1       2.014   4.879  18.662  0.00  0.00    +0.000 A 
ATOM     16  C   UNL     1       2.350   5.942  17.856  0.00  0.00    +0.000 A 
ENDBRANCH  11  15
ENDBRANCH   1  11
BRANCH   8  17
ATOM     17  C   UNL     1       5.755   4.807  14.517  0.00  0.00    +0.000 C 
BRANCH  17  18
ATOM     18  O   UNL     1       6.986   4.661  13.804  0.00  0.00    +0.000 OA
BRANCH  18  19
ATOM     19  C   UNL     1       6.778   4.192  12.475  0.00  0.00    +0.000 C 
BRANCH  19  20
ATOM     20  C   UNL     1       5.654   3.205  12.513  0.00  0.00    +0.000 C 
ATOM     21  C   UNL     1       4.566   3.284  11.470  0.00  0.00    +0.000 C 
ATOM     22  C   UNL     1       5.513   2.118  11.475  0.00  0.00    +0.000 C 
ENDBRANCH  19  20
ENDBRANCH  18  19
ENDBRANCH  17  18
ENDBRANCH   8  17
TORSDOF 6
ENDMDL
MODEL 2
REMARK VINA RESULT:      -7.1      1.724      2.607
REMARK  Name = 
REMARK  6 active torsions:
REMARK  status: ('A' for Active; 'I' for Inactive)
REMARK    1  A    between atoms: C_4  and  C_5
REMARK    2  A    between atoms: C_5  and  N_6
REMARK    3  A    between atoms: C_13  and  C_14
REMARK    4  A    between atoms: C_14  and  O_15
REMARK    5  A    between atoms: O_15  and  C_16
REMARK    6  A    between atoms: C_16  and  C_17
REMARK                            x       y       z     vdW  Elec       q    Type
REMARK                         _______ _______ _______ _____ _____    ______ ____
ROOT
ATOM      1  N   UNL     1       4.313   3.765  17.775  0.00  0.00    +0.000 NA
ATOM      2  C   UNL     1       5.367   4.009  18.739  0.00  0.00    +0.000 C 
ATOM      3  C   UNL     1       5.703   5.474  18.976  0.00  0.00    +0.000 C 
ATOM      4  C   UNL     1       6.065   6.283  17.739  0.00  0.00    +0.000 C 
ATOM      5  N   UNL     1       6.464   5.588  16.538  0.00  0.00    +0.000 N 
ATOM      6  C   UNL     1       7.495   6.001  15.737  0.00  0.00    +0.000 A 
ATOM      7  N   UNL     1       7.520   5.359  14.596  0.00  0.00    +0.000 NA
ATOM      8  C   UNL     1       6.477   4.465  14.663  0.00  0.00    +0.000 A 
ATOM      9  C   UNL     1       5.822   4.564  15.890  0.00  0.00    +0.000 A 
ATOM     10  C   UNL     1       4.670   3.744  16.363  0.00  0.00    +0.000 C 
ENDROOT
BRANCH   1  11
ATOM     11  C   UNL     1       2.988   4.302  18.073  0.00  0.00    +0.000 C 
BRANCH  11  15
ATOM     12  C   UNL     1       1.516   2.318  20.963  0.00  0.00    +0.000 A 
ATOM     13  C   UNL     1       1.450   3.524  21.617  0.00  0.00    +0.000 A 
ATOM     14  S   UNL     1       2.086   4.802  20.678  0.00  0.00    +0.000 S 
ATOM     15  C   UNL     1       2.428   3.752  19.366  0.00  0.00    +0.000 A 
ATOM     16  C   UNL     1       2.093   2.452  19.663  0.00  0.00    +0.000 A 
ENDBRANCH  11  15
ENDBRANCH   1  11
BRANCH   8  17
ATOM     17  C   UNL     1       6.194   3.543  13.516  0.00  0.00    +0.000 C 
BRANCH  17  18
ATOM     18  O   UNL     1       4.990   3.910  12.835  0.00  0.00    +0.000 OA
BRANCH  18  19
ATOM     19  C   UNL     1       4.840   3.209  11.605  0.00  0.00    +0.000 C 
BRANCH  19  20
ATOM     20  C   UNL     1       3.444   3.439  11.118  0.00  0.00    +0.000 C 
ATOM     21  C   UNL     1       3.223   4.252   9.866  0.00  0.00    +0.000 C 
ATOM     22  C   UNL     1       2.918   2.781   9.865  0.00  0.00    +0.000 C 
ENDBRANCH  19  20
ENDBRANCH  18  19
ENDBRANCH  17  18
ENDBRANCH   8  17
TORSDOF 6
ENDMDL
MODEL 3
REMARK VINA RESULT:      -6.8      0.862      1.185
REMARK  Name = 
REMARK  6 active torsions:
REMARK  status: ('A' for Active; 'I' for Inactive)
REMARK    1  A    between atoms: C_4  and  C_5
REMARK    2  A    between atoms: C_5  and  N_6
REMARK    3  A    between atoms: C_13  and  C_14
REMARK    4  A    between atoms: C_14  and  O_15
REMARK    5  A    between atoms: O_15  and  C_16
REMARK    6  A    between atoms: C_16  and  C_17
REMARK                            x       y       z     vdW  Elec       q    Type
REMARK                         _______ _______ _______ _____ _____    ______ ____
ROOT
ATOM      1  N   UNL     1       2.796   2.905  17.550  0.00  0.00    +0.000 NA
ATOM      2  C   UNL     1       3.588   1.906  18.239  0.00  0.00    +0.000 C 
ATOM      3  C   UNL     1       4.128   2.333  19.597  0.00  0.00    +0.000 C 
ATOM      4  C   UNL     1       4.950   3.613  19.615  0.00  0.00    +0.000 C 
ATOM      5  N   UNL     1       5.506   4.107  18.378  0.00  0.00    +0.000 N 
ATOM      6  C   UNL     1       6.771   4.623  18.273  0.00  0.00    +0.000 A 
ATOM      7  N   UNL     1       6.968   5.216  17.123  0.00  0.00    +0.000 NA
ATOM      8  C   UNL     1       5.791   5.058  16.430  0.00  0.00    +0.000 A 
ATOM      9  C   UNL     1       4.870   4.331  17.183  0.00  0.00    +0.000 A 
ATOM     10  C   UNL     1       3.498   3.917  16.771  0.00  0.00    +0.000 C 
ENDROOT
BRANCH   1  11
ATOM     11  C   UNL     1       1.569   3.360  18.198  0.00  0.00    +0.000 C 
BRANCH  11  15
ATOM     12  C   UNL     1       1.843   6.120  20.797  0.00  0.00    +0.000 A 
ATOM     13  C   UNL     1       2.205   6.928  19.746  0.00  0.00    +0.000 A 
ATOM     14  S   UNL     1       2.277   6.070  18.270  0.00  0.00    +0.000 S 
ATOM     15  C   UNL     1       1.790   4.608  19.023  0.00  0.00    +0.000 A 
ATOM     16  C   UNL     1       1.613   4.775  20.376  0.00  0.00    +0.000 A 
ENDBRANCH  11  15
ENDBRANCH   1  11
BRANCH   8  17
ATOM     17  C   UNL     1       5.643   5.618  15.048  0.00  0.00    +0.000 C 
BRANCH  17  18
ATOM     18  O   UNL     1       6.610   5.060  14.153  0.00  0.00    +0.000 OA
BRANCH  18  19
ATOM     19  C   UNL     1       6.306   3.711  13.814  0.00  0.00    +0.000 C 
BRANCH  19  20
ATOM     20  C   UNL     1       6.048   3.660  12.341  0.00  0.00    +0.000 C 
ATOM     21  C   UNL     1       5.811   2.325  11.678  0.00  0.00    +0.000 C 
ATOM     22  C   UNL     1       4.689   3.318  11.781  0.00  0.00    +0.000 C 
ENDBRANCH  19  20
ENDBRANCH  18  19
ENDBRANCH  17  18
ENDBRANCH   8  17
TORSDOF 6
ENDMDL
MODEL 4
REMARK VINA RESULT:      -6.8      3.774      7.116
REMARK  Name = 
REMARK  6 active torsions:
REMARK  status: ('A' for Active; 'I' for Inactive)
REMARK    1  A    between atoms: C_4  and  C_5
REMARK    2  A    between atoms: C_5  and  N_6
REMARK    3  A    between atoms: C_13  and  C_14
REMARK    4  A    between atoms: C_14  and  O_15
REMARK    5  A    between atoms: O_15  and  C_16
REMARK    6  A    between atoms: C_16  and  C_17
REMARK                            x       y       z     vdW  Elec       q    Type
REMARK                         _______ _______ _______ _____ _____    ______ ____
ROOT
ATOM      1  N   UNL     1       5.085   3.708  19.198  0.00  0.00    +0.000 NA
ATOM      2  C   UNL     1       4.814   2.336  19.577  0.00  0.00    +0.000 C 
ATOM      3  C   UNL     1       3.883   1.578  18.640  0.00  0.00    +0.000 C 
ATOM      4  C   UNL     1       2.530   2.222  18.381  0.00  0.00    +0.000 C 
ATOM      5  N   UNL     1       2.046   3.230  19.293  0.00  0.00    +0.000 N 
ATOM      6  C   UNL     1       0.744   3.301  19.715  0.00  0.00    +0.000 A 
ATOM      7  N   UNL     1       0.491   4.421  20.344  0.00  0.00    +0.000 NA
ATOM      8  C   UNL     1       1.685   5.103  20.362  0.00  0.00    +0.000 A 
ATOM      9  C   UNL     1       2.687   4.357  19.741  0.00  0.00    +0.000 A 
ATOM     10  C   UNL     1       4.122   4.729  19.591  0.00  0.00    +0.000 C 
ENDROOT
BRANCH   1  11
ATOM     11  C   UNL     1       5.746   3.938  17.916  0.00  0.00    +0.000 C 
BRANCH  11  15
ATOM     12  C   UNL     1       8.031   6.930  18.444  0.00  0.00    +0.000 A 
ATOM     13  C   UNL     1       7.277   7.542  17.471  0.00  0.00    +0.000 A 
ATOM     14  S   UNL     1       6.070   6.507  16.846  0.00  0.00    +0.000 S 
ATOM     15  C   UNL     1       6.526   5.233  17.901  0.00  0.00    +0.000 A 
ATOM     16  C   UNL     1       7.599   5.589  18.683  0.00  0.00    +0.000 A 
ENDBRANCH  11  15
ENDBRANCH   1  11
BRANCH   8  17
ATOM     17  C   UNL     1       1.780   6.449  21.011  0.00  0.00    +0.000 C 
BRANCH  17  18
ATOM     18  O   UNL     1       2.078   7.471  20.054  0.00  0.00    +0.000 OA
BRANCH  18  19
ATOM     19  C   UNL     1       1.242   8.612  20.217  0.00  0.00    +0.000 C 
BRANCH  19  20
ATOM     20  C   UNL     1       0.905   8.724  21.671  0.00  0.00    +0.000 C 
ATOM     21  C   UNL     1       0.427  10.047  22.218  0.00  0.00    +0.000 C 
ATOM     22  C   UNL     1      -0.518   8.881  22.149  0.00  0.00    +0.000 C 
ENDBRANCH  19  20
ENDBRANCH  18  19
ENDBRANCH  17  18
ENDBRANCH   8  17
TORSDOF 6
ENDMDL
MODEL 5
REMARK VINA RESULT:      -6.7      1.838      2.654
REMARK  Name = 
REMARK  6 active torsions:
REMARK  status: ('A' for Active; 'I' for Inactive)
REMARK    1  A    between atoms: C_4  and  C_5
REMARK    2  A    between atoms: C_5  and  N_6
REMARK    3  A    between atoms: C_13  and  C_14
REMARK    4  A    between atoms: C_14  and  O_15
REMARK    5  A    between atoms: O_15  and  C_16
REMARK    6  A    between atoms: C_16  and  C_17
REMARK                            x       y       z     vdW  Elec       q    Type
REMARK                         _______ _______ _______ _____ _____    ______ ____
ROOT
ATOM      1  N   UNL     1       4.236   3.795  17.707  0.00  0.00    +0.000 NA
ATOM      2  C   UNL     1       5.278   4.041  18.683  0.00  0.00    +0.000 C 
ATOM      3  C   UNL     1       5.628   5.506  18.902  0.00  0.00    +0.000 C 
ATOM      4  C   UNL     1       6.019   6.290  17.658  0.00  0.00    +0.000 C 
ATOM      5  N   UNL     1       6.427   5.572  16.475  0.00  0.00    +0.000 N 
ATOM      6  C   UNL     1       7.476   5.959  15.683  0.00  0.00    +0.000 A 
ATOM      7  N   UNL     1       7.511   5.298  14.553  0.00  0.00    +0.000 NA
ATOM      8  C   UNL     1       6.455   4.419  14.618  0.00  0.00    +0.000 A 
ATOM      9  C   UNL     1       5.783   4.545  15.832  0.00  0.00    +0.000 A 
ATOM     10  C   UNL     1       4.614   3.747  16.301  0.00  0.00    +0.000 C 
ENDROOT
BRANCH   1  11
ATOM     11  C   UNL     1       2.913   4.352  17.976  0.00  0.00    +0.000 C 
BRANCH  11  15
ATOM     12  C   UNL     1       1.649   3.713  21.503  0.00  0.00    +0.000 A 
ATOM     13  C   UNL     1       1.462   2.417  21.087  0.00  0.00    +0.000 A 
ATOM     14  S   UNL     1       1.872   2.204  19.442  0.00  0.00    +0.000 S 
ATOM     15  C   UNL     1       2.336   3.847  19.279  0.00  0.00    +0.000 A 
ATOM     16  C   UNL     1       2.145   4.541  20.450  0.00  0.00    +0.000 A 
ENDBRANCH  11  15
ENDBRANCH   1  11
BRANCH   8  17
ATOM     17  C   UNL     1       6.178   3.482  13.482  0.00  0.00    +0.000 C 
BRANCH  17  18
ATOM     18  O   UNL     1       5.382   4.108  12.471  0.00  0.00    +0.000 OA
BRANCH  18  19
ATOM     19  C   UNL     1       4.279   3.295  12.084  0.00  0.00    +0.000 C 
BRANCH  19  20
ATOM     20  C   UNL     1       4.117   3.423  10.602  0.00  0.00    +0.000 C 
ATOM     21  C   UNL     1       2.894   2.839   9.938  0.00  0.00    +0.000 C 
ATOM     22  C   UNL     1       3.076   4.329   9.989  0.00  0.00    +0.000 C 
ENDBRANCH  19  20
ENDBRANCH  18  19
ENDBRANCH  17  18
ENDBRANCH   8  17
TORSDOF 6
ENDMDL
MODEL 6
REMARK VINA RESULT:      -6.7      2.745      4.232
REMARK  Name = 
REMARK  6 active torsions:
REMARK  status: ('A' for Active; 'I' for Inactive)
REMARK    1  A    between atoms: C_4  and  C_5
REMARK    2  A    between atoms: C_5  and  N_6
REMARK    3  A    between atoms: C_13  and  C_14
REMARK    4  A    between atoms: C_14  and  O_15
REMARK    5  A    between atoms: O_15  and  C_16
REMARK    6  A    between atoms: C_16  and  C_17
REMARK                            x       y       z     vdW  Elec       q    Type
REMARK                         _______ _______ _______ _____ _____    ______ ____
ROOT
ATOM      1  N   UNL     1       1.659   5.354  19.735  0.00  0.00    +0.000 NA
ATOM      2  C   UNL     1       0.805   4.261  20.155  0.00  0.00    +0.000 C 
ATOM      3  C   UNL     1       1.393   3.357  21.230  0.00  0.00    +0.000 C 
ATOM      4  C   UNL     1       2.746   2.740  20.914  0.00  0.00    +0.000 C 
ATOM      5  N   UNL     1       3.194   2.692  19.542  0.00  0.00    +0.000 N 
ATOM      6  C   UNL     1       3.825   1.608  18.993  0.00  0.00    +0.000 A 
ATOM      7  N   UNL     1       4.340   1.879  17.821  0.00  0.00    +0.000 NA
ATOM      8  C   UNL     1       4.008   3.191  17.576  0.00  0.00    +0.000 A 
ATOM      9  C   UNL     1       3.254   3.712  18.626  0.00  0.00    +0.000 A 
ATOM     10  C   UNL     1       2.671   5.080  18.723  0.00  0.00    +0.000 C 
ENDROOT
BRANCH   1  11
ATOM     11  C   UNL     1       2.038   6.342  20.742  0.00  0.00    +0.000 C 
BRANCH  11  15
ATOM     12  C   UNL     1       1.201   9.757  19.298  0.00  0.00    +0.000 A 
ATOM     13  C   UNL     1       0.564   9.988  20.493  0.00  0.00    +0.000 A 
ATOM     14  S   UNL     1       0.629   8.631  21.530  0.00  0.00    +0.000 S 
ATOM     15  C   UNL     1       1.543   7.728  20.394  0.00  0.00    +0.000 A 
ATOM     16  C   UNL     1       1.758   8.443  19.240  0.00  0.00    +0.000 A 
ENDBRANCH  11  15
ENDBRANCH   1  11
BRANCH   8  17
ATOM     17  C   UNL     1       4.436   3.857  16.304  0.00  0.00    +0.000 C 
BRANCH  17  18
ATOM     18  O   UNL     1       5.785   4.327  16.388  0.00  0.00    +0.000 OA
BRANCH  18  19
ATOM     19  C   UNL     1       5.846   5.717  16.691  0.00  0.00    +0.000 C 
BRANCH  19  20
ATOM     20  C   UNL     1       7.250   6.032  17.103  0.00  0.00    +0.000 C 
ATOM     21  C   UNL     1       7.589   7.428  17.564  0.00  0.00    +0.000 C 
ATOM     22  C   UNL     1       7.620   6.289  18.543  0.00  0.00    +0.000 C 
ENDBRANCH  19  20
ENDBRANCH  18  19
ENDBRANCH  17  18
ENDBRANCH   8  17
TORSDOF 6
ENDMDL
MODEL 7
REMARK VINA RESULT:      -6.7      3.583      5.706
REMARK  Name = 
REMARK  6 active torsions:
REMARK  status: ('A' for Active; 'I' for Inactive)
REMARK    1  A    between atoms: C_4  and  C_5
REMARK    2  A    between atoms: C_5  and  N_6
REMARK    3  A    between atoms: C_13  and  C_14
REMARK    4  A    between atoms: C_14  and  O_15
REMARK    5  A    between atoms: O_15  and  C_16
REMARK    6  A    between atoms: C_16  and  C_17
REMARK                            x       y       z     vdW  Elec       q    Type
REMARK                         _______ _______ _______ _____ _____    ______ ____
ROOT
ATOM      1  N   UNL     1       4.272   4.918  18.993  0.00  0.00    +0.000 NA
ATOM      2  C   UNL     1       3.454   5.045  17.803  0.00  0.00    +0.000 C 
ATOM      3  C   UNL     1       3.758   4.042  16.699  0.00  0.00    +0.000 C 
ATOM      4  C   UNL     1       5.200   3.996  16.218  0.00  0.00    +0.000 C 
ATOM      5  N   UNL     1       6.070   5.113  16.501  0.00  0.00    +0.000 N 
ATOM      6  C   UNL     1       6.961   5.623  15.594  0.00  0.00    +0.000 A 
ATOM      7  N   UNL     1       7.795   6.469  16.143  0.00  0.00    +0.000 NA
ATOM      8  C   UNL     1       7.417   6.540  17.464  0.00  0.00    +0.000 A 
ATOM      9  C   UNL     1       6.311   5.726  17.704  0.00  0.00    +0.000 A 
ATOM     10  C   UNL     1       5.581   5.559  18.993  0.00  0.00    +0.000 C 
ENDROOT
BRANCH   1  11
ATOM     11  C   UNL     1       4.193   3.664  19.737  0.00  0.00    +0.000 C 
BRANCH  11  15
ATOM     12  C   UNL     1       0.831   1.915  19.443  0.00  0.00    +0.000 A 
ATOM     13  C   UNL     1       0.372   2.885  20.301  0.00  0.00    +0.000 A 
ATOM     14  S   UNL     1       1.613   3.953  20.789  0.00  0.00    +0.000 S 
ATOM     15  C   UNL     1       2.777   3.142  19.825  0.00  0.00    +0.000 A 
ATOM     16  C   UNL     1       2.227   2.061  19.177  0.00  0.00    +0.000 A 
ENDBRANCH  11  15
ENDBRANCH   1  11
BRANCH   8  17
ATOM     17  C   UNL     1       8.158   7.427  18.417  0.00  0.00    +0.000 C 
BRANCH  17  18
ATOM     18  O   UNL     1       8.135   8.792  17.988  0.00  0.00    +0.000 OA
BRANCH  18  19
ATOM     19  C   UNL     1       8.913   9.629  18.837  0.00  0.00    +0.000 C 
BRANCH  19  20
ATOM     20  C   UNL     1       9.099  10.939  18.137  0.00  0.00    +0.000 C 
ATOM     21  C   UNL     1       9.575  12.136  18.923  0.00  0.00    +0.000 C 
ATOM     22  C   UNL     1      10.468  11.520  17.883  0.00  0.00    +0.000 C 
ENDBRANCH  19  20
ENDBRANCH  18  19
ENDBRANCH  17  18
ENDBRANCH   8  17
TORSDOF 6
ENDMDL
MODEL 8
REMARK VINA RESULT:      -6.6      2.623      4.198
REMARK  Name = 
REMARK  6 active torsions:
REMARK  status: ('A' for Active; 'I' for Inactive)
REMARK    1  A    between atoms: C_4  and  C_5
REMARK    2  A    between atoms: C_5  and  N_6
REMARK    3  A    between atoms: C_13  and  C_14
REMARK    4  A    between atoms: C_14  and  O_15
REMARK    5  A    between atoms: O_15  and  C_16
REMARK    6  A    between atoms: C_16  and  C_17
REMARK                            x       y       z     vdW  Elec       q    Type
REMARK                         _______ _______ _______ _____ _____    ______ ____
ROOT
ATOM      1  N   UNL     1       1.739   5.478  19.763  0.00  0.00    +0.000 NA
ATOM      2  C   UNL     1       0.832   4.391  20.073  0.00  0.00    +0.000 C 
ATOM      3  C   UNL     1       1.340   3.400  21.111  0.00  0.00    +0.000 C 
ATOM      4  C   UNL     1       2.686   2.757  20.815  0.00  0.00    +0.000 C 
ATOM      5  N   UNL     1       3.195   2.782  19.465  0.00  0.00    +0.000 N 
ATOM      6  C   UNL     1       3.816   1.713  18.874  0.00  0.00    +0.000 A 
ATOM      7  N   UNL     1       4.394   2.040  17.746  0.00  0.00    +0.000 NA
ATOM      8  C   UNL     1       4.116   3.376  17.573  0.00  0.00    +0.000 A 
ATOM      9  C   UNL     1       3.331   3.855  18.621  0.00  0.00    +0.000 A 
ATOM     10  C   UNL     1       2.788   5.234  18.781  0.00  0.00    +0.000 C 
ENDROOT
BRANCH   1  11
ATOM     11  C   UNL     1       2.102   6.385  20.848  0.00  0.00    +0.000 C 
BRANCH  11  15
ATOM     12  C   UNL     1       0.334   9.748  20.961  0.00  0.00    +0.000 A 
ATOM     13  C   UNL     1       0.800   9.916  19.679  0.00  0.00    +0.000 A 
ATOM     14  S   UNL     1       1.757   8.597  19.164  0.00  0.00    +0.000 S 
ATOM     15  C   UNL     1       1.529   7.770  20.649  0.00  0.00    +0.000 A 
ATOM     16  C   UNL     1       0.767   8.509  21.523  0.00  0.00    +0.000 A 
ENDBRANCH  11  15
ENDBRANCH   1  11
BRANCH   8  17
ATOM     17  C   UNL     1       4.624   4.107  16.368  0.00  0.00    +0.000 C 
BRANCH  17  18
ATOM     18  O   UNL     1       5.970   3.734  16.060  0.00  0.00    +0.000 OA
BRANCH  18  19
ATOM     19  C   UNL     1       6.827   4.867  15.965  0.00  0.00    +0.000 C 
BRANCH  19  20
ATOM     20  C   UNL     1       6.549   5.747  17.144  0.00  0.00    +0.000 C 
ATOM     21  C   UNL     1       7.528   5.777  18.291  0.00  0.00    +0.000 C 
ATOM     22  C   UNL     1       7.360   6.989  17.420  0.00  0.00    +0.000 C 
ENDBRANCH  19  20
ENDBRANCH  18  19
ENDBRANCH  17  18
ENDBRANCH   8  17
TORSDOF 6
ENDMDL
MODEL 9
REMARK VINA RESULT:      -6.6      3.658      5.610
REMARK  Name = 
REMARK  6 active torsions:
REMARK  status: ('A' for Active; 'I' for Inactive)
REMARK    1  A    between atoms: C_4  and  C_5
REMARK    2  A    between atoms: C_5  and  N_6
REMARK    3  A    between atoms: C_13  and  C_14
REMARK    4  A    between atoms: C_14  and  O_15
REMARK    5  A    between atoms: O_15  and  C_16
REMARK    6  A    between atoms: C_16  and  C_17
REMARK                            x       y       z     vdW  Elec       q    Type
REMARK                         _______ _______ _______ _____ _____    ______ ____
ROOT
ATOM      1  N   UNL     1       3.178   6.298  18.315  0.00  0.00    +0.000 NA
ATOM      2  C   UNL     1       2.936   5.054  17.611  0.00  0.00    +0.000 C 
ATOM      3  C   UNL     1       3.404   3.800  18.335  0.00  0.00    +0.000 C 
ATOM      4  C   UNL     1       4.867   3.775  18.748  0.00  0.00    +0.000 C 
ATOM      5  N   UNL     1       5.791   4.684  18.112  0.00  0.00    +0.000 N 
ATOM      6  C   UNL     1       7.055   4.325  17.723  0.00  0.00    +0.000 A 
ATOM      7  N   UNL     1       7.781   5.361  17.389  0.00  0.00    +0.000 NA
ATOM      8  C   UNL     1       6.950   6.447  17.537  0.00  0.00    +0.000 A 
ATOM      9  C   UNL     1       5.682   6.042  17.954  0.00  0.00    +0.000 A 
ATOM     10  C   UNL     1       4.493   6.911  18.188  0.00  0.00    +0.000 C 
ENDROOT
BRANCH   1  11
ATOM     11  C   UNL     1       2.531   6.477  19.613  0.00  0.00    +0.000 C 
BRANCH  11  15
ATOM     12  C   UNL     1       0.754   9.689  20.599  0.00  0.00    +0.000 A 
ATOM     13  C   UNL     1       0.850  10.024  19.270  0.00  0.00    +0.000 A 
ATOM     14  S   UNL     1       1.673   8.833  18.363  0.00  0.00    +0.000 S 
ATOM     15  C   UNL     1       1.882   7.836  19.743  0.00  0.00    +0.000 A 
ATOM     16  C   UNL     1       1.362   8.426  20.871  0.00  0.00    +0.000 A 
ENDBRANCH  11  15
ENDBRANCH   1  11
BRANCH   8  17
ATOM     17  C   UNL     1       7.447   7.828  17.239  0.00  0.00    +0.000 C 
BRANCH  17  18
ATOM     18  O   UNL     1       8.255   8.335  18.306  0.00  0.00    +0.000 OA
BRANCH  18  19
ATOM     19  C   UNL     1       8.423   9.746  18.221  0.00  0.00    +0.000 C 
BRANCH  19  20
ATOM     20  C   UNL     1       9.555  10.124  19.124  0.00  0.00    +0.000 C 
ATOM     21  C   UNL     1      10.035  11.555  19.149  0.00  0.00    +0.000 C 
ATOM     22  C   UNL     1       9.345  10.976  20.352  0.00  0.00    +0.000 C 
ENDBRANCH  19  20
ENDBRANCH  18  19
ENDBRANCH  17  18
ENDBRANCH   8  17
TORSDOF 6
ENDMDL
