MODEL 1
REMARK VINA RESULT:      -7.8      0.000      0.000
REMARK  Name = 
REMARK  8 active torsions:
REMARK  status: ('A' for Active; 'I' for Inactive)
REMARK    1  A    between atoms: C_1  and  C_2
REMARK    2  A    between atoms: C_2  and  N_3
REMARK    3  A    between atoms: C_10  and  C_11
REMARK    4  A    between atoms: C_10  and  C_18
REMARK    5  A    between atoms: C_11  and  C_12
REMARK    6  A    between atoms: C_18  and  O_20
REMARK    7  A    between atoms: O_20  and  C_21
REMARK    8  A    between atoms: C_21  and  C_22
REMARK                            x       y       z     vdW  Elec       q    Type
REMARK                         _______ _______ _______ _____ _____    ______ ____
ROOT
ATOM      1  N   UNL     1       7.308   4.905  15.059  0.00  0.00    +0.000 N 
ATOM      2  C   UNL     1       6.085   5.075  15.661  0.00  0.00    +0.000 C 
ATOM      3  O   UNL     1       5.040   4.996  15.026  0.00  0.00    +0.000 OA
ATOM      4  N   UNL     1       6.127   5.333  17.013  0.00  0.00    +0.000 N 
ATOM      5  C   UNL     1       7.310   5.624  17.802  0.00  0.00    +0.000 C 
ATOM      6  C   UNL     1       6.913   5.209  19.199  0.00  0.00    +0.000 C 
ATOM      7  C   UNL     1       5.451   5.633  19.292  0.00  0.00    +0.000 C 
ATOM      8  C   UNL     1       4.881   5.471  17.845  0.00  0.00    +0.000 C 
ATOM      9  H   UNL     1       7.999   4.460  15.637  0.00  0.00    +0.000 HD
ENDROOT
BRANCH   1  11
ATOM     10  C   UNL     1       8.170   5.534  12.847  0.00  0.00    +0.000 C 
ATOM     11  C   UNL     1       7.358   4.540  13.654  0.00  0.00    +0.000 C 
ENDBRANCH   1  11
BRANCH   8  12
ATOM     12  C   UNL     1       4.125   6.757  17.386  0.00  0.00    +0.000 C 
ATOM     13  O   UNL     1       4.370   7.399  16.372  0.00  0.00    +0.000 OA
BRANCH  12  14
ATOM     14  O   UNL     1       3.184   7.136  18.302  0.00  0.00    +0.000 OA
BRANCH  14  15
ATOM     15  C   UNL     1       2.394   8.285  17.971  0.00  0.00    +0.000 C 
BRANCH  15  16
ATOM     16  C   UNL     1       1.576   8.689  19.175  0.00  0.00    +0.000 A 
ATOM     17  C   UNL     1       0.714   9.792  19.118  0.00  0.00    +0.000 A 
ATOM     18  C   UNL     1      -0.061  10.145  20.227  0.00  0.00    +0.000 A 
ATOM     19  C   UNL     1       0.026   9.403  21.404  0.00  0.00    +0.000 A 
ATOM     20  C   UNL     1       0.894   8.315  21.477  0.00  0.00    +0.000 A 
ATOM     21  C   UNL     1       1.670   7.963  20.371  0.00  0.00    +0.000 A 
ENDBRANCH  15  16
ENDBRANCH  14  15
ENDBRANCH  12  14
ENDBRANCH   8  12
BRANCH   8  22
ATOM     22  C   UNL     1       3.981   4.203  17.731  0.00  0.00    +0.000 C 
BRANCH  22  23
ATOM     23  C   UNL     1       3.108   3.847  18.919  0.00  0.00    +0.000 A 
ATOM     24  C   UNL     1       3.601   3.017  19.937  0.00  0.00    +0.000 A 
ATOM     25  C   UNL     1       2.814   2.698  21.045  0.00  0.00    +0.000 A 
ATOM     26  C   UNL     1       1.525   3.211  21.154  0.00  0.00    +0.000 A 
ATOM     27  C   UNL     1       1.028   4.052  20.162  0.00  0.00    +0.000 A 
ATOM     28  C   UNL     1       1.816   4.376  19.056  0.00  0.00    +0.000 A 
ENDBRANCH  22  23
ENDBRANCH   8  22
TORSDOF 7
ENDMDL
MODEL 2
REMARK VINA RESULT:      -7.8      0.122      1.318
REMARK  Name = 
REMARK  8 active torsions:
REMARK  status: ('A' for Active; 'I' for Inactive)
REMARK    1  A    between atoms: C_1  and  C_2
REMARK    2  A    between atoms: C_2  and  N_3
REMARK    3  A    between atoms: C_10  and  C_11
REMARK    4  A    between atoms: C_10  and  C_18
REMARK    5  A    between atoms: C_11  and  C_12
REMARK    6  A    between atoms: C_18  and  O_20
REMARK    7  A    between atoms: O_20  and  C_21
REMARK    8  A    between atoms: C_21  and  C_22
REMARK                            x       y       z     vdW  Elec       q    Type
REMARK                         _______ _______ _______ _____ _____    ______ ____
ROOT
ATOM      1  N   UNL     1       7.346   5.025  14.981  0.00  0.00    +0.000 N 
ATOM      2  C   UNL     1       6.124   5.172  15.591  0.00  0.00    +0.000 C 
ATOM      3  O   UNL     1       5.076   5.073  14.964  0.00  0.00    +0.000 OA
ATOM      4  N   UNL     1       6.171   5.432  16.943  0.00  0.00    +0.000 N 
ATOM      5  C   UNL     1       7.354   5.745  17.724  0.00  0.00    +0.000 C 
ATOM      6  C   UNL     1       6.975   5.323  19.124  0.00  0.00    +0.000 C 
ATOM      7  C   UNL     1       5.507   5.720  19.227  0.00  0.00    +0.000 C 
ATOM      8  C   UNL     1       4.929   5.547  17.785  0.00  0.00    +0.000 C 
ATOM      9  H   UNL     1       8.049   4.592  15.554  0.00  0.00    +0.000 HD
ENDROOT
BRANCH   1  11
ATOM     10  C   UNL     1       8.189   5.662  12.765  0.00  0.00    +0.000 C 
ATOM     11  C   UNL     1       7.392   4.659  13.576  0.00  0.00    +0.000 C 
ENDBRANCH   1  11
BRANCH   8  12
ATOM     12  C   UNL     1       4.145   6.818  17.330  0.00  0.00    +0.000 C 
ATOM     13  O   UNL     1       4.261   7.371  16.243  0.00  0.00    +0.000 OA
BRANCH  12  14
ATOM     14  O   UNL     1       3.351   7.299  18.333  0.00  0.00    +0.000 OA
BRANCH  14  15
ATOM     15  C   UNL     1       2.354   8.257  17.957  0.00  0.00    +0.000 C 
BRANCH  15  16
ATOM     16  C   UNL     1       1.566   8.661  19.180  0.00  0.00    +0.000 A 
ATOM     17  C   UNL     1       1.674   7.937  20.375  0.00  0.00    +0.000 A 
ATOM     18  C   UNL     1       0.962   8.332  21.511  0.00  0.00    +0.000 A 
ATOM     19  C   UNL     1       0.129   9.449  21.461  0.00  0.00    +0.000 A 
ATOM     20  C   UNL     1      -0.000  10.165  20.272  0.00  0.00    +0.000 A 
ATOM     21  C   UNL     1       0.708   9.770  19.135  0.00  0.00    +0.000 A 
ENDBRANCH  15  16
ENDBRANCH  14  15
ENDBRANCH  12  14
ENDBRANCH   8  12
BRANCH   8  22
ATOM     22  C   UNL     1       4.052   4.262  17.677  0.00  0.00    +0.000 C 
BRANCH  22  23
ATOM     23  C   UNL     1       3.173   3.906  18.861  0.00  0.00    +0.000 A 
ATOM     24  C   UNL     1       1.859   4.390  18.938  0.00  0.00    +0.000 A 
ATOM     25  C   UNL     1       1.034   4.054  20.013  0.00  0.00    +0.000 A 
ATOM     26  C   UNL     1       1.509   3.222  21.022  0.00  0.00    +0.000 A 
ATOM     27  C   UNL     1       2.805   2.717  20.951  0.00  0.00    +0.000 A 
ATOM     28  C   UNL     1       3.629   3.049  19.874  0.00  0.00    +0.000 A 
ENDBRANCH  22  23
ENDBRANCH   8  22
TORSDOF 7
ENDMDL
MODEL 3
REMARK VINA RESULT:      -7.5      1.086      1.566
REMARK  Name = 
REMARK  8 active torsions:
REMARK  status: ('A' for Active; 'I' for Inactive)
REMARK    1  A    between atoms: C_1  and  C_2
REMARK    2  A    between atoms: C_2  and  N_3
REMARK    3  A    between atoms: C_10  and  C_11
REMARK    4  A    between atoms: C_10  and  C_18
REMARK    5  A    between atoms: C_11  and  C_12
REMARK    6  A    between atoms: C_18  and  O_20
REMARK    7  A    between atoms: O_20  and  C_21
REMARK    8  A    between atoms: C_21  and  C_22
REMARK                            x       y       z     vdW  Elec       q    Type
REMARK                         _______ _______ _______ _____ _____    ______ ____
ROOT
ATOM      1  N   UNL     1       6.334   4.424  14.716  0.00  0.00    +0.000 N 
ATOM      2  C   UNL     1       5.439   4.370  15.758  0.00  0.00    +0.000 C 
ATOM      3  O   UNL     1       4.356   3.809  15.646  0.00  0.00    +0.000 OA
ATOM      4  N   UNL     1       5.853   4.983  16.920  0.00  0.00    +0.000 N 
ATOM      5  C   UNL     1       7.027   5.821  17.085  0.00  0.00    +0.000 C 
ATOM      6  C   UNL     1       7.344   5.698  18.557  0.00  0.00    +0.000 C 
ATOM      7  C   UNL     1       5.968   5.666  19.213  0.00  0.00    +0.000 C 
ATOM      8  C   UNL     1       5.033   4.956  18.181  0.00  0.00    +0.000 C 
ATOM      9  H   UNL     1       7.299   4.383  14.994  0.00  0.00    +0.000 HD
ENDROOT
BRANCH   1  11
ATOM     10  C   UNL     1       7.027   4.043  12.392  0.00  0.00    +0.000 C 
ATOM     11  C   UNL     1       6.021   3.726  13.482  0.00  0.00    +0.000 C 
ENDBRANCH   1  11
BRANCH   8  12
ATOM     12  C   UNL     1       3.729   5.777  17.936  0.00  0.00    +0.000 C 
ATOM     13  O   UNL     1       2.695   5.336  17.450  0.00  0.00    +0.000 OA
BRANCH  12  14
ATOM     14  O   UNL     1       3.900   7.093  18.263  0.00  0.00    +0.000 OA
BRANCH  14  15
ATOM     15  C   UNL     1       2.918   8.009  17.765  0.00  0.00    +0.000 C 
BRANCH  15  16
ATOM     16  C   UNL     1       1.999   8.416  18.893  0.00  0.00    +0.000 A 
ATOM     17  C   UNL     1       1.943   7.669  20.078  0.00  0.00    +0.000 A 
ATOM     18  C   UNL     1       1.111   8.066  21.128  0.00  0.00    +0.000 A 
ATOM     19  C   UNL     1       0.320   9.207  21.000  0.00  0.00    +0.000 A 
ATOM     20  C   UNL     1       0.353   9.946  19.819  0.00  0.00    +0.000 A 
ATOM     21  C   UNL     1       1.183   9.550  18.767  0.00  0.00    +0.000 A 
ENDBRANCH  15  16
ENDBRANCH  14  15
ENDBRANCH  12  14
ENDBRANCH   8  12
BRANCH   8  22
ATOM     22  C   UNL     1       4.718   3.492  18.618  0.00  0.00    +0.000 C 
BRANCH  22  23
ATOM     23  C   UNL     1       3.466   3.255  19.442  0.00  0.00    +0.000 A 
ATOM     24  C   UNL     1       2.499   2.335  19.012  0.00  0.00    +0.000 A 
ATOM     25  C   UNL     1       1.353   2.094  19.771  0.00  0.00    +0.000 A 
ATOM     26  C   UNL     1       1.161   2.765  20.975  0.00  0.00    +0.000 A 
ATOM     27  C   UNL     1       2.121   3.668  21.425  0.00  0.00    +0.000 A 
ATOM     28  C   UNL     1       3.270   3.906  20.669  0.00  0.00    +0.000 A 
ENDBRANCH  22  23
ENDBRANCH   8  22
TORSDOF 7
ENDMDL
MODEL 4
REMARK VINA RESULT:      -7.5      2.828      6.419
REMARK  Name = 
REMARK  8 active torsions:
REMARK  status: ('A' for Active; 'I' for Inactive)
REMARK    1  A    between atoms: C_1  and  C_2
REMARK    2  A    between atoms: C_2  and  N_3
REMARK    3  A    between atoms: C_10  and  C_11
REMARK    4  A    between atoms: C_10  and  C_18
REMARK    5  A    between atoms: C_11  and  C_12
REMARK    6  A    between atoms: C_18  and  O_20
REMARK    7  A    between atoms: O_20  and  C_21
REMARK    8  A    between atoms: C_21  and  C_22
REMARK                            x       y       z     vdW  Elec       q    Type
REMARK                         _______ _______ _______ _____ _____    ______ ____
ROOT
ATOM      1  N   UNL     1       7.645   8.605  17.893  0.00  0.00    +0.000 N 
ATOM      2  C   UNL     1       7.453   7.253  18.049  0.00  0.00    +0.000 C 
ATOM      3  O   UNL     1       8.240   6.562  18.685  0.00  0.00    +0.000 OA
ATOM      4  N   UNL     1       6.321   6.748  17.449  0.00  0.00    +0.000 N 
ATOM      5  C   UNL     1       5.441   7.450  16.533  0.00  0.00    +0.000 C 
ATOM      6  C   UNL     1       4.124   6.725  16.684  0.00  0.00    +0.000 C 
ATOM      7  C   UNL     1       4.539   5.266  16.841  0.00  0.00    +0.000 C 
ATOM      8  C   UNL     1       5.915   5.305  17.582  0.00  0.00    +0.000 C 
ATOM      9  H   UNL     1       6.799   9.146  17.873  0.00  0.00    +0.000 HD
ENDROOT
BRANCH   1  11
ATOM     10  C   UNL     1       8.874  10.707  18.202  0.00  0.00    +0.000 C 
ATOM     11  C   UNL     1       8.763   9.240  18.568  0.00  0.00    +0.000 C 
ENDBRANCH   1  11
BRANCH   8  12
ATOM     12  C   UNL     1       6.979   4.427  16.851  0.00  0.00    +0.000 C 
ATOM     13  O   UNL     1       8.132   4.253  17.225  0.00  0.00    +0.000 OA
BRANCH  12  14
ATOM     14  O   UNL     1       6.489   3.923  15.679  0.00  0.00    +0.000 OA
BRANCH  14  15
ATOM     15  C   UNL     1       6.847   4.622  14.481  0.00  0.00    +0.000 C 
BRANCH  15  16
ATOM     16  C   UNL     1       6.290   3.883  13.288  0.00  0.00    +0.000 A 
ATOM     17  C   UNL     1       7.128   3.132  12.453  0.00  0.00    +0.000 A 
ATOM     18  C   UNL     1       6.601   2.428  11.366  0.00  0.00    +0.000 A 
ATOM     19  C   UNL     1       5.234   2.476  11.099  0.00  0.00    +0.000 A 
ATOM     20  C   UNL     1       4.394   3.235  11.912  0.00  0.00    +0.000 A 
ATOM     21  C   UNL     1       4.918   3.941  12.996  0.00  0.00    +0.000 A 
ENDBRANCH  15  16
ENDBRANCH  14  15
ENDBRANCH  12  14
ENDBRANCH   8  12
BRANCH   8  22
ATOM     22  C   UNL     1       5.763   4.896  19.079  0.00  0.00    +0.000 C 
BRANCH  22  23
ATOM     23  C   UNL     1       4.399   4.421  19.546  0.00  0.00    +0.000 A 
ATOM     24  C   UNL     1       4.103   3.051  19.586  0.00  0.00    +0.000 A 
ATOM     25  C   UNL     1       2.859   2.601  20.032  0.00  0.00    +0.000 A 
ATOM     26  C   UNL     1       1.897   3.515  20.451  0.00  0.00    +0.000 A 
ATOM     27  C   UNL     1       2.183   4.877  20.436  0.00  0.00    +0.000 A 
ATOM     28  C   UNL     1       3.428   5.328  19.994  0.00  0.00    +0.000 A 
ENDBRANCH  22  23
ENDBRANCH   8  22
TORSDOF 7
ENDMDL
MODEL 5
REMARK VINA RESULT:      -7.5      0.973      1.410
REMARK  Name = 
REMARK  8 active torsions:
REMARK  status: ('A' for Active; 'I' for Inactive)
REMARK    1  A    between atoms: C_1  and  C_2
REMARK    2  A    between atoms: C_2  and  N_3
REMARK    3  A    between atoms: C_10  and  C_11
REMARK    4  A    between atoms: C_10  and  C_18
REMARK    5  A    between atoms: C_11  and  C_12
REMARK    6  A    between atoms: C_18  and  O_20
REMARK    7  A    between atoms: O_20  and  C_21
REMARK    8  A    between atoms: C_21  and  C_22
REMARK                            x       y       z     vdW  Elec       q    Type
REMARK                         _______ _______ _______ _____ _____    ______ ____
ROOT
ATOM      1  N   UNL     1       7.128   5.121  14.897  0.00  0.00    +0.000 N 
ATOM      2  C   UNL     1       6.070   4.848  15.729  0.00  0.00    +0.000 C 
ATOM      3  O   UNL     1       5.065   4.277  15.324  0.00  0.00    +0.000 OA
ATOM      4  N   UNL     1       6.229   5.258  17.034  0.00  0.00    +0.000 N 
ATOM      5  C   UNL     1       7.294   6.096  17.555  0.00  0.00    +0.000 C 
ATOM      6  C   UNL     1       7.354   5.723  19.017  0.00  0.00    +0.000 C 
ATOM      7  C   UNL     1       5.889   5.523  19.391  0.00  0.00    +0.000 C 
ATOM      8  C   UNL     1       5.203   4.974  18.098  0.00  0.00    +0.000 C 
ATOM      9  H   UNL     1       8.030   5.066  15.337  0.00  0.00    +0.000 HD
ENDROOT
BRANCH   1  11
ATOM     10  C   UNL     1       8.041   5.420  12.637  0.00  0.00    +0.000 C 
ATOM     11  C   UNL     1       7.087   4.645  13.525  0.00  0.00    +0.000 C 
ENDBRANCH   1  11
BRANCH   8  12
ATOM     12  C   UNL     1       3.908   5.777  17.757  0.00  0.00    +0.000 C 
ATOM     13  O   UNL     1       2.952   5.345  17.126  0.00  0.00    +0.000 OA
BRANCH  12  14
ATOM     14  O   UNL     1       3.997   7.071  18.189  0.00  0.00    +0.000 OA
BRANCH  14  15
ATOM     15  C   UNL     1       2.999   7.977  17.704  0.00  0.00    +0.000 C 
BRANCH  15  16
ATOM     16  C   UNL     1       2.080   8.361  18.840  0.00  0.00    +0.000 A 
ATOM     17  C   UNL     1       2.032   7.596  20.013  0.00  0.00    +0.000 A 
ATOM     18  C   UNL     1       1.199   7.972  21.071  0.00  0.00    +0.000 A 
ATOM     19  C   UNL     1       0.401   9.109  20.962  0.00  0.00    +0.000 A 
ATOM     20  C   UNL     1       0.427   9.867  19.792  0.00  0.00    +0.000 A 
ATOM     21  C   UNL     1       1.256   9.491  18.733  0.00  0.00    +0.000 A 
ENDBRANCH  15  16
ENDBRANCH  14  15
ENDBRANCH  12  14
ENDBRANCH   8  12
BRANCH   8  22
ATOM     22  C   UNL     1       4.917   3.445  18.214  0.00  0.00    +0.000 C 
BRANCH  22  23
ATOM     23  C   UNL     1       3.639   3.017  18.911  0.00  0.00    +0.000 A 
ATOM     24  C   UNL     1       3.458   3.273  20.278  0.00  0.00    +0.000 A 
ATOM     25  C   UNL     1       2.279   2.901  20.926  0.00  0.00    +0.000 A 
ATOM     26  C   UNL     1       1.261   2.274  20.213  0.00  0.00    +0.000 A 
ATOM     27  C   UNL     1       1.418   2.030  18.851  0.00  0.00    +0.000 A 
ATOM     28  C   UNL     1       2.595   2.406  18.202  0.00  0.00    +0.000 A 
ENDBRANCH  22  23
ENDBRANCH   8  22
TORSDOF 7
ENDMDL
MODEL 6
REMARK VINA RESULT:      -7.5      2.622      5.597
REMARK  Name = 
REMARK  8 active torsions:
REMARK  status: ('A' for Active; 'I' for Inactive)
REMARK    1  A    between atoms: C_1  and  C_2
REMARK    2  A    between atoms: C_2  and  N_3
REMARK    3  A    between atoms: C_10  and  C_11
REMARK    4  A    between atoms: C_10  and  C_18
REMARK    5  A    between atoms: C_11  and  C_12
REMARK    6  A    between atoms: C_18  and  O_20
REMARK    7  A    between atoms: O_20  and  C_21
REMARK    8  A    between atoms: C_21  and  C_22
REMARK                            x       y       z     vdW  Elec       q    Type
REMARK                         _______ _______ _______ _____ _____    ______ ____
ROOT
ATOM      1  N   UNL     1       8.501   8.485  18.708  0.00  0.00    +0.000 N 
ATOM      2  C   UNL     1       7.667   7.951  17.756  0.00  0.00    +0.000 C 
ATOM      3  O   UNL     1       7.111   8.656  16.921  0.00  0.00    +0.000 OA
ATOM      4  N   UNL     1       7.510   6.584  17.812  0.00  0.00    +0.000 N 
ATOM      5  C   UNL     1       7.977   5.702  18.867  0.00  0.00    +0.000 C 
ATOM      6  C   UNL     1       8.115   4.367  18.175  0.00  0.00    +0.000 C 
ATOM      7  C   UNL     1       6.924   4.337  17.223  0.00  0.00    +0.000 C 
ATOM      8  C   UNL     1       6.693   5.825  16.802  0.00  0.00    +0.000 C 
ATOM      9  H   UNL     1       9.277   7.897  18.958  0.00  0.00    +0.000 HD
ENDROOT
BRANCH   1  11
ATOM     10  C   UNL     1       9.598  10.342  19.881  0.00  0.00    +0.000 C 
ATOM     11  C   UNL     1       8.797   9.906  18.669  0.00  0.00    +0.000 C 
ENDBRANCH   1  11
BRANCH   8  12
ATOM     12  C   UNL     1       5.198   6.238  16.971  0.00  0.00    +0.000 C 
ATOM     13  O   UNL     1       4.688   7.256  16.520  0.00  0.00    +0.000 OA
BRANCH  12  14
ATOM     14  O   UNL     1       4.522   5.351  17.761  0.00  0.00    +0.000 OA
BRANCH  14  15
ATOM     15  C   UNL     1       3.656   5.910  18.756  0.00  0.00    +0.000 C 
BRANCH  15  16
ATOM     16  C   UNL     1       2.628   4.878  19.157  0.00  0.00    +0.000 A 
ATOM     17  C   UNL     1       2.153   4.813  20.474  0.00  0.00    +0.000 A 
ATOM     18  C   UNL     1       1.182   3.873  20.831  0.00  0.00    +0.000 A 
ATOM     19  C   UNL     1       0.684   2.985  19.879  0.00  0.00    +0.000 A 
ATOM     20  C   UNL     1       1.163   3.029  18.571  0.00  0.00    +0.000 A 
ATOM     21  C   UNL     1       2.135   3.965  18.212  0.00  0.00    +0.000 A 
ENDBRANCH  15  16
ENDBRANCH  14  15
ENDBRANCH  12  14
ENDBRANCH   8  12
BRANCH   8  22
ATOM     22  C   UNL     1       7.202   6.088  15.351  0.00  0.00    +0.000 C 
BRANCH  22  23
ATOM     23  C   UNL     1       6.785   5.110  14.268  0.00  0.00    +0.000 A 
ATOM     24  C   UNL     1       5.573   4.411  14.375  0.00  0.00    +0.000 A 
ATOM     25  C   UNL     1       5.169   3.524  13.376  0.00  0.00    +0.000 A 
ATOM     26  C   UNL     1       5.968   3.328  12.254  0.00  0.00    +0.000 A 
ATOM     27  C   UNL     1       7.164   4.028  12.124  0.00  0.00    +0.000 A 
ATOM     28  C   UNL     1       7.567   4.920  13.120  0.00  0.00    +0.000 A 
ENDBRANCH  22  23
ENDBRANCH   8  22
TORSDOF 7
ENDMDL
MODEL 7
REMARK VINA RESULT:      -7.5      0.739      1.487
REMARK  Name = 
REMARK  8 active torsions:
REMARK  status: ('A' for Active; 'I' for Inactive)
REMARK    1  A    between atoms: C_1  and  C_2
REMARK    2  A    between atoms: C_2  and  N_3
REMARK    3  A    between atoms: C_10  and  C_11
REMARK    4  A    between atoms: C_10  and  C_18
REMARK    5  A    between atoms: C_11  and  C_12
REMARK    6  A    between atoms: C_18  and  O_20
REMARK    7  A    between atoms: O_20  and  C_21
REMARK    8  A    between atoms: C_21  and  C_22
REMARK                            x       y       z     vdW  Elec       q    Type
REMARK                         _______ _______ _______ _____ _____    ______ ____
ROOT
ATOM      1  N   UNL     1       7.357   5.124  14.887  0.00  0.00    +0.000 N 
ATOM      2  C   UNL     1       6.153   5.091  15.547  0.00  0.00    +0.000 C 
ATOM      3  O   UNL     1       5.097   4.922  14.949  0.00  0.00    +0.000 OA
ATOM      4  N   UNL     1       6.227   5.257  16.913  0.00  0.00    +0.000 N 
ATOM      5  C   UNL     1       7.401   5.643  17.674  0.00  0.00    +0.000 C 
ATOM      6  C   UNL     1       7.128   5.083  19.051  0.00  0.00    +0.000 C 
ATOM      7  C   UNL     1       5.630   5.306  19.232  0.00  0.00    +0.000 C 
ATOM      8  C   UNL     1       5.015   5.174  17.801  0.00  0.00    +0.000 C 
ATOM      9  H   UNL     1       8.126   4.732  15.402  0.00  0.00    +0.000 HD
ENDROOT
BRANCH   1  11
ATOM     10  C   UNL     1       8.382   5.763  12.749  0.00  0.00    +0.000 C 
ATOM     11  C   UNL     1       7.384   4.867  13.458  0.00  0.00    +0.000 C 
ENDBRANCH   1  11
BRANCH   8  12
ATOM     12  C   UNL     1       4.081   6.380  17.470  0.00  0.00    +0.000 C 
ATOM     13  O   UNL     1       4.396   7.357  16.801  0.00  0.00    +0.000 OA
BRANCH  12  14
ATOM     14  O   UNL     1       2.868   6.254  18.086  0.00  0.00    +0.000 OA
BRANCH  14  15
ATOM     15  C   UNL     1       2.761   6.800  19.406  0.00  0.00    +0.000 C 
BRANCH  15  16
ATOM     16  C   UNL     1       1.870   8.019  19.370  0.00  0.00    +0.000 A 
ATOM     17  C   UNL     1       1.262   8.499  20.537  0.00  0.00    +0.000 A 
ATOM     18  C   UNL     1       0.461   9.644  20.501  0.00  0.00    +0.000 A 
ATOM     19  C   UNL     1       0.253  10.314  19.297  0.00  0.00    +0.000 A 
ATOM     20  C   UNL     1       0.838   9.835  18.125  0.00  0.00    +0.000 A 
ATOM     21  C   UNL     1       1.637   8.690  18.159  0.00  0.00    +0.000 A 
ENDBRANCH  15  16
ENDBRANCH  14  15
ENDBRANCH  12  14
ENDBRANCH   8  12
BRANCH   8  22
ATOM     22  C   UNL     1       4.279   3.810  17.626  0.00  0.00    +0.000 C 
BRANCH  22  23
ATOM     23  C   UNL     1       3.246   3.426  18.670  0.00  0.00    +0.000 A 
ATOM     24  C   UNL     1       1.903   3.252  18.305  0.00  0.00    +0.000 A 
ATOM     25  C   UNL     1       0.948   2.879  19.252  0.00  0.00    +0.000 A 
ATOM     26  C   UNL     1       1.324   2.670  20.576  0.00  0.00    +0.000 A 
ATOM     27  C   UNL     1       2.657   2.820  20.949  0.00  0.00    +0.000 A 
ATOM     28  C   UNL     1       3.614   3.188  20.001  0.00  0.00    +0.000 A 
ENDBRANCH  22  23
ENDBRANCH   8  22
TORSDOF 7
ENDMDL
MODEL 8
REMARK VINA RESULT:      -7.5      1.128      1.579
REMARK  Name = 
REMARK  8 active torsions:
REMARK  status: ('A' for Active; 'I' for Inactive)
REMARK    1  A    between atoms: C_1  and  C_2
REMARK    2  A    between atoms: C_2  and  N_3
REMARK    3  A    between atoms: C_10  and  C_11
REMARK    4  A    between atoms: C_10  and  C_18
REMARK    5  A    between atoms: C_11  and  C_12
REMARK    6  A    between atoms: C_18  and  O_20
REMARK    7  A    between atoms: O_20  and  C_21
REMARK    8  A    between atoms: C_21  and  C_22
REMARK                            x       y       z     vdW  Elec       q    Type
REMARK                         _______ _______ _______ _____ _____    ______ ____
ROOT
ATOM      1  N   UNL     1       6.434   4.393  14.836  0.00  0.00    +0.000 N 
ATOM      2  C   UNL     1       5.571   4.336  15.903  0.00  0.00    +0.000 C 
ATOM      3  O   UNL     1       4.455   3.840  15.802  0.00  0.00    +0.000 OA
ATOM      4  N   UNL     1       6.055   4.866  17.079  0.00  0.00    +0.000 N 
ATOM      5  C   UNL     1       7.278   5.630  17.244  0.00  0.00    +0.000 C 
ATOM      6  C   UNL     1       7.634   5.417  18.696  0.00  0.00    +0.000 C 
ATOM      7  C   UNL     1       6.280   5.427  19.397  0.00  0.00    +0.000 C 
ATOM      8  C   UNL     1       5.275   4.820  18.365  0.00  0.00    +0.000 C 
ATOM      9  H   UNL     1       7.404   4.285  15.077  0.00  0.00    +0.000 HD
ENDROOT
BRANCH   1  11
ATOM     10  C   UNL     1       7.004   4.131  12.462  0.00  0.00    +0.000 C 
ATOM     11  C   UNL     1       6.043   3.775  13.581  0.00  0.00    +0.000 C 
ENDBRANCH   1  11
BRANCH   8  12
ATOM     12  C   UNL     1       4.011   5.722  18.204  0.00  0.00    +0.000 C 
ATOM     13  O   UNL     1       3.378   5.875  17.167  0.00  0.00    +0.000 OA
BRANCH  12  14
ATOM     14  O   UNL     1       3.730   6.395  19.360  0.00  0.00    +0.000 OA
BRANCH  14  15
ATOM     15  C   UNL     1       2.359   6.408  19.775  0.00  0.00    +0.000 C 
BRANCH  15  16
ATOM     16  C   UNL     1       1.833   7.823  19.710  0.00  0.00    +0.000 A 
ATOM     17  C   UNL     1       1.271   8.433  20.839  0.00  0.00    +0.000 A 
ATOM     18  C   UNL     1       0.811   9.751  20.780  0.00  0.00    +0.000 A 
ATOM     19  C   UNL     1       0.900  10.469  19.588  0.00  0.00    +0.000 A 
ATOM     20  C   UNL     1       1.440   9.866  18.453  0.00  0.00    +0.000 A 
ATOM     21  C   UNL     1       1.898   8.548  18.510  0.00  0.00    +0.000 A 
ENDBRANCH  15  16
ENDBRANCH  14  15
ENDBRANCH  12  14
ENDBRANCH   8  12
BRANCH   8  22
ATOM     22  C   UNL     1       4.893   3.356  18.741  0.00  0.00    +0.000 C 
BRANCH  22  23
ATOM     23  C   UNL     1       3.525   3.119  19.355  0.00  0.00    +0.000 A 
ATOM     24  C   UNL     1       3.355   3.176  20.746  0.00  0.00    +0.000 A 
ATOM     25  C   UNL     1       2.098   2.979  21.321  0.00  0.00    +0.000 A 
ATOM     26  C   UNL     1       0.993   2.729  20.513  0.00  0.00    +0.000 A 
ATOM     27  C   UNL     1       1.143   2.688  19.129  0.00  0.00    +0.000 A 
ATOM     28  C   UNL     1       2.399   2.890  18.553  0.00  0.00    +0.000 A 
ENDBRANCH  22  23
ENDBRANCH   8  22
TORSDOF 7
ENDMDL
MODEL 9
REMARK VINA RESULT:      -7.4      2.663      5.565
REMARK  Name = 
REMARK  8 active torsions:
REMARK  status: ('A' for Active; 'I' for Inactive)
REMARK    1  A    between atoms: C_1  and  C_2
REMARK    2  A    between atoms: C_2  and  N_3
REMARK    3  A    between atoms: C_10  and  C_11
REMARK    4  A    between atoms: C_10  and  C_18
REMARK    5  A    between atoms: C_11  and  C_12
REMARK    6  A    between atoms: C_18  and  O_20
REMARK    7  A    between atoms: O_20  and  C_21
REMARK    8  A    between atoms: C_21  and  C_22
REMARK                            x       y       z     vdW  Elec       q    Type
REMARK                         _______ _______ _______ _____ _____    ______ ____
ROOT
ATOM      1  N   UNL     1       8.514   8.536  18.733  0.00  0.00    +0.000 N 
ATOM      2  C   UNL     1       7.707   7.975  17.772  0.00  0.00    +0.000 C 
ATOM      3  O   UNL     1       7.175   8.655  16.903  0.00  0.00    +0.000 OA
ATOM      4  N   UNL     1       7.551   6.609  17.861  0.00  0.00    +0.000 N 
ATOM      5  C   UNL     1       7.989   5.758  18.951  0.00  0.00    +0.000 C 
ATOM      6  C   UNL     1       8.148   4.404  18.300  0.00  0.00    +0.000 C 
ATOM      7  C   UNL     1       6.985   4.346  17.316  0.00  0.00    +0.000 C 
ATOM      8  C   UNL     1       6.764   5.822  16.848  0.00  0.00    +0.000 C 
ATOM      9  H   UNL     1       9.283   7.957  19.021  0.00  0.00    +0.000 HD
ENDROOT
BRANCH   1  11
ATOM     10  C   UNL     1       9.492  10.446  19.926  0.00  0.00    +0.000 C 
ATOM     11  C   UNL     1       8.808   9.956  18.664  0.00  0.00    +0.000 C 
ENDBRANCH   1  11
BRANCH   8  12
ATOM     12  C   UNL     1       5.264   6.236  16.964  0.00  0.00    +0.000 C 
ATOM     13  O   UNL     1       4.783   7.281  16.545  0.00  0.00    +0.000 OA
BRANCH  12  14
ATOM     14  O   UNL     1       4.545   5.311  17.668  0.00  0.00    +0.000 OA
BRANCH  14  15
ATOM     15  C   UNL     1       3.871   5.782  18.841  0.00  0.00    +0.000 C 
BRANCH  15  16
ATOM     16  C   UNL     1       2.751   4.830  19.188  0.00  0.00    +0.000 A 
ATOM     17  C   UNL     1       2.212   3.972  18.219  0.00  0.00    +0.000 A 
ATOM     18  C   UNL     1       1.195   3.075  18.553  0.00  0.00    +0.000 A 
ATOM     19  C   UNL     1       0.699   3.033  19.856  0.00  0.00    +0.000 A 
ATOM     20  C   UNL     1       1.215   3.895  20.823  0.00  0.00    +0.000 A 
ATOM     21  C   UNL     1       2.230   4.794  20.490  0.00  0.00    +0.000 A 
ENDBRANCH  15  16
ENDBRANCH  14  15
ENDBRANCH  12  14
ENDBRANCH   8  12
BRANCH   8  22
ATOM     22  C   UNL     1       7.314   6.046  15.406  0.00  0.00    +0.000 C 
BRANCH  22  23
ATOM     23  C   UNL     1       6.819   5.121  14.310  0.00  0.00    +0.000 A 
ATOM     24  C   UNL     1       7.584   4.926  13.150  0.00  0.00    +0.000 A 
ATOM     25  C   UNL     1       7.149   4.062  12.144  0.00  0.00    +0.000 A 
ATOM     26  C   UNL     1       5.946   3.376  12.286  0.00  0.00    +0.000 A 
ATOM     27  C   UNL     1       5.186   3.544  13.440  0.00  0.00    +0.000 A 
ATOM     28  C   UNL     1       5.622   4.404  14.450  0.00  0.00    +0.000 A 
ENDBRANCH  22  23
ENDBRANCH   8  22
TORSDOF 7
ENDMDL
