MODEL 1
REMARK VINA RESULT:      -7.2      0.000      0.000
REMARK  Name = 
REMARK  8 active torsions:
REMARK  status: ('A' for Active; 'I' for Inactive)
REMARK    1  A    between atoms: C_1  and  C_2
REMARK    2  A    between atoms: C_2  and  C_3
REMARK    3  A    between atoms: C_3  and  O_4
REMARK    4  A    between atoms: O_4  and  C_5
REMARK    5  A    between atoms: C_5  and  C_7
REMARK    6  A    between atoms: C_7  and  N_8
REMARK    7  A    between atoms: C_9  and  C_11
REMARK    8  A    between atoms: C_12  and  C_13
REMARK                            x       y       z     vdW  Elec       q    Type
REMARK                         _______ _______ _______ _____ _____    ______ ____
ROOT
ATOM      1  N   UNL     1       6.024   3.594  13.978  0.00  0.00    +0.000 N 
ATOM      2  C   UNL     1       6.548   4.149  15.115  0.00  0.00    +0.000 C 
ATOM      3  O   UNL     1       7.550   4.850  15.132  0.00  0.00    +0.000 OA
ATOM      4  H   UNL     1       5.203   2.998  14.007  0.00  0.00    +0.000 HD
ENDROOT
BRANCH   2   5
ATOM      5  C   UNL     1       5.784   3.797  16.341  0.00  0.00    +0.000 C 
ATOM      6  C   UNL     1       4.485   4.120  16.446  0.00  0.00    +0.000 C 
BRANCH   6   7
ATOM      7  C   UNL     1       3.646   3.843  17.624  0.00  0.00    +0.000 A 
ATOM      8  C   UNL     1       2.246   3.817  17.559  0.00  0.00    +0.000 A 
ATOM      9  C   UNL     1       1.479   3.505  18.688  0.00  0.00    +0.000 A 
ATOM     10  C   UNL     1       2.110   3.200  19.890  0.00  0.00    +0.000 A 
ATOM     11 CL   UNL     1       1.169   2.806  21.275  0.00  0.00    +0.000 Cl
ATOM     12  C   UNL     1       3.500   3.203  19.971  0.00  0.00    +0.000 A 
ATOM     13  C   UNL     1       4.264   3.518  18.841  0.00  0.00    +0.000 A 
ENDBRANCH   6   7
ENDBRANCH   2   5
BRANCH   1  14
ATOM     14  C   UNL     1       6.668   3.771  12.684  0.00  0.00    +0.000 C 
BRANCH  14  15
ATOM     15  C   UNL     1       6.355   2.598  11.762  0.00  0.00    +0.000 C 
ATOM     16  O   UNL     1       7.211   1.922  11.201  0.00  0.00    +0.000 OA
BRANCH  15  17
ATOM     17  O   UNL     1       5.009   2.468  11.602  0.00  0.00    +0.000 OA
BRANCH  17  18
ATOM     18  C   UNL     1       4.304   3.645  11.175  0.00  0.00    +0.000 C 
BRANCH  18  20
ATOM     19  C   UNL     1       2.748   4.532   9.421  0.00  0.00    +0.000 C 
ATOM     20  C   UNL     1       3.160   3.305  10.227  0.00  0.00    +0.000 C 
ENDBRANCH  18  20
ENDBRANCH  17  18
ENDBRANCH  15  17
ENDBRANCH  14  15
ENDBRANCH   1  14
TORSDOF 7
ENDMDL
MODEL 2
REMARK VINA RESULT:      -7.0      1.012      1.157
REMARK  Name = 
REMARK  8 active torsions:
REMARK  status: ('A' for Active; 'I' for Inactive)
REMARK    1  A    between atoms: C_1  and  C_2
REMARK    2  A    between atoms: C_2  and  C_3
REMARK    3  A    between atoms: C_3  and  O_4
REMARK    4  A    between atoms: O_4  and  C_5
REMARK    5  A    between atoms: C_5  and  C_7
REMARK    6  A    between atoms: C_7  and  N_8
REMARK    7  A    between atoms: C_9  and  C_11
REMARK    8  A    between atoms: C_12  and  C_13
REMARK                            x       y       z     vdW  Elec       q    Type
REMARK                         _______ _______ _______ _____ _____    ______ ____
ROOT
ATOM      1  N   UNL     1       5.828   3.905  13.731  0.00  0.00    +0.000 N 
ATOM      2  C   UNL     1       6.496   4.686  14.636  0.00  0.00    +0.000 C 
ATOM      3  O   UNL     1       7.522   5.300  14.381  0.00  0.00    +0.000 OA
ATOM      4  H   UNL     1       4.991   3.392  13.987  0.00  0.00    +0.000 HD
ENDROOT
BRANCH   2   5
ATOM      5  C   UNL     1       5.856   4.698  15.978  0.00  0.00    +0.000 C 
ATOM      6  C   UNL     1       4.772   3.942  16.220  0.00  0.00    +0.000 C 
BRANCH   6   7
ATOM      7  C   UNL     1       4.049   3.901  17.501  0.00  0.00    +0.000 A 
ATOM      8  C   UNL     1       3.731   2.699  18.147  0.00  0.00    +0.000 A 
ATOM      9  C   UNL     1       3.083   2.697  19.387  0.00  0.00    +0.000 A 
ATOM     10  C   UNL     1       2.760   3.904  20.001  0.00  0.00    +0.000 A 
ATOM     11 CL   UNL     1       1.972   3.902  21.530  0.00  0.00    +0.000 Cl
ATOM     12  C   UNL     1       3.082   5.109  19.385  0.00  0.00    +0.000 A 
ATOM     13  C   UNL     1       3.729   5.108  18.143  0.00  0.00    +0.000 A 
ENDBRANCH   6   7
ENDBRANCH   2   5
BRANCH   1  14
ATOM     14  C   UNL     1       6.333   3.714  12.378  0.00  0.00    +0.000 C 
BRANCH  14  15
ATOM     15  C   UNL     1       5.559   2.614  11.664  0.00  0.00    +0.000 C 
ATOM     16  O   UNL     1       6.072   1.587  11.230  0.00  0.00    +0.000 OA
BRANCH  15  17
ATOM     17  O   UNL     1       4.253   2.972  11.518  0.00  0.00    +0.000 OA
BRANCH  17  18
ATOM     18  C   UNL     1       3.988   4.037  10.591  0.00  0.00    +0.000 C 
BRANCH  18  20
ATOM     19  C   UNL     1       2.243   4.943   9.035  0.00  0.00    +0.000 C 
ATOM     20  C   UNL     1       2.860   3.681   9.629  0.00  0.00    +0.000 C 
ENDBRANCH  18  20
ENDBRANCH  17  18
ENDBRANCH  15  17
ENDBRANCH  14  15
ENDBRANCH   1  14
TORSDOF 7
ENDMDL
MODEL 3
REMARK VINA RESULT:      -7.0      0.877      1.097
REMARK  Name = 
REMARK  8 active torsions:
REMARK  status: ('A' for Active; 'I' for Inactive)
REMARK    1  A    between atoms: C_1  and  C_2
REMARK    2  A    between atoms: C_2  and  C_3
REMARK    3  A    between atoms: C_3  and  O_4
REMARK    4  A    between atoms: O_4  and  C_5
REMARK    5  A    between atoms: C_5  and  C_7
REMARK    6  A    between atoms: C_7  and  N_8
REMARK    7  A    between atoms: C_9  and  C_11
REMARK    8  A    between atoms: C_12  and  C_13
REMARK                            x       y       z     vdW  Elec       q    Type
REMARK                         _______ _______ _______ _____ _____    ______ ____
ROOT
ATOM      1  N   UNL     1       6.025   3.693  14.101  0.00  0.00    +0.000 N 
ATOM      2  C   UNL     1       6.583   4.442  15.103  0.00  0.00    +0.000 C 
ATOM      3  O   UNL     1       7.544   5.182  14.946  0.00  0.00    +0.000 OA
ATOM      4  H   UNL     1       5.241   3.072  14.275  0.00  0.00    +0.000 HD
ENDROOT
BRANCH   2   5
ATOM      5  C   UNL     1       5.913   4.250  16.416  0.00  0.00    +0.000 C 
ATOM      6  C   UNL     1       4.683   3.714  16.478  0.00  0.00    +0.000 C 
BRANCH   6   7
ATOM      7  C   UNL     1       3.922   3.506  17.720  0.00  0.00    +0.000 A 
ATOM      8  C   UNL     1       3.862   4.470  18.735  0.00  0.00    +0.000 A 
ATOM      9  C   UNL     1       3.091   4.260  19.884  0.00  0.00    +0.000 A 
ATOM     10  C   UNL     1       2.358   3.085  20.019  0.00  0.00    +0.000 A 
ATOM     11 CL   UNL     1       1.402   2.830  21.426  0.00  0.00    +0.000 Cl
ATOM     12  C   UNL     1       2.388   2.122  19.015  0.00  0.00    +0.000 A 
ATOM     13  C   UNL     1       3.163   2.334  17.867  0.00  0.00    +0.000 A 
ENDBRANCH   6   7
ENDBRANCH   2   5
BRANCH   1  14
ATOM     14  C   UNL     1       6.581   3.695  12.755  0.00  0.00    +0.000 C 
BRANCH  14  15
ATOM     15  C   UNL     1       5.709   2.877  11.810  0.00  0.00    +0.000 C 
ATOM     16  O   UNL     1       5.854   1.676  11.613  0.00  0.00    +0.000 OA
BRANCH  15  17
ATOM     17  O   UNL     1       4.812   3.683  11.176  0.00  0.00    +0.000 OA
BRANCH  17  18
ATOM     18  C   UNL     1       3.502   3.132  10.966  0.00  0.00    +0.000 C 
BRANCH  18  20
ATOM     19  C   UNL     1       2.417   4.762   9.400  0.00  0.00    +0.000 C 
ATOM     20  C   UNL     1       3.013   3.366   9.541  0.00  0.00    +0.000 C 
ENDBRANCH  18  20
ENDBRANCH  17  18
ENDBRANCH  15  17
ENDBRANCH  14  15
ENDBRANCH   1  14
TORSDOF 7
ENDMDL
MODEL 4
REMARK VINA RESULT:      -7.0      6.888      8.072
REMARK  Name = 
REMARK  8 active torsions:
REMARK  status: ('A' for Active; 'I' for Inactive)
REMARK    1  A    between atoms: C_1  and  C_2
REMARK    2  A    between atoms: C_2  and  C_3
REMARK    3  A    between atoms: C_3  and  O_4
REMARK    4  A    between atoms: O_4  and  C_5
REMARK    5  A    between atoms: C_5  and  C_7
REMARK    6  A    between atoms: C_7  and  N_8
REMARK    7  A    between atoms: C_9  and  C_11
REMARK    8  A    between atoms: C_12  and  C_13
REMARK                            x       y       z     vdW  Elec       q    Type
REMARK                         _______ _______ _______ _____ _____    ______ ____
ROOT
ATOM      1  N   UNL     1       7.186   7.242  16.947  0.00  0.00    +0.000 N 
ATOM      2  C   UNL     1       7.709   7.128  18.208  0.00  0.00    +0.000 C 
ATOM      3  O   UNL     1       7.496   6.180  18.951  0.00  0.00    +0.000 OA
ATOM      4  H   UNL     1       7.367   8.055  16.369  0.00  0.00    +0.000 HD
ENDROOT
BRANCH   2   5
ATOM      5  C   UNL     1       8.552   8.289  18.596  0.00  0.00    +0.000 C 
ATOM      6  C   UNL     1       8.304   9.507  18.089  0.00  0.00    +0.000 C 
BRANCH   6   7
ATOM      7  C   UNL     1       9.092  10.715  18.385  0.00  0.00    +0.000 A 
ATOM      8  C   UNL     1       8.851  11.943  17.755  0.00  0.00    +0.000 A 
ATOM      9  C   UNL     1       9.588  13.083  18.094  0.00  0.00    +0.000 A 
ATOM     10  C   UNL     1      10.566  13.006  19.081  0.00  0.00    +0.000 A 
ATOM     11 CL   UNL     1      11.465  14.410  19.506  0.00  0.00    +0.000 Cl
ATOM     12  C   UNL     1      10.809  11.801  19.733  0.00  0.00    +0.000 A 
ATOM     13  C   UNL     1      10.071  10.661  19.389  0.00  0.00    +0.000 A 
ENDBRANCH   6   7
ENDBRANCH   2   5
BRANCH   1  14
ATOM     14  C   UNL     1       6.282   6.235  16.409  0.00  0.00    +0.000 C 
BRANCH  14  15
ATOM     15  C   UNL     1       7.061   5.136  15.698  0.00  0.00    +0.000 C 
ATOM     16  O   UNL     1       7.914   4.441  16.241  0.00  0.00    +0.000 OA
BRANCH  15  17
ATOM     17  O   UNL     1       6.727   5.096  14.378  0.00  0.00    +0.000 OA
BRANCH  17  18
ATOM     18  C   UNL     1       5.939   3.970  13.958  0.00  0.00    +0.000 C 
BRANCH  18  20
ATOM     19  C   UNL     1       4.919   3.226  11.792  0.00  0.00    +0.000 C 
ATOM     20  C   UNL     1       6.214   3.600  12.504  0.00  0.00    +0.000 C 
ENDBRANCH  18  20
ENDBRANCH  17  18
ENDBRANCH  15  17
ENDBRANCH  14  15
ENDBRANCH   1  14
TORSDOF 7
ENDMDL
MODEL 5
REMARK VINA RESULT:      -6.9      6.869      8.265
REMARK  Name = 
REMARK  8 active torsions:
REMARK  status: ('A' for Active; 'I' for Inactive)
REMARK    1  A    between atoms: C_1  and  C_2
REMARK    2  A    between atoms: C_2  and  C_3
REMARK    3  A    between atoms: C_3  and  O_4
REMARK    4  A    between atoms: O_4  and  C_5
REMARK    5  A    between atoms: C_5  and  C_7
REMARK    6  A    between atoms: C_7  and  N_8
REMARK    7  A    between atoms: C_9  and  C_11
REMARK    8  A    between atoms: C_12  and  C_13
REMARK                            x       y       z     vdW  Elec       q    Type
REMARK                         _______ _______ _______ _____ _____    ______ ____
ROOT
ATOM      1  N   UNL     1       7.840   5.857  18.357  0.00  0.00    +0.000 N 
ATOM      2  C   UNL     1       7.685   7.065  17.731  0.00  0.00    +0.000 C 
ATOM      3  O   UNL     1       7.072   7.216  16.683  0.00  0.00    +0.000 OA
ATOM      4  H   UNL     1       8.376   5.768  19.214  0.00  0.00    +0.000 HD
ENDROOT
BRANCH   2   5
ATOM      5  C   UNL     1       8.357   8.182  18.445  0.00  0.00    +0.000 C 
ATOM      6  C   UNL     1       8.303   9.431  17.953  0.00  0.00    +0.000 C 
BRANCH   6   7
ATOM      7  C   UNL     1       8.955  10.601  18.565  0.00  0.00    +0.000 A 
ATOM      8  C   UNL     1       9.067  11.830  17.902  0.00  0.00    +0.000 A 
ATOM      9  C   UNL     1       9.652  12.936  18.530  0.00  0.00    +0.000 A 
ATOM     10  C   UNL     1      10.117  12.824  19.837  0.00  0.00    +0.000 A 
ATOM     11 CL   UNL     1      10.826  14.185  20.613  0.00  0.00    +0.000 Cl
ATOM     12  C   UNL     1       9.998  11.617  20.520  0.00  0.00    +0.000 A 
ATOM     13  C   UNL     1       9.415  10.511  19.888  0.00  0.00    +0.000 A 
ENDBRANCH   6   7
ENDBRANCH   2   5
BRANCH   1  14
ATOM     14  C   UNL     1       7.307   4.631  17.779  0.00  0.00    +0.000 C 
BRANCH  14  15
ATOM     15  C   UNL     1       5.842   4.450  18.155  0.00  0.00    +0.000 C 
ATOM     16  O   UNL     1       5.450   4.227  19.295  0.00  0.00    +0.000 OA
BRANCH  15  17
ATOM     17  O   UNL     1       5.058   4.499  17.041  0.00  0.00    +0.000 OA
BRANCH  17  18
ATOM     18  C   UNL     1       5.534   3.768  15.899  0.00  0.00    +0.000 C 
BRANCH  18  20
ATOM     19  C   UNL     1       6.208   3.886  13.487  0.00  0.00    +0.000 C 
ATOM     20  C   UNL     1       5.550   4.632  14.643  0.00  0.00    +0.000 C 
ENDBRANCH  18  20
ENDBRANCH  17  18
ENDBRANCH  15  17
ENDBRANCH  14  15
ENDBRANCH   1  14
TORSDOF 7
ENDMDL
MODEL 6
REMARK VINA RESULT:      -6.8      6.506      7.575
REMARK  Name = 
REMARK  8 active torsions:
REMARK  status: ('A' for Active; 'I' for Inactive)
REMARK    1  A    between atoms: C_1  and  C_2
REMARK    2  A    between atoms: C_2  and  C_3
REMARK    3  A    between atoms: C_3  and  O_4
REMARK    4  A    between atoms: O_4  and  C_5
REMARK    5  A    between atoms: C_5  and  C_7
REMARK    6  A    between atoms: C_7  and  N_8
REMARK    7  A    between atoms: C_9  and  C_11
REMARK    8  A    between atoms: C_12  and  C_13
REMARK                            x       y       z     vdW  Elec       q    Type
REMARK                         _______ _______ _______ _____ _____    ______ ____
ROOT
ATOM      1  N   UNL     1       7.563   6.389  16.843  0.00  0.00    +0.000 N 
ATOM      2  C   UNL     1       6.684   7.336  17.297  0.00  0.00    +0.000 C 
ATOM      3  O   UNL     1       5.486   7.139  17.445  0.00  0.00    +0.000 OA
ATOM      4  H   UNL     1       8.547   6.597  16.712  0.00  0.00    +0.000 HD
ENDROOT
BRANCH   2   5
ATOM      5  C   UNL     1       7.330   8.645  17.577  0.00  0.00    +0.000 C 
ATOM      6  C   UNL     1       8.438   8.706  18.333  0.00  0.00    +0.000 C 
BRANCH   6   7
ATOM      7  C   UNL     1       9.140   9.949  18.693  0.00  0.00    +0.000 A 
ATOM      8  C   UNL     1       9.613  10.850  17.730  0.00  0.00    +0.000 A 
ATOM      9  C   UNL     1      10.235  12.046  18.106  0.00  0.00    +0.000 A 
ATOM     10  C   UNL     1      10.375  12.358  19.455  0.00  0.00    +0.000 A 
ATOM     11 CL   UNL     1      11.130  13.832  19.919  0.00  0.00    +0.000 Cl
ATOM     12  C   UNL     1       9.896  11.485  20.428  0.00  0.00    +0.000 A 
ATOM     13  C   UNL     1       9.276  10.288  20.048  0.00  0.00    +0.000 A 
ENDBRANCH   6   7
ENDBRANCH   2   5
BRANCH   1  14
ATOM     14  C   UNL     1       7.110   5.060  16.454  0.00  0.00    +0.000 C 
BRANCH  14  15
ATOM     15  C   UNL     1       7.266   4.857  14.952  0.00  0.00    +0.000 C 
ATOM     16  O   UNL     1       7.907   5.606  14.223  0.00  0.00    +0.000 OA
BRANCH  15  17
ATOM     17  O   UNL     1       6.539   3.780  14.542  0.00  0.00    +0.000 OA
BRANCH  17  18
ATOM     18  C   UNL     1       5.496   4.046  13.590  0.00  0.00    +0.000 C 
BRANCH  18  20
ATOM     19  C   UNL     1       4.437   3.258  11.459  0.00  0.00    +0.000 C 
ATOM     20  C   UNL     1       5.718   3.291  12.284  0.00  0.00    +0.000 C 
ENDBRANCH  18  20
ENDBRANCH  17  18
ENDBRANCH  15  17
ENDBRANCH  14  15
ENDBRANCH   1  14
TORSDOF 7
ENDMDL
MODEL 7
REMARK VINA RESULT:      -6.8      7.121      8.860
REMARK  Name = 
REMARK  8 active torsions:
REMARK  status: ('A' for Active; 'I' for Inactive)
REMARK    1  A    between atoms: C_1  and  C_2
REMARK    2  A    between atoms: C_2  and  C_3
REMARK    3  A    between atoms: C_3  and  O_4
REMARK    4  A    between atoms: O_4  and  C_5
REMARK    5  A    between atoms: C_5  and  C_7
REMARK    6  A    between atoms: C_7  and  N_8
REMARK    7  A    between atoms: C_9  and  C_11
REMARK    8  A    between atoms: C_12  and  C_13
REMARK                            x       y       z     vdW  Elec       q    Type
REMARK                         _______ _______ _______ _____ _____    ______ ____
ROOT
ATOM      1  N   UNL     1       7.872   6.666  18.499  0.00  0.00    +0.000 N 
ATOM      2  C   UNL     1       7.485   7.558  17.534  0.00  0.00    +0.000 C 
ATOM      3  O   UNL     1       6.815   7.257  16.557  0.00  0.00    +0.000 OA
ATOM      4  H   UNL     1       8.449   6.950  19.284  0.00  0.00    +0.000 HD
ENDROOT
BRANCH   2   5
ATOM      5  C   UNL     1       7.981   8.937  17.783  0.00  0.00    +0.000 C 
ATOM      6  C   UNL     1       8.849   9.177  18.779  0.00  0.00    +0.000 C 
BRANCH   6   7
ATOM      7  C   UNL     1       9.380  10.505  19.127  0.00  0.00    +0.000 A 
ATOM      8  C   UNL     1       9.640  11.486  18.162  0.00  0.00    +0.000 A 
ATOM      9  C   UNL     1      10.101  12.755  18.531  0.00  0.00    +0.000 A 
ATOM     10  C   UNL     1      10.290  13.058  19.876  0.00  0.00    +0.000 A 
ATOM     11 CL   UNL     1      10.847  14.620  20.331  0.00  0.00    +0.000 Cl
ATOM     12  C   UNL     1      10.021  12.104  20.853  0.00  0.00    +0.000 A 
ATOM     13  C   UNL     1       9.562  10.834  20.479  0.00  0.00    +0.000 A 
ENDBRANCH   6   7
ENDBRANCH   2   5
BRANCH   1  14
ATOM     14  C   UNL     1       7.538   5.252  18.400  0.00  0.00    +0.000 C 
BRANCH  14  15
ATOM     15  C   UNL     1       6.063   5.024  18.705  0.00  0.00    +0.000 C 
ATOM     16  O   UNL     1       5.486   5.492  19.680  0.00  0.00    +0.000 OA
BRANCH  15  17
ATOM     17  O   UNL     1       5.516   4.177  17.789  0.00  0.00    +0.000 OA
BRANCH  17  18
ATOM     18  C   UNL     1       4.322   3.489  18.196  0.00  0.00    +0.000 C 
BRANCH  18  20
ATOM     19  C   UNL     1       2.078   4.566  17.901  0.00  0.00    +0.000 C 
ATOM     20  C   UNL     1       3.169   3.740  17.230  0.00  0.00    +0.000 C 
ENDBRANCH  18  20
ENDBRANCH  17  18
ENDBRANCH  15  17
ENDBRANCH  14  15
ENDBRANCH   1  14
TORSDOF 7
ENDMDL
MODEL 8
REMARK VINA RESULT:      -6.8      7.123      8.682
REMARK  Name = 
REMARK  8 active torsions:
REMARK  status: ('A' for Active; 'I' for Inactive)
REMARK    1  A    between atoms: C_1  and  C_2
REMARK    2  A    between atoms: C_2  and  C_3
REMARK    3  A    between atoms: C_3  and  O_4
REMARK    4  A    between atoms: O_4  and  C_5
REMARK    5  A    between atoms: C_5  and  C_7
REMARK    6  A    between atoms: C_7  and  N_8
REMARK    7  A    between atoms: C_9  and  C_11
REMARK    8  A    between atoms: C_12  and  C_13
REMARK                            x       y       z     vdW  Elec       q    Type
REMARK                         _______ _______ _______ _____ _____    ______ ____
ROOT
ATOM      1  N   UNL     1       7.917   6.658  18.284  0.00  0.00    +0.000 N 
ATOM      2  C   UNL     1       7.429   7.620  17.440  0.00  0.00    +0.000 C 
ATOM      3  O   UNL     1       6.622   7.399  16.548  0.00  0.00    +0.000 OA
ATOM      4  H   UNL     1       8.604   6.876  18.997  0.00  0.00    +0.000 HD
ENDROOT
BRANCH   2   5
ATOM      5  C   UNL     1       7.995   8.969  17.704  0.00  0.00    +0.000 C 
ATOM      6  C   UNL     1       8.774   9.179  18.778  0.00  0.00    +0.000 C 
BRANCH   6   7
ATOM      7  C   UNL     1       9.362  10.478  19.146  0.00  0.00    +0.000 A 
ATOM      8  C   UNL     1       9.549  10.867  20.478  0.00  0.00    +0.000 A 
ATOM      9  C   UNL     1      10.153  12.090  20.793  0.00  0.00    +0.000 A 
ATOM     10  C   UNL     1      10.591  12.928  19.772  0.00  0.00    +0.000 A 
ATOM     11 CL   UNL     1      11.344  14.426  20.157  0.00  0.00    +0.000 Cl
ATOM     12  C   UNL     1      10.432  12.552  18.441  0.00  0.00    +0.000 A 
ATOM     13  C   UNL     1       9.824  11.329  18.130  0.00  0.00    +0.000 A 
ENDBRANCH   6   7
ENDBRANCH   2   5
BRANCH   1  14
ATOM     14  C   UNL     1       7.531   5.261  18.143  0.00  0.00    +0.000 C 
BRANCH  14  15
ATOM     15  C   UNL     1       6.098   5.048  18.615  0.00  0.00    +0.000 C 
ATOM     16  O   UNL     1       5.694   5.350  19.732  0.00  0.00    +0.000 OA
BRANCH  15  17
ATOM     17  O   UNL     1       5.371   4.415  17.652  0.00  0.00    +0.000 OA
BRANCH  17  18
ATOM     18  C   UNL     1       6.102   3.968  16.498  0.00  0.00    +0.000 C 
BRANCH  18  20
ATOM     19  C   UNL     1       6.334   4.271  14.020  0.00  0.00    +0.000 C 
ATOM     20  C   UNL     1       5.373   4.307  15.202  0.00  0.00    +0.000 C 
ENDBRANCH  18  20
ENDBRANCH  17  18
ENDBRANCH  15  17
ENDBRANCH  14  15
ENDBRANCH   1  14
TORSDOF 7
ENDMDL
MODEL 9
REMARK VINA RESULT:      -6.7      7.068      8.360
REMARK  Name = 
REMARK  8 active torsions:
REMARK  status: ('A' for Active; 'I' for Inactive)
REMARK    1  A    between atoms: C_1  and  C_2
REMARK    2  A    between atoms: C_2  and  C_3
REMARK    3  A    between atoms: C_3  and  O_4
REMARK    4  A    between atoms: O_4  and  C_5
REMARK    5  A    between atoms: C_5  and  C_7
REMARK    6  A    between atoms: C_7  and  N_8
REMARK    7  A    between atoms: C_9  and  C_11
REMARK    8  A    between atoms: C_12  and  C_13
REMARK                            x       y       z     vdW  Elec       q    Type
REMARK                         _______ _______ _______ _____ _____    ______ ____
ROOT
ATOM      1  N   UNL     1       6.784   7.173  17.028  0.00  0.00    +0.000 N 
ATOM      2  C   UNL     1       7.695   7.403  18.024  0.00  0.00    +0.000 C 
ATOM      3  O   UNL     1       7.961   6.597  18.905  0.00  0.00    +0.000 OA
ATOM      4  H   UNL     1       6.573   7.876  16.327  0.00  0.00    +0.000 HD
ENDROOT
BRANCH   2   5
ATOM      5  C   UNL     1       8.321   8.749  17.941  0.00  0.00    +0.000 C 
ATOM      6  C   UNL     1       8.895   9.297  19.025  0.00  0.00    +0.000 C 
BRANCH   6   7
ATOM      7  C   UNL     1       9.517  10.631  19.058  0.00  0.00    +0.000 A 
ATOM      8  C   UNL     1      10.034  11.189  20.235  0.00  0.00    +0.000 A 
ATOM      9  C   UNL     1      10.661  12.441  20.223  0.00  0.00    +0.000 A 
ATOM     10  C   UNL     1      10.790  13.139  19.026  0.00  0.00    +0.000 A 
ATOM     11 CL   UNL     1      11.569  14.672  19.009  0.00  0.00    +0.000 Cl
ATOM     12  C   UNL     1      10.299  12.594  17.843  0.00  0.00    +0.000 A 
ATOM     13  C   UNL     1       9.670  11.343  17.858  0.00  0.00    +0.000 A 
ENDBRANCH   6   7
ENDBRANCH   2   5
BRANCH   1  14
ATOM     14  C   UNL     1       6.018   5.935  16.974  0.00  0.00    +0.000 C 
BRANCH  14  15
ATOM     15  C   UNL     1       6.773   4.867  16.192  0.00  0.00    +0.000 C 
ATOM     16  O   UNL     1       7.936   4.549  16.416  0.00  0.00    +0.000 OA
BRANCH  15  17
ATOM     17  O   UNL     1       6.000   4.386  15.179  0.00  0.00    +0.000 OA
BRANCH  17  18
ATOM     18  C   UNL     1       6.581   4.422  13.866  0.00  0.00    +0.000 C 
BRANCH  18  20
ATOM     19  C   UNL     1       6.621   2.974  11.819  0.00  0.00    +0.000 C 
ATOM     20  C   UNL     1       5.734   3.659  12.853  0.00  0.00    +0.000 C 
ENDBRANCH  18  20
ENDBRANCH  17  18
ENDBRANCH  15  17
ENDBRANCH  14  15
ENDBRANCH   1  14
TORSDOF 7
ENDMDL
