MODEL 1
REMARK VINA RESULT:      -7.3      0.000      0.000
REMARK  Name = 
REMARK  5 active torsions:
REMARK  status: ('A' for Active; 'I' for Inactive)
REMARK    1  A    between atoms: O_1  and  C_2
REMARK    2  A    between atoms: C_4  and  C_5
REMARK    3  A    between atoms: C_5  and  C_6
REMARK    4  A    between atoms: C_15  and  S_16
REMARK    5  A    between atoms: S_16  and  C_17
REMARK                            x       y       z     vdW  Elec       q    Type
REMARK                         _______ _______ _______ _____ _____    ______ ____
ROOT
ATOM      1  C   UNL     1       6.284   5.459  18.857  0.00  0.00    +0.000 A 
ATOM      2  C   UNL     1       5.061   5.563  19.470  0.00  0.00    +0.000 A 
ATOM      3  C   UNL     1       3.997   5.828  18.630  0.00  0.00    +0.000 A 
ATOM      4  N   UNL     1       4.155   5.986  17.295  0.00  0.00    +0.000 NA
ATOM      5  C   UNL     1       5.403   5.870  16.804  0.00  0.00    +0.000 A 
ATOM      6  N   UNL     1       6.486   5.600  17.545  0.00  0.00    +0.000 NA
ENDROOT
BRANCH   1   7
ATOM      7  O   UNL     1       7.410   5.195  19.583  0.00  0.00    +0.000 OA
ATOM      8  H   UNL     1       7.340   5.640  20.440  0.00  0.00    +0.000 HD
ENDBRANCH   1   7
BRANCH   3   9
ATOM      9  C   UNL     1       2.602   5.975  19.198  0.00  0.00    +0.000 C 
BRANCH   9  10
ATOM     10  C   UNL     1       1.937   4.656  19.474  0.00  0.00    +0.000 A 
ATOM     11  C   UNL     1       1.916   4.123  20.764  0.00  0.00    +0.000 A 
ATOM     12  F   UNL     1       2.450   4.813  21.781  0.00  0.00    +0.000 F 
ATOM     13  C   UNL     1       1.344   2.879  21.028  0.00  0.00    +0.000 A 
ATOM     14  C   UNL     1       0.774   2.142  19.990  0.00  0.00    +0.000 A 
ATOM     15  C   UNL     1       0.780   2.659  18.699  0.00  0.00    +0.000 A 
ATOM     16  C   UNL     1       1.361   3.903  18.450  0.00  0.00    +0.000 A 
ATOM     17  F   UNL     1       1.363   4.375  17.194  0.00  0.00    +0.000 F 
ENDBRANCH   9  10
ENDBRANCH   3   9
BRANCH   5  18
ATOM     18  S   UNL     1       5.683   6.024  15.050  0.00  0.00    +0.000 S 
BRANCH  18  19
ATOM     19  C   UNL     1       6.891   4.674  14.729  0.00  0.00    +0.000 C 
ATOM     20  C   UNL     1       6.221   3.421  14.150  0.00  0.00    +0.000 C 
ATOM     21  C   UNL     1       5.771   3.571  12.696  0.00  0.00    +0.000 C 
ATOM     22  C   UNL     1       6.900   4.048  11.789  0.00  0.00    +0.000 C 
ATOM     23  C   UNL     1       7.577   5.308  12.318  0.00  0.00    +0.000 C 
ATOM     24  C   UNL     1       8.001   5.173  13.782  0.00  0.00    +0.000 C 
ENDBRANCH  18  19
ENDBRANCH   5  18
TORSDOF 5
ENDMDL
MODEL 2
REMARK VINA RESULT:      -7.3      2.537      5.244
REMARK  Name = 
REMARK  5 active torsions:
REMARK  status: ('A' for Active; 'I' for Inactive)
REMARK    1  A    between atoms: O_1  and  C_2
REMARK    2  A    between atoms: C_4  and  C_5
REMARK    3  A    between atoms: C_5  and  C_6
REMARK    4  A    between atoms: C_15  and  S_16
REMARK    5  A    between atoms: S_16  and  C_17
REMARK                            x       y       z     vdW  Elec       q    Type
REMARK                         _______ _______ _______ _____ _____    ______ ____
ROOT
ATOM      1  C   UNL     1       5.917   5.357  15.804  0.00  0.00    +0.000 A 
ATOM      2  C   UNL     1       5.403   4.132  16.146  0.00  0.00    +0.000 A 
ATOM      3  C   UNL     1       4.344   4.159  17.031  0.00  0.00    +0.000 A 
ATOM      4  N   UNL     1       3.855   5.317  17.535  0.00  0.00    +0.000 NA
ATOM      5  C   UNL     1       4.442   6.459  17.135  0.00  0.00    +0.000 A 
ATOM      6  N   UNL     1       5.464   6.523  16.269  0.00  0.00    +0.000 NA
ENDROOT
BRANCH   1   7
ATOM      7  O   UNL     1       6.965   5.457  14.933  0.00  0.00    +0.000 OA
ATOM      8  H   UNL     1       6.988   6.357  14.577  0.00  0.00    +0.000 HD
ENDBRANCH   1   7
BRANCH   3   9
ATOM      9  C   UNL     1       3.704   2.865  17.488  0.00  0.00    +0.000 C 
BRANCH   9  10
ATOM     10  C   UNL     1       2.930   3.010  18.768  0.00  0.00    +0.000 A 
ATOM     11  C   UNL     1       3.498   2.645  19.991  0.00  0.00    +0.000 A 
ATOM     12  F   UNL     1       4.763   2.205  20.035  0.00  0.00    +0.000 F 
ATOM     13  C   UNL     1       2.778   2.730  21.181  0.00  0.00    +0.000 A 
ATOM     14  C   UNL     1       1.461   3.192  21.165  0.00  0.00    +0.000 A 
ATOM     15  C   UNL     1       0.881   3.566  19.958  0.00  0.00    +0.000 A 
ATOM     16  C   UNL     1       1.613   3.470  18.774  0.00  0.00    +0.000 A 
ATOM     17  F   UNL     1       1.026   3.827  17.621  0.00  0.00    +0.000 F 
ENDBRANCH   9  10
ENDBRANCH   3   9
BRANCH   5  18
ATOM     18  S   UNL     1       3.828   8.026  17.723  0.00  0.00    +0.000 S 
BRANCH  18  19
ATOM     19  C   UNL     1       2.040   7.672  17.976  0.00  0.00    +0.000 C 
ATOM     20  C   UNL     1       1.745   7.158  19.391  0.00  0.00    +0.000 C 
ATOM     21  C   UNL     1       1.842   8.232  20.477  0.00  0.00    +0.000 C 
ATOM     22  C   UNL     1       0.989   9.454  20.156  0.00  0.00    +0.000 C 
ATOM     23  C   UNL     1       1.271  10.011  18.765  0.00  0.00    +0.000 C 
ATOM     24  C   UNL     1       1.205   8.934  17.681  0.00  0.00    +0.000 C 
ENDBRANCH  18  19
ENDBRANCH   5  18
TORSDOF 5
ENDMDL
MODEL 3
REMARK VINA RESULT:      -7.2      0.069      1.719
REMARK  Name = 
REMARK  5 active torsions:
REMARK  status: ('A' for Active; 'I' for Inactive)
REMARK    1  A    between atoms: O_1  and  C_2
REMARK    2  A    between atoms: C_4  and  C_5
REMARK    3  A    between atoms: C_5  and  C_6
REMARK    4  A    between atoms: C_15  and  S_16
REMARK    5  A    between atoms: S_16  and  C_17
REMARK                            x       y       z     vdW  Elec       q    Type
REMARK                         _______ _______ _______ _____ _____    ______ ____
ROOT
ATOM      1  C   UNL     1       6.281   5.525  18.863  0.00  0.00    +0.000 A 
ATOM      2  C   UNL     1       5.046   5.597  19.456  0.00  0.00    +0.000 A 
ATOM      3  C   UNL     1       3.990   5.841  18.600  0.00  0.00    +0.000 A 
ATOM      4  N   UNL     1       4.166   6.007  17.267  0.00  0.00    +0.000 NA
ATOM      5  C   UNL     1       5.424   5.922  16.797  0.00  0.00    +0.000 A 
ATOM      6  N   UNL     1       6.501   5.675  17.555  0.00  0.00    +0.000 NA
ENDROOT
BRANCH   1   7
ATOM      7  O   UNL     1       7.401   5.285  19.606  0.00  0.00    +0.000 OA
ATOM      8  H   UNL     1       7.306   4.426  20.045  0.00  0.00    +0.000 HD
ENDBRANCH   1   7
BRANCH   3   9
ATOM      9  C   UNL     1       2.582   5.953  19.145  0.00  0.00    +0.000 C 
BRANCH   9  10
ATOM     10  C   UNL     1       1.961   4.618  19.448  0.00  0.00    +0.000 A 
ATOM     11  C   UNL     1       1.391   3.849  18.431  0.00  0.00    +0.000 A 
ATOM     12  F   UNL     1       1.438   4.278  17.162  0.00  0.00    +0.000 F 
ATOM     13  C   UNL     1       0.769   2.631  18.702  0.00  0.00    +0.000 A 
ATOM     14  C   UNL     1       0.711   2.157  20.013  0.00  0.00    +0.000 A 
ATOM     15  C   UNL     1       1.279   2.906  21.038  0.00  0.00    +0.000 A 
ATOM     16  C   UNL     1       1.893   4.126  20.752  0.00  0.00    +0.000 A 
ATOM     17  F   UNL     1       2.423   4.834  21.760  0.00  0.00    +0.000 F 
ENDBRANCH   9  10
ENDBRANCH   3   9
BRANCH   5  18
ATOM     18  S   UNL     1       5.730   6.090  15.048  0.00  0.00    +0.000 S 
BRANCH  18  19
ATOM     19  C   UNL     1       6.931   4.732  14.731  0.00  0.00    +0.000 C 
ATOM     20  C   UNL     1       6.245   3.458  14.223  0.00  0.00    +0.000 C 
ATOM     21  C   UNL     1       5.741   3.554  12.782  0.00  0.00    +0.000 C 
ATOM     22  C   UNL     1       6.834   4.001  11.818  0.00  0.00    +0.000 C 
ATOM     23  C   UNL     1       7.525   5.281  12.275  0.00  0.00    +0.000 C 
ATOM     24  C   UNL     1       8.002   5.200  13.727  0.00  0.00    +0.000 C 
ENDBRANCH  18  19
ENDBRANCH   5  18
TORSDOF 5
ENDMDL
MODEL 4
REMARK VINA RESULT:      -7.2      1.117      1.518
REMARK  Name = 
REMARK  5 active torsions:
REMARK  status: ('A' for Active; 'I' for Inactive)
REMARK    1  A    between atoms: O_1  and  C_2
REMARK    2  A    between atoms: C_4  and  C_5
REMARK    3  A    between atoms: C_5  and  C_6
REMARK    4  A    between atoms: C_15  and  S_16
REMARK    5  A    between atoms: S_16  and  C_17
REMARK                            x       y       z     vdW  Elec       q    Type
REMARK                         _______ _______ _______ _____ _____    ______ ____
ROOT
ATOM      1  C   UNL     1       6.706   5.327  19.238  0.00  0.00    +0.000 A 
ATOM      2  C   UNL     1       5.387   5.681  19.360  0.00  0.00    +0.000 A 
ATOM      3  C   UNL     1       4.615   5.494  18.231  0.00  0.00    +0.000 A 
ATOM      4  N   UNL     1       5.130   5.004  17.079  0.00  0.00    +0.000 NA
ATOM      5  C   UNL     1       6.440   4.697  17.071  0.00  0.00    +0.000 A 
ATOM      6  N   UNL     1       7.256   4.834  18.126  0.00  0.00    +0.000 NA
ENDROOT
BRANCH   1   7
ATOM      7  O   UNL     1       7.568   5.463  20.289  0.00  0.00    +0.000 OA
ATOM      8  H   UNL     1       7.404   4.748  20.921  0.00  0.00    +0.000 HD
ENDBRANCH   1   7
BRANCH   3   9
ATOM      9  C   UNL     1       3.146   5.861  18.248  0.00  0.00    +0.000 C 
BRANCH   9  10
ATOM     10  C   UNL     1       2.273   4.771  18.805  0.00  0.00    +0.000 A 
ATOM     11  C   UNL     1       1.805   4.834  20.119  0.00  0.00    +0.000 A 
ATOM     12  F   UNL     1       2.093   5.898  20.881  0.00  0.00    +0.000 F 
ATOM     13  C   UNL     1       1.033   3.809  20.665  0.00  0.00    +0.000 A 
ATOM     14  C   UNL     1       0.712   2.693  19.892  0.00  0.00    +0.000 A 
ATOM     15  C   UNL     1       1.164   2.616  18.579  0.00  0.00    +0.000 A 
ATOM     16  C   UNL     1       1.940   3.647  18.048  0.00  0.00    +0.000 A 
ATOM     17  F   UNL     1       2.373   3.543  16.783  0.00  0.00    +0.000 F 
ENDBRANCH   9  10
ENDBRANCH   3   9
BRANCH   5  18
ATOM     18  S   UNL     1       7.181   4.009  15.603  0.00  0.00    +0.000 S 
BRANCH  18  19
ATOM     19  C   UNL     1       6.488   5.081  14.278  0.00  0.00    +0.000 C 
ATOM     20  C   UNL     1       7.411   5.164  13.056  0.00  0.00    +0.000 C 
ATOM     21  C   UNL     1       7.445   3.886  12.215  0.00  0.00    +0.000 C 
ATOM     22  C   UNL     1       6.050   3.425  11.808  0.00  0.00    +0.000 C 
ATOM     23  C   UNL     1       5.107   3.307  13.001  0.00  0.00    +0.000 C 
ATOM     24  C   UNL     1       5.094   4.571  13.863  0.00  0.00    +0.000 C 
ENDBRANCH  18  19
ENDBRANCH   5  18
TORSDOF 5
ENDMDL
MODEL 5
REMARK VINA RESULT:      -7.2      4.063      7.923
REMARK  Name = 
REMARK  5 active torsions:
REMARK  status: ('A' for Active; 'I' for Inactive)
REMARK    1  A    between atoms: O_1  and  C_2
REMARK    2  A    between atoms: C_4  and  C_5
REMARK    3  A    between atoms: C_5  and  C_6
REMARK    4  A    between atoms: C_15  and  S_16
REMARK    5  A    between atoms: S_16  and  C_17
REMARK                            x       y       z     vdW  Elec       q    Type
REMARK                         _______ _______ _______ _____ _____    ______ ____
ROOT
ATOM      1  C   UNL     1       1.326   4.437  20.149  0.00  0.00    +0.000 A 
ATOM      2  C   UNL     1       2.153   4.195  19.082  0.00  0.00    +0.000 A 
ATOM      3  C   UNL     1       2.894   5.276  18.648  0.00  0.00    +0.000 A 
ATOM      4  N   UNL     1       2.801   6.495  19.232  0.00  0.00    +0.000 NA
ATOM      5  C   UNL     1       1.951   6.618  20.268  0.00  0.00    +0.000 A 
ATOM      6  N   UNL     1       1.207   5.618  20.760  0.00  0.00    +0.000 NA
ENDROOT
BRANCH   1   7
ATOM      7  O   UNL     1       0.546   3.444  20.669  0.00  0.00    +0.000 OA
ATOM      8  H   UNL     1       0.562   2.687  20.066  0.00  0.00    +0.000 HD
ENDBRANCH   1   7
BRANCH   3   9
ATOM      9  C   UNL     1       3.833   5.128  17.470  0.00  0.00    +0.000 C 
BRANCH   9  10
ATOM     10  C   UNL     1       5.218   5.640  17.752  0.00  0.00    +0.000 A 
ATOM     11  C   UNL     1       5.971   5.116  18.805  0.00  0.00    +0.000 A 
ATOM     12  F   UNL     1       5.479   4.113  19.545  0.00  0.00    +0.000 F 
ATOM     13  C   UNL     1       7.238   5.612  19.110  0.00  0.00    +0.000 A 
ATOM     14  C   UNL     1       7.778   6.652  18.351  0.00  0.00    +0.000 A 
ATOM     15  C   UNL     1       7.045   7.182  17.295  0.00  0.00    +0.000 A 
ATOM     16  C   UNL     1       5.776   6.679  17.007  0.00  0.00    +0.000 A 
ATOM     17  F   UNL     1       5.085   7.215  15.989  0.00  0.00    +0.000 F 
ENDBRANCH   9  10
ENDBRANCH   3   9
BRANCH   5  18
ATOM     18  S   UNL     1       1.804   8.181  21.113  0.00  0.00    +0.000 S 
BRANCH  18  19
ATOM     19  C   UNL     1      -0.001   8.520  20.993  0.00  0.00    +0.000 C 
ATOM     20  C   UNL     1      -0.661   8.644  22.372  0.00  0.00    +0.000 C 
ATOM     21  C   UNL     1      -0.313   9.936  23.114  0.00  0.00    +0.000 C 
ATOM     22  C   UNL     1      -0.584  11.177  22.271  0.00  0.00    +0.000 C 
ATOM     23  C   UNL     1       0.077  11.103  20.898  0.00  0.00    +0.000 C 
ATOM     24  C   UNL     1      -0.243   9.798  20.166  0.00  0.00    +0.000 C 
ENDBRANCH  18  19
ENDBRANCH   5  18
TORSDOF 5
ENDMDL
MODEL 6
REMARK VINA RESULT:      -7.2      1.127      2.215
REMARK  Name = 
REMARK  5 active torsions:
REMARK  status: ('A' for Active; 'I' for Inactive)
REMARK    1  A    between atoms: O_1  and  C_2
REMARK    2  A    between atoms: C_4  and  C_5
REMARK    3  A    between atoms: C_5  and  C_6
REMARK    4  A    between atoms: C_15  and  S_16
REMARK    5  A    between atoms: S_16  and  C_17
REMARK                            x       y       z     vdW  Elec       q    Type
REMARK                         _______ _______ _______ _____ _____    ______ ____
ROOT
ATOM      1  C   UNL     1       6.749   5.333  19.253  0.00  0.00    +0.000 A 
ATOM      2  C   UNL     1       5.425   5.670  19.379  0.00  0.00    +0.000 A 
ATOM      3  C   UNL     1       4.653   5.474  18.250  0.00  0.00    +0.000 A 
ATOM      4  N   UNL     1       5.173   4.993  17.096  0.00  0.00    +0.000 NA
ATOM      5  C   UNL     1       6.488   4.703  17.086  0.00  0.00    +0.000 A 
ATOM      6  N   UNL     1       7.303   4.850  18.140  0.00  0.00    +0.000 NA
ENDROOT
BRANCH   1   7
ATOM      7  O   UNL     1       7.610   5.479  20.303  0.00  0.00    +0.000 OA
ATOM      8  H   UNL     1       8.178   4.697  20.352  0.00  0.00    +0.000 HD
ENDBRANCH   1   7
BRANCH   3   9
ATOM      9  C   UNL     1       3.180   5.821  18.270  0.00  0.00    +0.000 C 
BRANCH   9  10
ATOM     10  C   UNL     1       2.324   4.722  18.834  0.00  0.00    +0.000 A 
ATOM     11  C   UNL     1       1.972   3.619  18.053  0.00  0.00    +0.000 A 
ATOM     12  F   UNL     1       2.439   3.510  16.802  0.00  0.00    +0.000 F 
ATOM     13  C   UNL     1       1.139   2.615  18.546  0.00  0.00    +0.000 A 
ATOM     14  C   UNL     1       0.644   2.700  19.848  0.00  0.00    +0.000 A 
ATOM     15  C   UNL     1       0.989   3.788  20.643  0.00  0.00    +0.000 A 
ATOM     16  C   UNL     1       1.818   4.788  20.133  0.00  0.00    +0.000 A 
ATOM     17  F   UNL     1       2.127   5.832  20.916  0.00  0.00    +0.000 F 
ENDBRANCH   9  10
ENDBRANCH   3   9
BRANCH   5  18
ATOM     18  S   UNL     1       7.236   4.028  15.616  0.00  0.00    +0.000 S 
BRANCH  18  19
ATOM     19  C   UNL     1       6.525   5.093  14.294  0.00  0.00    +0.000 C 
ATOM     20  C   UNL     1       7.393   5.105  13.029  0.00  0.00    +0.000 C 
ATOM     21  C   UNL     1       7.338   3.805  12.224  0.00  0.00    +0.000 C 
ATOM     22  C   UNL     1       5.908   3.391  11.894  0.00  0.00    +0.000 C 
ATOM     23  C   UNL     1       5.017   3.343  13.131  0.00  0.00    +0.000 C 
ATOM     24  C   UNL     1       5.094   4.630  13.956  0.00  0.00    +0.000 C 
ENDBRANCH  18  19
ENDBRANCH   5  18
TORSDOF 5
ENDMDL
MODEL 7
REMARK VINA RESULT:      -7.1      2.568      5.363
REMARK  Name = 
REMARK  5 active torsions:
REMARK  status: ('A' for Active; 'I' for Inactive)
REMARK    1  A    between atoms: O_1  and  C_2
REMARK    2  A    between atoms: C_4  and  C_5
REMARK    3  A    between atoms: C_5  and  C_6
REMARK    4  A    between atoms: C_15  and  S_16
REMARK    5  A    between atoms: S_16  and  C_17
REMARK                            x       y       z     vdW  Elec       q    Type
REMARK                         _______ _______ _______ _____ _____    ______ ____
ROOT
ATOM      1  C   UNL     1       6.270   5.322  16.438  0.00  0.00    +0.000 A 
ATOM      2  C   UNL     1       5.675   4.107  16.666  0.00  0.00    +0.000 A 
ATOM      3  C   UNL     1       4.424   4.159  17.248  0.00  0.00    +0.000 A 
ATOM      4  N   UNL     1       3.832   5.330  17.582  0.00  0.00    +0.000 NA
ATOM      5  C   UNL     1       4.512   6.461  17.318  0.00  0.00    +0.000 A 
ATOM      6  N   UNL     1       5.722   6.500  16.743  0.00  0.00    +0.000 NA
ENDROOT
BRANCH   1   7
ATOM      7  O   UNL     1       7.506   5.398  15.864  0.00  0.00    +0.000 OA
ATOM      8  H   UNL     1       8.096   5.885  16.457  0.00  0.00    +0.000 HD
ENDBRANCH   1   7
BRANCH   3   9
ATOM      9  C   UNL     1       3.677   2.878  17.556  0.00  0.00    +0.000 C 
BRANCH   9  10
ATOM     10  C   UNL     1       2.941   2.926  18.866  0.00  0.00    +0.000 A 
ATOM     11  C   UNL     1       1.621   3.376  18.926  0.00  0.00    +0.000 A 
ATOM     12  F   UNL     1       0.981   3.724  17.801  0.00  0.00    +0.000 F 
ATOM     13  C   UNL     1       0.940   3.471  20.139  0.00  0.00    +0.000 A 
ATOM     14  C   UNL     1       1.579   3.108  21.325  0.00  0.00    +0.000 A 
ATOM     15  C   UNL     1       2.892   2.652  21.284  0.00  0.00    +0.000 A 
ATOM     16  C   UNL     1       3.562   2.568  20.063  0.00  0.00    +0.000 A 
ATOM     17  F   UNL     1       4.832   2.135  20.052  0.00  0.00    +0.000 F 
ENDBRANCH   9  10
ENDBRANCH   3   9
BRANCH   5  18
ATOM     18  S   UNL     1       3.780   8.043  17.691  0.00  0.00    +0.000 S 
BRANCH  18  19
ATOM     19  C   UNL     1       2.027   7.592  18.024  0.00  0.00    +0.000 C 
ATOM     20  C   UNL     1       1.823   7.073  19.453  0.00  0.00    +0.000 C 
ATOM     21  C   UNL     1       1.907   8.159  20.528  0.00  0.00    +0.000 C 
ATOM     22  C   UNL     1       0.974   9.330  20.239  0.00  0.00    +0.000 C 
ATOM     23  C   UNL     1       1.164   9.891  18.833  0.00  0.00    +0.000 C 
ATOM     24  C   UNL     1       1.112   8.804  17.759  0.00  0.00    +0.000 C 
ENDBRANCH  18  19
ENDBRANCH   5  18
TORSDOF 5
ENDMDL
MODEL 8
REMARK VINA RESULT:      -7.1      3.420      5.106
REMARK  Name = 
REMARK  5 active torsions:
REMARK  status: ('A' for Active; 'I' for Inactive)
REMARK    1  A    between atoms: O_1  and  C_2
REMARK    2  A    between atoms: C_4  and  C_5
REMARK    3  A    between atoms: C_5  and  C_6
REMARK    4  A    between atoms: C_15  and  S_16
REMARK    5  A    between atoms: S_16  and  C_17
REMARK                            x       y       z     vdW  Elec       q    Type
REMARK                         _______ _______ _______ _____ _____    ______ ____
ROOT
ATOM      1  C   UNL     1       1.179   4.035  20.027  0.00  0.00    +0.000 A 
ATOM      2  C   UNL     1       1.013   5.292  20.549  0.00  0.00    +0.000 A 
ATOM      3  C   UNL     1       2.097   6.137  20.419  0.00  0.00    +0.000 A 
ATOM      4  N   UNL     1       3.249   5.745  19.825  0.00  0.00    +0.000 NA
ATOM      5  C   UNL     1       3.302   4.485  19.355  0.00  0.00    +0.000 A 
ATOM      6  N   UNL     1       2.292   3.607  19.428  0.00  0.00    +0.000 NA
ENDROOT
BRANCH   1   7
ATOM      7  O   UNL     1       0.175   3.112  20.093  0.00  0.00    +0.000 OA
ATOM      8  H   UNL     1      -0.657   3.537  19.840  0.00  0.00    +0.000 HD
ENDBRANCH   1   7
BRANCH   3   9
ATOM      9  C   UNL     1       2.031   7.546  20.969  0.00  0.00    +0.000 C 
BRANCH   9  10
ATOM     10  C   UNL     1       1.249   8.484  20.092  0.00  0.00    +0.000 A 
ATOM     11  C   UNL     1       1.709   8.819  18.817  0.00  0.00    +0.000 A 
ATOM     12  F   UNL     1       2.834   8.266  18.345  0.00  0.00    +0.000 F 
ATOM     13  C   UNL     1       1.019   9.724  18.010  0.00  0.00    +0.000 A 
ATOM     14  C   UNL     1      -0.159  10.310  18.473  0.00  0.00    +0.000 A 
ATOM     15  C   UNL     1      -0.636   9.983  19.738  0.00  0.00    +0.000 A 
ATOM     16  C   UNL     1       0.068   9.081  20.536  0.00  0.00    +0.000 A 
ATOM     17  F   UNL     1      -0.407   8.790  21.757  0.00  0.00    +0.000 F 
ENDBRANCH   9  10
ENDBRANCH   3   9
BRANCH   5  18
ATOM     18  S   UNL     1       4.771   3.909  18.525  0.00  0.00    +0.000 S 
BRANCH  18  19
ATOM     19  C   UNL     1       5.526   5.480  17.935  0.00  0.00    +0.000 C 
ATOM     20  C   UNL     1       7.053   5.385  17.825  0.00  0.00    +0.000 C 
ATOM     21  C   UNL     1       7.540   4.532  16.652  0.00  0.00    +0.000 C 
ATOM     22  C   UNL     1       6.929   4.973  15.327  0.00  0.00    +0.000 C 
ATOM     23  C   UNL     1       5.407   5.057  15.388  0.00  0.00    +0.000 C 
ATOM     24  C   UNL     1       4.916   5.882  16.579  0.00  0.00    +0.000 C 
ENDBRANCH  18  19
ENDBRANCH   5  18
TORSDOF 5
ENDMDL
MODEL 9
REMARK VINA RESULT:      -7.1      4.371      6.205
REMARK  Name = 
REMARK  5 active torsions:
REMARK  status: ('A' for Active; 'I' for Inactive)
REMARK    1  A    between atoms: O_1  and  C_2
REMARK    2  A    between atoms: C_4  and  C_5
REMARK    3  A    between atoms: C_5  and  C_6
REMARK    4  A    between atoms: C_15  and  S_16
REMARK    5  A    between atoms: S_16  and  C_17
REMARK                            x       y       z     vdW  Elec       q    Type
REMARK                         _______ _______ _______ _____ _____    ______ ____
ROOT
ATOM      1  C   UNL     1       8.050   6.370  18.937  0.00  0.00    +0.000 A 
ATOM      2  C   UNL     1       7.127   5.796  18.099  0.00  0.00    +0.000 A 
ATOM      3  C   UNL     1       6.581   6.639  17.152  0.00  0.00    +0.000 A 
ATOM      4  N   UNL     1       6.925   7.946  17.066  0.00  0.00    +0.000 NA
ATOM      5  C   UNL     1       7.836   8.402  17.945  0.00  0.00    +0.000 A 
ATOM      6  N   UNL     1       8.425   7.649  18.884  0.00  0.00    +0.000 NA
ENDROOT
BRANCH   1   7
ATOM      7  O   UNL     1       8.661   5.634  19.912  0.00  0.00    +0.000 OA
ATOM      8  H   UNL     1       8.961   4.797  19.529  0.00  0.00    +0.000 HD
ENDBRANCH   1   7
BRANCH   3   9
ATOM      9  C   UNL     1       5.543   6.117  16.181  0.00  0.00    +0.000 C 
BRANCH   9  10
ATOM     10  C   UNL     1       4.409   5.401  16.860  0.00  0.00    +0.000 A 
ATOM     11  C   UNL     1       4.294   4.012  16.780  0.00  0.00    +0.000 A 
ATOM     12  F   UNL     1       5.227   3.299  16.134  0.00  0.00    +0.000 F 
ATOM     13  C   UNL     1       3.222   3.337  17.364  0.00  0.00    +0.000 A 
ATOM     14  C   UNL     1       2.240   4.053  18.049  0.00  0.00    +0.000 A 
ATOM     15  C   UNL     1       2.342   5.437  18.144  0.00  0.00    +0.000 A 
ATOM     16  C   UNL     1       3.417   6.098  17.549  0.00  0.00    +0.000 A 
ATOM     17  F   UNL     1       3.486   7.435  17.646  0.00  0.00    +0.000 F 
ENDBRANCH   9  10
ENDBRANCH   3   9
BRANCH   5  18
ATOM     18  S   UNL     1       8.371  10.101  17.867  0.00  0.00    +0.000 S 
BRANCH  18  19
ATOM     19  C   UNL     1       9.722  10.142  19.115  0.00  0.00    +0.000 C 
ATOM     20  C   UNL     1      10.964  10.882  18.602  0.00  0.00    +0.000 C 
ATOM     21  C   UNL     1      10.792  12.400  18.514  0.00  0.00    +0.000 C 
ATOM     22  C   UNL     1      10.309  13.002  19.829  0.00  0.00    +0.000 C 
ATOM     23  C   UNL     1       9.059  12.308  20.361  0.00  0.00    +0.000 C 
ATOM     24  C   UNL     1       9.216  10.787  20.420  0.00  0.00    +0.000 C 
ENDBRANCH  18  19
ENDBRANCH   5  18
TORSDOF 5
ENDMDL
