MODEL 1
REMARK VINA RESULT:      -8.3      0.000      0.000
REMARK  Name = 
REMARK  8 active torsions:
REMARK  status: ('A' for Active; 'I' for Inactive)
REMARK    1  A    between atoms: C_1  and  C_2
REMARK    2  A    between atoms: C_2  and  O_3
REMARK    3  A    between atoms: O_3  and  C_4
REMARK    4  A    between atoms: C_9  and  N_10
REMARK    5  A    between atoms: N_10  and  N_11
REMARK    6  A    between atoms: C_12  and  C_13
REMARK    7  A    between atoms: C_19  and  N_20
REMARK    8  A    between atoms: C_21  and  N_22
REMARK                            x       y       z     vdW  Elec       q    Type
REMARK                         _______ _______ _______ _____ _____    ______ ____
ROOT
ATOM      1  C   UNL     1       8.748   9.973  18.407  0.00  0.00    +0.000 C 
ATOM      2  O   UNL     1       9.410   9.611  19.365  0.00  0.00    +0.000 OA
ATOM      3  N   UNL     1       7.909   9.237  17.623  0.00  0.00    +0.000 N 
ATOM      4  C   UNL     1       7.593   7.893  17.831  0.00  0.00    +0.000 A 
ATOM      5  C   UNL     1       6.654   7.315  16.993  0.00  0.00    +0.000 A 
ATOM      6  C   UNL     1       6.295   5.975  17.181  0.00  0.00    +0.000 A 
ATOM      7  C   UNL     1       6.958   5.230  18.170  0.00  0.00    +0.000 A 
ATOM      8  C   UNL     1       7.860   5.920  18.994  0.00  0.00    +0.000 A 
ATOM      9  N   UNL     1       8.180   7.211  18.827  0.00  0.00    +0.000 NA
ATOM     10  H   UNL     1       7.442   9.749  16.894  0.00  0.00    +0.000 HD
ENDROOT
BRANCH   7  11
ATOM     11  N   UNL     1       6.589   3.883  18.421  0.00  0.00    +0.000 N 
ATOM     12  H   UNL     1       5.676   3.833  18.862  0.00  0.00    +0.000 HD
ATOM     13  H   UNL     1       6.649   3.326  17.572  0.00  0.00    +0.000 HD
ENDBRANCH   7  11
BRANCH   8  14
ATOM     14  N   UNL     1       8.523   5.278  20.051  0.00  0.00    +0.000 N 
ATOM     15  H   UNL     1       7.991   4.486  20.383  0.00  0.00    +0.000 HD
ATOM     16  H   UNL     1       9.412   4.976  19.651  0.00  0.00    +0.000 HD
ENDBRANCH   8  14
BRANCH   6  17
ATOM     17  N   UNL     1       5.367   5.332  16.326  0.00  0.00    +0.000 N 
ATOM     18  H   UNL     1       5.765   5.066  15.424  0.00  0.00    +0.000 HD
BRANCH  17  19
ATOM     19  N   UNL     1       4.352   4.661  16.905  0.00  0.00    +0.000 NA
ATOM     20  C   UNL     1       3.580   5.333  17.694  0.00  0.00    +0.000 C 
BRANCH  20  21
ATOM     21  C   UNL     1       2.534   4.633  18.469  0.00  0.00    +0.000 A 
ATOM     22  C   UNL     1       1.949   3.471  17.957  0.00  0.00    +0.000 A 
ATOM     23  C   UNL     1       1.012   2.768  18.708  0.00  0.00    +0.000 A 
ATOM     24  C   UNL     1       0.654   3.228  19.973  0.00  0.00    +0.000 A 
ATOM     25  C   UNL     1       1.233   4.391  20.485  0.00  0.00    +0.000 A 
ATOM     26  C   UNL     1       2.176   5.099  19.735  0.00  0.00    +0.000 A 
ENDBRANCH  20  21
ENDBRANCH  17  19
ENDBRANCH   6  17
BRANCH   1  27
ATOM     27  O   UNL     1       8.707  11.266  17.965  0.00  0.00    +0.000 OA
BRANCH  27  29
ATOM     28  C   UNL     1      10.888  12.168  17.554  0.00  0.00    +0.000 C 
ATOM     29  C   UNL     1       9.717  12.121  18.520  0.00  0.00    +0.000 C 
ENDBRANCH  27  29
ENDBRANCH   1  27
TORSDOF 7
ENDMDL
MODEL 2
REMARK VINA RESULT:      -8.0      0.078      1.012
REMARK  Name = 
REMARK  8 active torsions:
REMARK  status: ('A' for Active; 'I' for Inactive)
REMARK    1  A    between atoms: C_1  and  C_2
REMARK    2  A    between atoms: C_2  and  O_3
REMARK    3  A    between atoms: O_3  and  C_4
REMARK    4  A    between atoms: C_9  and  N_10
REMARK    5  A    between atoms: N_10  and  N_11
REMARK    6  A    between atoms: C_12  and  C_13
REMARK    7  A    between atoms: C_19  and  N_20
REMARK    8  A    between atoms: C_21  and  N_22
REMARK                            x       y       z     vdW  Elec       q    Type
REMARK                         _______ _______ _______ _____ _____    ______ ____
ROOT
ATOM      1  C   UNL     1       8.729   9.957  18.377  0.00  0.00    +0.000 C 
ATOM      2  O   UNL     1       9.396   9.604  19.335  0.00  0.00    +0.000 OA
ATOM      3  N   UNL     1       7.894   9.211  17.597  0.00  0.00    +0.000 N 
ATOM      4  C   UNL     1       7.589   7.866  17.811  0.00  0.00    +0.000 A 
ATOM      5  C   UNL     1       6.653   7.277  16.978  0.00  0.00    +0.000 A 
ATOM      6  C   UNL     1       6.305   5.935  17.172  0.00  0.00    +0.000 A 
ATOM      7  C   UNL     1       6.975   5.199  18.162  0.00  0.00    +0.000 A 
ATOM      8  C   UNL     1       7.874   5.899  18.982  0.00  0.00    +0.000 A 
ATOM      9  N   UNL     1       8.183   7.192  18.809  0.00  0.00    +0.000 NA
ATOM     10  H   UNL     1       7.421   9.717  16.867  0.00  0.00    +0.000 HD
ENDROOT
BRANCH   7  11
ATOM     11  N   UNL     1       6.618   3.850  18.419  0.00  0.00    +0.000 N 
ATOM     12  H   UNL     1       6.522   3.329  17.552  0.00  0.00    +0.000 HD
ATOM     13  H   UNL     1       7.269   3.420  19.070  0.00  0.00    +0.000 HD
ENDBRANCH   7  11
BRANCH   8  14
ATOM     14  N   UNL     1       8.544   5.267  20.040  0.00  0.00    +0.000 N 
ATOM     15  H   UNL     1       9.524   5.143  19.824  0.00  0.00    +0.000 HD
ATOM     16  H   UNL     1       8.425   5.899  20.833  0.00  0.00    +0.000 HD
ENDBRANCH   8  14
BRANCH   6  17
ATOM     17  N   UNL     1       5.380   5.282  16.321  0.00  0.00    +0.000 N 
ATOM     18  H   UNL     1       5.782   5.004  15.425  0.00  0.00    +0.000 HD
BRANCH  17  19
ATOM     19  N   UNL     1       4.362   4.618  16.904  0.00  0.00    +0.000 NA
ATOM     20  C   UNL     1       3.681   5.258  17.797  0.00  0.00    +0.000 C 
BRANCH  20  21
ATOM     21  C   UNL     1       2.643   4.549  18.575  0.00  0.00    +0.000 A 
ATOM     22  C   UNL     1       2.262   5.034  19.830  0.00  0.00    +0.000 A 
ATOM     23  C   UNL     1       1.240   4.412  20.541  0.00  0.00    +0.000 A 
ATOM     24  C   UNL     1       0.599   3.301  20.000  0.00  0.00    +0.000 A 
ATOM     25  C   UNL     1       0.981   2.811  18.750  0.00  0.00    +0.000 A 
ATOM     26  C   UNL     1       2.005   3.433  18.031  0.00  0.00    +0.000 A 
ENDBRANCH  20  21
ENDBRANCH  17  19
ENDBRANCH   6  17
BRANCH   1  27
ATOM     27  O   UNL     1       8.677  11.247  17.930  0.00  0.00    +0.000 OA
BRANCH  27  29
ATOM     28  C   UNL     1      10.820  12.226  17.499  0.00  0.00    +0.000 C 
ATOM     29  C   UNL     1       9.673  12.115  18.488  0.00  0.00    +0.000 C 
ENDBRANCH  27  29
ENDBRANCH   1  27
TORSDOF 7
ENDMDL
MODEL 3
REMARK VINA RESULT:      -7.5      3.949      5.328
REMARK  Name = 
REMARK  8 active torsions:
REMARK  status: ('A' for Active; 'I' for Inactive)
REMARK    1  A    between atoms: C_1  and  C_2
REMARK    2  A    between atoms: C_2  and  O_3
REMARK    3  A    between atoms: O_3  and  C_4
REMARK    4  A    between atoms: C_9  and  N_10
REMARK    5  A    between atoms: N_10  and  N_11
REMARK    6  A    between atoms: C_12  and  C_13
REMARK    7  A    between atoms: C_19  and  N_20
REMARK    8  A    between atoms: C_21  and  N_22
REMARK                            x       y       z     vdW  Elec       q    Type
REMARK                         _______ _______ _______ _____ _____    ______ ____
ROOT
ATOM      1  C   UNL     1       7.154   5.605  17.420  0.00  0.00    +0.000 C 
ATOM      2  O   UNL     1       7.705   4.520  17.486  0.00  0.00    +0.000 OA
ATOM      3  N   UNL     1       5.938   5.976  17.917  0.00  0.00    +0.000 N 
ATOM      4  C   UNL     1       5.104   5.158  18.682  0.00  0.00    +0.000 A 
ATOM      5  C   UNL     1       3.939   5.716  19.183  0.00  0.00    +0.000 A 
ATOM      6  C   UNL     1       3.086   4.935  19.971  0.00  0.00    +0.000 A 
ATOM      7  C   UNL     1       3.396   3.580  20.167  0.00  0.00    +0.000 A 
ATOM      8  C   UNL     1       4.620   3.123  19.654  0.00  0.00    +0.000 A 
ATOM      9  N   UNL     1       5.448   3.883  18.923  0.00  0.00    +0.000 NA
ATOM     10  H   UNL     1       5.687   6.938  17.767  0.00  0.00    +0.000 HD
ENDROOT
BRANCH   7  11
ATOM     11  N   UNL     1       2.579   2.769  20.997  0.00  0.00    +0.000 N 
ATOM     12  H   UNL     1       1.824   2.349  20.463  0.00  0.00    +0.000 HD
ATOM     13  H   UNL     1       3.139   2.084  21.498  0.00  0.00    +0.000 HD
ENDBRANCH   7  11
BRANCH   8  14
ATOM     14  N   UNL     1       5.050   1.803  19.853  0.00  0.00    +0.000 N 
ATOM     15  H   UNL     1       6.048   1.724  19.714  0.00  0.00    +0.000 HD
ATOM     16  H   UNL     1       4.801   1.595  20.821  0.00  0.00    +0.000 HD
ENDBRANCH   8  14
BRANCH   6  17
ATOM     17  N   UNL     1       1.867   5.453  20.475  0.00  0.00    +0.000 N 
ATOM     18  H   UNL     1       1.387   4.813  21.110  0.00  0.00    +0.000 HD
BRANCH  17  19
ATOM     19  N   UNL     1       1.750   6.793  20.560  0.00  0.00    +0.000 NA
ATOM     20  C   UNL     1       0.810   7.251  21.319  0.00  0.00    +0.000 C 
BRANCH  20  21
ATOM     21  C   UNL     1       0.535   8.704  21.350  0.00  0.00    +0.000 A 
ATOM     22  C   UNL     1       0.910   9.506  20.269  0.00  0.00    +0.000 A 
ATOM     23  C   UNL     1       0.597  10.863  20.260  0.00  0.00    +0.000 A 
ATOM     24  C   UNL     1      -0.088  11.420  21.336  0.00  0.00    +0.000 A 
ATOM     25  C   UNL     1      -0.458  10.623  22.421  0.00  0.00    +0.000 A 
ATOM     26  C   UNL     1      -0.148   9.260  22.433  0.00  0.00    +0.000 A 
ENDBRANCH  20  21
ENDBRANCH  17  19
ENDBRANCH   6  17
BRANCH   1  27
ATOM     27  O   UNL     1       7.720   6.704  16.840  0.00  0.00    +0.000 OA
BRANCH  27  29
ATOM     28  C   UNL     1       8.373   8.648  18.079  0.00  0.00    +0.000 C 
ATOM     29  C   UNL     1       7.239   7.960  17.339  0.00  0.00    +0.000 C 
ENDBRANCH  27  29
ENDBRANCH   1  27
TORSDOF 7
ENDMDL
MODEL 4
REMARK VINA RESULT:      -7.3      3.901      5.398
REMARK  Name = 
REMARK  8 active torsions:
REMARK  status: ('A' for Active; 'I' for Inactive)
REMARK    1  A    between atoms: C_1  and  C_2
REMARK    2  A    between atoms: C_2  and  O_3
REMARK    3  A    between atoms: O_3  and  C_4
REMARK    4  A    between atoms: C_9  and  N_10
REMARK    5  A    between atoms: N_10  and  N_11
REMARK    6  A    between atoms: C_12  and  C_13
REMARK    7  A    between atoms: C_19  and  N_20
REMARK    8  A    between atoms: C_21  and  N_22
REMARK                            x       y       z     vdW  Elec       q    Type
REMARK                         _______ _______ _______ _____ _____    ______ ____
ROOT
ATOM      1  C   UNL     1       7.511   5.602  18.505  0.00  0.00    +0.000 C 
ATOM      2  O   UNL     1       7.972   4.475  18.439  0.00  0.00    +0.000 OA
ATOM      3  N   UNL     1       6.244   5.988  18.835  0.00  0.00    +0.000 N 
ATOM      4  C   UNL     1       5.225   5.123  19.239  0.00  0.00    +0.000 A 
ATOM      5  C   UNL     1       4.018   5.685  19.623  0.00  0.00    +0.000 A 
ATOM      6  C   UNL     1       2.977   4.854  20.054  0.00  0.00    +0.000 A 
ATOM      7  C   UNL     1       3.160   3.463  20.010  0.00  0.00    +0.000 A 
ATOM      8  C   UNL     1       4.434   2.996  19.648  0.00  0.00    +0.000 A 
ATOM      9  N   UNL     1       5.436   3.798  19.263  0.00  0.00    +0.000 NA
ATOM     10  H   UNL     1       6.086   6.981  18.849  0.00  0.00    +0.000 HD
ENDROOT
BRANCH   7  11
ATOM     11  N   UNL     1       2.145   2.590  20.481  0.00  0.00    +0.000 N 
ATOM     12  H   UNL     1       2.547   1.736  20.855  0.00  0.00    +0.000 HD
ATOM     13  H   UNL     1       1.538   3.065  21.144  0.00  0.00    +0.000 HD
ENDBRANCH   7  11
BRANCH   8  14
ATOM     14  N   UNL     1       4.735   1.626  19.638  0.00  0.00    +0.000 N 
ATOM     15  H   UNL     1       5.213   1.355  20.486  0.00  0.00    +0.000 HD
ATOM     16  H   UNL     1       3.827   1.164  19.570  0.00  0.00    +0.000 HD
ENDBRANCH   8  14
BRANCH   6  17
ATOM     17  N   UNL     1       1.715   5.382  20.420  0.00  0.00    +0.000 N 
ATOM     18  H   UNL     1       1.151   4.736  20.973  0.00  0.00    +0.000 HD
BRANCH  17  19
ATOM     19  N   UNL     1       1.611   6.722  20.529  0.00  0.00    +0.000 NA
ATOM     20  C   UNL     1       0.677   7.175  21.300  0.00  0.00    +0.000 C 
BRANCH  20  21
ATOM     21  C   UNL     1       0.416   8.629  21.358  0.00  0.00    +0.000 A 
ATOM     22  C   UNL     1      -0.207   9.180  22.481  0.00  0.00    +0.000 A 
ATOM     23  C   UNL     1      -0.398  10.556  22.574  0.00  0.00    +0.000 A 
ATOM     24  C   UNL     1       0.032  11.384  21.541  0.00  0.00    +0.000 A 
ATOM     25  C   UNL     1       0.649  10.836  20.414  0.00  0.00    +0.000 A 
ATOM     26  C   UNL     1       0.845   9.456  20.317  0.00  0.00    +0.000 A 
ENDBRANCH  20  21
ENDBRANCH  17  19
ENDBRANCH   6  17
BRANCH   1  27
ATOM     27  O   UNL     1       8.248   6.732  18.288  0.00  0.00    +0.000 OA
BRANCH  27  29
ATOM     28  C   UNL     1       8.167   9.104  17.969  0.00  0.00    +0.000 C 
ATOM     29  C   UNL     1       7.557   7.770  17.578  0.00  0.00    +0.000 C 
ENDBRANCH  27  29
ENDBRANCH   1  27
TORSDOF 7
ENDMDL
MODEL 5
REMARK VINA RESULT:      -7.3      6.306      8.074
REMARK  Name = 
REMARK  8 active torsions:
REMARK  status: ('A' for Active; 'I' for Inactive)
REMARK    1  A    between atoms: C_1  and  C_2
REMARK    2  A    between atoms: C_2  and  O_3
REMARK    3  A    between atoms: O_3  and  C_4
REMARK    4  A    between atoms: C_9  and  N_10
REMARK    5  A    between atoms: N_10  and  N_11
REMARK    6  A    between atoms: C_12  and  C_13
REMARK    7  A    between atoms: C_19  and  N_20
REMARK    8  A    between atoms: C_21  and  N_22
REMARK                            x       y       z     vdW  Elec       q    Type
REMARK                         _______ _______ _______ _____ _____    ______ ____
ROOT
ATOM      1  C   UNL     1      -2.349  11.386  17.419  0.00  0.00    +0.000 C 
ATOM      2  O   UNL     1      -2.934  11.724  18.434  0.00  0.00    +0.000 OA
ATOM      3  N   UNL     1      -1.181  10.690  17.299  0.00  0.00    +0.000 N 
ATOM      4  C   UNL     1      -0.453  10.161  18.366  0.00  0.00    +0.000 A 
ATOM      5  C   UNL     1       0.669   9.405  18.068  0.00  0.00    +0.000 A 
ATOM      6  C   UNL     1       1.415   8.840  19.109  0.00  0.00    +0.000 A 
ATOM      7  C   UNL     1       1.050   9.123  20.434  0.00  0.00    +0.000 A 
ATOM      8  C   UNL     1      -0.127   9.862  20.630  0.00  0.00    +0.000 A 
ATOM      9  N   UNL     1      -0.855  10.378  19.629  0.00  0.00    +0.000 NA
ATOM     10  H   UNL     1      -0.890  10.497  16.356  0.00  0.00    +0.000 HD
ENDROOT
BRANCH   7  11
ATOM     11  N   UNL     1       1.754   8.532  21.515  0.00  0.00    +0.000 N 
ATOM     12  H   UNL     1       2.749   8.725  21.449  0.00  0.00    +0.000 HD
ATOM     13  H   UNL     1       1.355   8.814  22.406  0.00  0.00    +0.000 HD
ENDBRANCH   7  11
BRANCH   8  14
ATOM     14  N   UNL     1      -0.611  10.141  21.917  0.00  0.00    +0.000 N 
ATOM     15  H   UNL     1       0.031   9.811  22.623  0.00  0.00    +0.000 HD
ATOM     16  H   UNL     1      -0.691  11.158  21.946  0.00  0.00    +0.000 HD
ENDBRANCH   8  14
BRANCH   6  17
ATOM     17  N   UNL     1       2.590   8.090  18.852  0.00  0.00    +0.000 N 
ATOM     18  H   UNL     1       3.444   8.645  18.910  0.00  0.00    +0.000 HD
BRANCH  17  19
ATOM     19  N   UNL     1       2.554   6.770  19.123  0.00  0.00    +0.000 NA
ATOM     20  C   UNL     1       2.232   5.982  18.151  0.00  0.00    +0.000 C 
BRANCH  20  21
ATOM     21  C   UNL     1       2.037   4.539  18.410  0.00  0.00    +0.000 A 
ATOM     22  C   UNL     1       2.569   3.596  17.525  0.00  0.00    +0.000 A 
ATOM     23  C   UNL     1       2.448   2.236  17.795  0.00  0.00    +0.000 A 
ATOM     24  C   UNL     1       1.792   1.816  18.949  0.00  0.00    +0.000 A 
ATOM     25  C   UNL     1       1.255   2.756  19.832  0.00  0.00    +0.000 A 
ATOM     26  C   UNL     1       1.375   4.122  19.566  0.00  0.00    +0.000 A 
ENDBRANCH  20  21
ENDBRANCH  17  19
ENDBRANCH   6  17
BRANCH   1  27
ATOM     27  O   UNL     1      -2.823  11.626  16.161  0.00  0.00    +0.000 OA
BRANCH  27  29
ATOM     28  C   UNL     1      -3.155  10.101  14.344  0.00  0.00    +0.000 C 
ATOM     29  C   UNL     1      -3.715  10.623  15.655  0.00  0.00    +0.000 C 
ENDBRANCH  27  29
ENDBRANCH   1  27
TORSDOF 7
ENDMDL
MODEL 6
REMARK VINA RESULT:      -7.2      3.270      8.239
REMARK  Name = 
REMARK  8 active torsions:
REMARK  status: ('A' for Active; 'I' for Inactive)
REMARK    1  A    between atoms: C_1  and  C_2
REMARK    2  A    between atoms: C_2  and  O_3
REMARK    3  A    between atoms: O_3  and  C_4
REMARK    4  A    between atoms: C_9  and  N_10
REMARK    5  A    between atoms: N_10  and  N_11
REMARK    6  A    between atoms: C_12  and  C_13
REMARK    7  A    between atoms: C_19  and  N_20
REMARK    8  A    between atoms: C_21  and  N_22
REMARK                            x       y       z     vdW  Elec       q    Type
REMARK                         _______ _______ _______ _____ _____    ______ ____
ROOT
ATOM      1  C   UNL     1       2.126   3.997  18.418  0.00  0.00    +0.000 C 
ATOM      2  O   UNL     1       1.814   3.614  17.304  0.00  0.00    +0.000 OA
ATOM      3  N   UNL     1       3.302   4.555  18.830  0.00  0.00    +0.000 N 
ATOM      4  C   UNL     1       4.378   4.861  17.995  0.00  0.00    +0.000 A 
ATOM      5  C   UNL     1       5.467   5.505  18.558  0.00  0.00    +0.000 A 
ATOM      6  C   UNL     1       6.558   5.847  17.751  0.00  0.00    +0.000 A 
ATOM      7  C   UNL     1       6.551   5.455  16.403  0.00  0.00    +0.000 A 
ATOM      8  C   UNL     1       5.382   4.846  15.919  0.00  0.00    +0.000 A 
ATOM      9  N   UNL     1       4.328   4.546  16.691  0.00  0.00    +0.000 NA
ATOM     10  H   UNL     1       3.334   4.822  19.799  0.00  0.00    +0.000 HD
ENDROOT
BRANCH   7  11
ATOM     11  N   UNL     1       7.618   5.823  15.543  0.00  0.00    +0.000 N 
ATOM     12  H   UNL     1       7.785   5.104  14.844  0.00  0.00    +0.000 HD
ATOM     13  H   UNL     1       7.456   6.740  15.135  0.00  0.00    +0.000 HD
ENDBRANCH   7  11
BRANCH   8  14
ATOM     14  N   UNL     1       5.253   4.477  14.572  0.00  0.00    +0.000 N 
ATOM     15  H   UNL     1       5.372   5.277  13.966  0.00  0.00    +0.000 HD
ATOM     16  H   UNL     1       5.996   3.793  14.421  0.00  0.00    +0.000 HD
ENDBRANCH   8  14
BRANCH   6  17
ATOM     17  N   UNL     1       7.708   6.473  18.291  0.00  0.00    +0.000 N 
ATOM     18  H   UNL     1       8.450   5.816  18.535  0.00  0.00    +0.000 HD
BRANCH  17  19
ATOM     19  N   UNL     1       7.952   7.747  17.922  0.00  0.00    +0.000 NA
ATOM     20  C   UNL     1       8.631   8.475  18.745  0.00  0.00    +0.000 C 
BRANCH  20  21
ATOM     21  C   UNL     1       8.815   9.916  18.470  0.00  0.00    +0.000 A 
ATOM     22  C   UNL     1       7.948  10.573  17.592  0.00  0.00    +0.000 A 
ATOM     23  C   UNL     1       8.073  11.943  17.377  0.00  0.00    +0.000 A 
ATOM     24  C   UNL     1       9.068  12.658  18.038  0.00  0.00    +0.000 A 
ATOM     25  C   UNL     1       9.940  12.003  18.911  0.00  0.00    +0.000 A 
ATOM     26  C   UNL     1       9.817  10.629  19.131  0.00  0.00    +0.000 A 
ENDBRANCH  20  21
ENDBRANCH  17  19
ENDBRANCH   6  17
BRANCH   1  27
ATOM     27  O   UNL     1       1.279   3.968  19.490  0.00  0.00    +0.000 OA
BRANCH  27  29
ATOM     28  C   UNL     1       1.624   2.945  21.628  0.00  0.00    +0.000 C 
ATOM     29  C   UNL     1       1.231   2.711  20.180  0.00  0.00    +0.000 C 
ENDBRANCH  27  29
ENDBRANCH   1  27
TORSDOF 7
ENDMDL
MODEL 7
REMARK VINA RESULT:      -7.2      5.489      6.983
REMARK  Name = 
REMARK  8 active torsions:
REMARK  status: ('A' for Active; 'I' for Inactive)
REMARK    1  A    between atoms: C_1  and  C_2
REMARK    2  A    between atoms: C_2  and  O_3
REMARK    3  A    between atoms: O_3  and  C_4
REMARK    4  A    between atoms: C_9  and  N_10
REMARK    5  A    between atoms: N_10  and  N_11
REMARK    6  A    between atoms: C_12  and  C_13
REMARK    7  A    between atoms: C_19  and  N_20
REMARK    8  A    between atoms: C_21  and  N_22
REMARK                            x       y       z     vdW  Elec       q    Type
REMARK                         _______ _______ _______ _____ _____    ______ ____
ROOT
ATOM      1  C   UNL     1       4.733   3.914  17.044  0.00  0.00    +0.000 C 
ATOM      2  O   UNL     1       4.619   3.135  17.974  0.00  0.00    +0.000 OA
ATOM      3  N   UNL     1       4.238   5.179  16.924  0.00  0.00    +0.000 N 
ATOM      4  C   UNL     1       3.537   5.861  17.921  0.00  0.00    +0.000 A 
ATOM      5  C   UNL     1       3.176   7.175  17.671  0.00  0.00    +0.000 A 
ATOM      6  C   UNL     1       2.490   7.899  18.653  0.00  0.00    +0.000 A 
ATOM      7  C   UNL     1       2.116   7.246  19.838  0.00  0.00    +0.000 A 
ATOM      8  C   UNL     1       2.567   5.929  20.012  0.00  0.00    +0.000 A 
ATOM      9  N   UNL     1       3.249   5.248  19.080  0.00  0.00    +0.000 NA
ATOM     10  H   UNL     1       4.476   5.656  16.071  0.00  0.00    +0.000 HD
ENDROOT
BRANCH   7  11
ATOM     11  N   UNL     1       1.460   7.959  20.874  0.00  0.00    +0.000 N 
ATOM     12  H   UNL     1       0.833   7.351  21.393  0.00  0.00    +0.000 HD
ATOM     13  H   UNL     1       2.133   8.435  21.470  0.00  0.00    +0.000 HD
ENDBRANCH   7  11
BRANCH   8  14
ATOM     14  N   UNL     1       2.301   5.214  21.190  0.00  0.00    +0.000 N 
ATOM     15  H   UNL     1       3.033   4.542  21.377  0.00  0.00    +0.000 HD
ATOM     16  H   UNL     1       2.266   5.926  21.920  0.00  0.00    +0.000 HD
ENDBRANCH   8  14
BRANCH   6  17
ATOM     17  N   UNL     1       2.070   9.233  18.427  0.00  0.00    +0.000 N 
ATOM     18  H   UNL     1       2.836   9.865  18.192  0.00  0.00    +0.000 HD
BRANCH  17  19
ATOM     19  N   UNL     1       0.808   9.420  17.992  0.00  0.00    +0.000 NA
ATOM     20  C   UNL     1       0.174  10.446  18.457  0.00  0.00    +0.000 C 
BRANCH  20  21
ATOM     21  C   UNL     1      -1.256  10.634  18.131  0.00  0.00    +0.000 A 
ATOM     22  C   UNL     1      -1.846   9.869  17.122  0.00  0.00    +0.000 A 
ATOM     23  C   UNL     1      -3.207   9.991  16.853  0.00  0.00    +0.000 A 
ATOM     24  C   UNL     1      -3.979  10.883  17.592  0.00  0.00    +0.000 A 
ATOM     25  C   UNL     1      -3.391  11.655  18.597  0.00  0.00    +0.000 A 
ATOM     26  C   UNL     1      -2.026  11.533  18.872  0.00  0.00    +0.000 A 
ENDBRANCH  20  21
ENDBRANCH  17  19
ENDBRANCH   6  17
BRANCH   1  27
ATOM     27  O   UNL     1       5.460   3.642  15.919  0.00  0.00    +0.000 OA
BRANCH  27  29
ATOM     28  C   UNL     1       6.792   4.772  14.280  0.00  0.00    +0.000 C 
ATOM     29  C   UNL     1       6.634   4.449  15.755  0.00  0.00    +0.000 C 
ENDBRANCH  27  29
ENDBRANCH   1  27
TORSDOF 7
ENDMDL
MODEL 8
REMARK VINA RESULT:      -7.2      5.498      7.124
REMARK  Name = 
REMARK  8 active torsions:
REMARK  status: ('A' for Active; 'I' for Inactive)
REMARK    1  A    between atoms: C_1  and  C_2
REMARK    2  A    between atoms: C_2  and  O_3
REMARK    3  A    between atoms: O_3  and  C_4
REMARK    4  A    between atoms: C_9  and  N_10
REMARK    5  A    between atoms: N_10  and  N_11
REMARK    6  A    between atoms: C_12  and  C_13
REMARK    7  A    between atoms: C_19  and  N_20
REMARK    8  A    between atoms: C_21  and  N_22
REMARK                            x       y       z     vdW  Elec       q    Type
REMARK                         _______ _______ _______ _____ _____    ______ ____
ROOT
ATOM      1  C   UNL     1       4.905   3.913  17.051  0.00  0.00    +0.000 C 
ATOM      2  O   UNL     1       4.791   3.147  17.992  0.00  0.00    +0.000 OA
ATOM      3  N   UNL     1       4.386   5.167  16.903  0.00  0.00    +0.000 N 
ATOM      4  C   UNL     1       3.656   5.849  17.878  0.00  0.00    +0.000 A 
ATOM      5  C   UNL     1       3.274   7.152  17.602  0.00  0.00    +0.000 A 
ATOM      6  C   UNL     1       2.558   7.878  18.561  0.00  0.00    +0.000 A 
ATOM      7  C   UNL     1       2.178   7.236  19.751  0.00  0.00    +0.000 A 
ATOM      8  C   UNL     1       2.653   5.931  19.953  0.00  0.00    +0.000 A 
ATOM      9  N   UNL     1       3.362   5.249  19.042  0.00  0.00    +0.000 NA
ATOM     10  H   UNL     1       4.628   5.634  16.047  0.00  0.00    +0.000 HD
ENDROOT
BRANCH   7  11
ATOM     11  N   UNL     1       1.492   7.952  20.765  0.00  0.00    +0.000 N 
ATOM     12  H   UNL     1       0.562   8.217  20.456  0.00  0.00    +0.000 HD
ATOM     13  H   UNL     1       1.486   7.430  21.637  0.00  0.00    +0.000 HD
ENDBRANCH   7  11
BRANCH   8  14
ATOM     14  N   UNL     1       2.383   5.229  21.138  0.00  0.00    +0.000 N 
ATOM     15  H   UNL     1       2.918   5.603  21.909  0.00  0.00    +0.000 HD
ATOM     16  H   UNL     1       1.382   5.363  21.293  0.00  0.00    +0.000 HD
ENDBRANCH   8  14
BRANCH   6  17
ATOM     17  N   UNL     1       2.115   9.199  18.307  0.00  0.00    +0.000 N 
ATOM     18  H   UNL     1       2.865   9.830  18.021  0.00  0.00    +0.000 HD
BRANCH  17  19
ATOM     19  N   UNL     1       0.835   9.359  17.916  0.00  0.00    +0.000 NA
ATOM     20  C   UNL     1       0.210  10.396  18.368  0.00  0.00    +0.000 C 
BRANCH  20  21
ATOM     21  C   UNL     1      -1.233  10.560  18.093  0.00  0.00    +0.000 A 
ATOM     22  C   UNL     1      -1.986  11.465  18.847  0.00  0.00    +0.000 A 
ATOM     23  C   UNL     1      -3.331  11.675  18.552  0.00  0.00    +0.000 A 
ATOM     24  C   UNL     1      -3.926  10.977  17.505  0.00  0.00    +0.000 A 
ATOM     25  C   UNL     1      -3.178  10.067  16.755  0.00  0.00    +0.000 A 
ATOM     26  C   UNL     1      -1.827   9.855  17.045  0.00  0.00    +0.000 A 
ENDBRANCH  20  21
ENDBRANCH  17  19
ENDBRANCH   6  17
BRANCH   1  27
ATOM     27  O   UNL     1       5.654   3.638  15.942  0.00  0.00    +0.000 OA
BRANCH  27  29
ATOM     28  C   UNL     1       6.026   3.909  13.591  0.00  0.00    +0.000 C 
ATOM     29  C   UNL     1       5.459   4.545  14.848  0.00  0.00    +0.000 C 
ENDBRANCH  27  29
ENDBRANCH   1  27
TORSDOF 7
ENDMDL
MODEL 9
REMARK VINA RESULT:      -7.1      3.891      5.358
REMARK  Name = 
REMARK  8 active torsions:
REMARK  status: ('A' for Active; 'I' for Inactive)
REMARK    1  A    between atoms: C_1  and  C_2
REMARK    2  A    between atoms: C_2  and  O_3
REMARK    3  A    between atoms: O_3  and  C_4
REMARK    4  A    between atoms: C_9  and  N_10
REMARK    5  A    between atoms: N_10  and  N_11
REMARK    6  A    between atoms: C_12  and  C_13
REMARK    7  A    between atoms: C_19  and  N_20
REMARK    8  A    between atoms: C_21  and  N_22
REMARK                            x       y       z     vdW  Elec       q    Type
REMARK                         _______ _______ _______ _____ _____    ______ ____
ROOT
ATOM      1  C   UNL     1       6.982   5.456  17.178  0.00  0.00    +0.000 C 
ATOM      2  O   UNL     1       7.487   4.347  17.161  0.00  0.00    +0.000 OA
ATOM      3  N   UNL     1       5.847   5.867  17.816  0.00  0.00    +0.000 N 
ATOM      4  C   UNL     1       5.066   5.068  18.653  0.00  0.00    +0.000 A 
ATOM      5  C   UNL     1       3.991   5.663  19.292  0.00  0.00    +0.000 A 
ATOM      6  C   UNL     1       3.196   4.901  20.156  0.00  0.00    +0.000 A 
ATOM      7  C   UNL     1       3.463   3.529  20.288  0.00  0.00    +0.000 A 
ATOM      8  C   UNL     1       4.601   3.033  19.633  0.00  0.00    +0.000 A 
ATOM      9  N   UNL     1       5.377   3.774  18.828  0.00  0.00    +0.000 NA
ATOM     10  H   UNL     1       5.626   6.843  17.713  0.00  0.00    +0.000 HD
ENDROOT
BRANCH   7  11
ATOM     11  N   UNL     1       2.707   2.734  21.188  0.00  0.00    +0.000 N 
ATOM     12  H   UNL     1       2.240   3.313  21.879  0.00  0.00    +0.000 HD
ATOM     13  H   UNL     1       2.068   2.125  20.685  0.00  0.00    +0.000 HD
ENDBRANCH   7  11
BRANCH   8  14
ATOM     14  N   UNL     1       4.989   1.690  19.756  0.00  0.00    +0.000 N 
ATOM     15  H   UNL     1       5.946   1.619  20.075  0.00  0.00    +0.000 HD
ATOM     16  H   UNL     1       4.347   1.300  20.447  0.00  0.00    +0.000 HD
ENDBRANCH   8  14
BRANCH   6  17
ATOM     17  N   UNL     1       2.065   5.458  20.802  0.00  0.00    +0.000 N 
ATOM     18  H   UNL     1       2.045   5.279  21.807  0.00  0.00    +0.000 HD
BRANCH  17  19
ATOM     19  N   UNL     1       1.505   6.549  20.242  0.00  0.00    +0.000 NA
ATOM     20  C   UNL     1       1.693   7.678  20.843  0.00  0.00    +0.000 C 
BRANCH  20  21
ATOM     21  C   UNL     1       0.994   8.889  20.364  0.00  0.00    +0.000 A 
ATOM     22  C   UNL     1       0.101   9.557  21.206  0.00  0.00    +0.000 A 
ATOM     23  C   UNL     1      -0.511  10.735  20.788  0.00  0.00    +0.000 A 
ATOM     24  C   UNL     1      -0.234  11.246  19.523  0.00  0.00    +0.000 A 
ATOM     25  C   UNL     1       0.654  10.578  18.676  0.00  0.00    +0.000 A 
ATOM     26  C   UNL     1       1.272   9.396  19.093  0.00  0.00    +0.000 A 
ENDBRANCH  20  21
ENDBRANCH  17  19
ENDBRANCH   6  17
BRANCH   1  27
ATOM     27  O   UNL     1       7.531   6.544  16.560  0.00  0.00    +0.000 OA
BRANCH  27  29
ATOM     28  C   UNL     1       8.317   7.478  18.620  0.00  0.00    +0.000 C 
ATOM     29  C   UNL     1       7.533   7.743  17.348  0.00  0.00    +0.000 C 
ENDBRANCH  27  29
ENDBRANCH   1  27
TORSDOF 7
ENDMDL
