MODEL 1
REMARK VINA RESULT:      -7.3      0.000      0.000
REMARK  Name = 
REMARK  12 active torsions:
REMARK  status: ('A' for Active; 'I' for Inactive)
REMARK    1  A    between atoms: C_1  and  O_2
REMARK    2  A    between atoms: O_2  and  C_3
REMARK    3  A    between atoms: C_5  and  C_6
REMARK    4  A    between atoms: C_17  and  O_18
REMARK    5  A    between atoms: O_18  and  C_19
REMARK    6  A    between atoms: C_19  and  C_20
REMARK    7  A    between atoms: C_20  and  C_21
REMARK    8  A    between atoms: C_21  and  O_22
REMARK    9  A    between atoms: O_22  and  C_23
REMARK   10  A    between atoms: C_31  and  C_32
REMARK   11  A    between atoms: C_32  and  C_33
REMARK   12  A    between atoms: C_33  and  O_35
REMARK                            x       y       z     vdW  Elec       q    Type
REMARK                         _______ _______ _______ _____ _____    ______ ____
ROOT
ATOM      1  O   UNL     1      -1.283  12.023  23.150  0.00  0.00    +0.000 OA
ENDROOT
BRANCH   1   7
ATOM      2  C   UNL     1       0.089  11.468  21.125  0.00  0.00    +0.000 A 
ATOM      3  C   UNL     1       0.849  10.469  20.491  0.00  0.00    +0.000 A 
ATOM      4  C   UNL     1       0.920   9.173  21.004  0.00  0.00    +0.000 A 
ATOM      5  C   UNL     1       0.283   8.915  22.229  0.00  0.00    +0.000 A 
ATOM      6  C   UNL     1      -0.410   9.918  22.902  0.00  0.00    +0.000 A 
ATOM      7  C   UNL     1      -0.530  11.198  22.358  0.00  0.00    +0.000 A 
BRANCH   4   8
ATOM      8  C   UNL     1       1.570   8.044  20.310  0.00  0.00    +0.000 A 
ATOM      9  N   UNL     1       1.657   6.839  20.837  0.00  0.00    +0.000 NA
ATOM     10  C   UNL     1       2.235   5.959  19.949  0.00  0.00    +0.000 A 
ATOM     11  C   UNL     1       2.461   4.594  20.197  0.00  0.00    +0.000 A 
ATOM     12  C   UNL     1       3.070   3.807  19.207  0.00  0.00    +0.000 A 
ATOM     13  C   UNL     1       3.438   4.370  17.992  0.00  0.00    +0.000 A 
ATOM     14  C   UNL     1       3.204   5.722  17.721  0.00  0.00    +0.000 A 
ATOM     15  C   UNL     1       2.600   6.502  18.720  0.00  0.00    +0.000 A 
ATOM     16  S   UNL     1       2.185   8.170  18.704  0.00  0.00    +0.000 S 
ENDBRANCH   4   8
BRANCH   2  18
ATOM     17  C   UNL     1       0.007  12.759  19.138  0.00  0.00    +0.000 C 
ATOM     18  O   UNL     1      -0.002  12.714  20.564  0.00  0.00    +0.000 OA
ENDBRANCH   2  18
ENDBRANCH   1   7
BRANCH   1  19
ATOM     19  C   UNL     1      -2.593  11.596  23.485  0.00  0.00    +0.000 C 
BRANCH  19  20
ATOM     20  C   UNL     1      -3.366  12.764  24.082  0.00  0.00    +0.000 C 
BRANCH  20  21
ATOM     21  C   UNL     1      -3.241  13.963  23.159  0.00  0.00    +0.000 C 
BRANCH  21  22
ATOM     22  O   UNL     1      -4.497  14.212  22.530  0.00  0.00    +0.000 OA
BRANCH  22  23
ATOM     23  C   UNL     1      -4.691  13.577  21.328  0.00  0.00    +0.000 A 
ATOM     24  C   UNL     1      -3.515  13.343  20.593  0.00  0.00    +0.000 A 
ATOM     25  C   UNL     1      -3.531  12.611  19.403  0.00  0.00    +0.000 A 
ATOM     26  C   UNL     1      -4.738  12.083  18.980  0.00  0.00    +0.000 A 
ATOM     27  C   UNL     1      -5.918  12.340  19.698  0.00  0.00    +0.000 A 
ATOM     28  C   UNL     1      -5.919  13.117  20.844  0.00  0.00    +0.000 A 
ATOM     29  C   UNL     1      -7.043  11.506  19.155  0.00  0.00    +0.000 C 
ATOM     30  C   UNL     1      -6.191  10.343  18.608  0.00  0.00    +0.000 C 
ATOM     31  C   UNL     1      -5.038  11.079  17.888  0.00  0.00    +0.000 C 
BRANCH  31  32
ATOM     32  C   UNL     1      -3.859  10.231  17.434  0.00  0.00    +0.000 C 
BRANCH  32  33
ATOM     33  C   UNL     1      -3.324  10.693  16.099  0.00  0.00    +0.000 C 
ATOM     34  O   UNL     1      -3.765  10.356  15.013  0.00  0.00    +0.000 OA
BRANCH  33  35
ATOM     35  O   UNL     1      -2.264  11.527  16.217  0.00  0.00    +0.000 OA
ATOM     36  H   UNL     1      -1.461  11.233  15.747  0.00  0.00    +0.000 HD
ENDBRANCH  33  35
ENDBRANCH  32  33
ENDBRANCH  31  32
ENDBRANCH  22  23
ENDBRANCH  21  22
ENDBRANCH  20  21
ENDBRANCH  19  20
ENDBRANCH   1  19
TORSDOF 11
ENDMDL
MODEL 2
REMARK VINA RESULT:      -7.3      4.721     10.494
REMARK  Name = 
REMARK  12 active torsions:
REMARK  status: ('A' for Active; 'I' for Inactive)
REMARK    1  A    between atoms: C_1  and  O_2
REMARK    2  A    between atoms: O_2  and  C_3
REMARK    3  A    between atoms: C_5  and  C_6
REMARK    4  A    between atoms: C_17  and  O_18
REMARK    5  A    between atoms: O_18  and  C_19
REMARK    6  A    between atoms: C_19  and  C_20
REMARK    7  A    between atoms: C_20  and  C_21
REMARK    8  A    between atoms: C_21  and  O_22
REMARK    9  A    between atoms: O_22  and  C_23
REMARK   10  A    between atoms: C_31  and  C_32
REMARK   11  A    between atoms: C_32  and  C_33
REMARK   12  A    between atoms: C_33  and  O_35
REMARK                            x       y       z     vdW  Elec       q    Type
REMARK                         _______ _______ _______ _____ _____    ______ ____
ROOT
ATOM      1  O   UNL     1       1.194   8.030  20.468  0.00  0.00    +0.000 OA
ENDROOT
BRANCH   1   7
ATOM      2  C   UNL     1       0.850  10.328  21.414  0.00  0.00    +0.000 A 
ATOM      3  C   UNL     1       0.818  11.700  21.112  0.00  0.00    +0.000 A 
ATOM      4  C   UNL     1       0.918  12.159  19.797  0.00  0.00    +0.000 A 
ATOM      5  C   UNL     1       1.147  11.212  18.787  0.00  0.00    +0.000 A 
ATOM      6  C   UNL     1       1.254   9.856  19.084  0.00  0.00    +0.000 A 
ATOM      7  C   UNL     1       1.095   9.394  20.392  0.00  0.00    +0.000 A 
BRANCH   4   8
ATOM      8  C   UNL     1       0.738  13.569  19.398  0.00  0.00    +0.000 A 
ATOM      9  N   UNL     1       1.728  14.313  18.945  0.00  0.00    +0.000 NA
ATOM     10  C   UNL     1       1.271  15.557  18.571  0.00  0.00    +0.000 A 
ATOM     11  C   UNL     1       2.068  16.582  18.035  0.00  0.00    +0.000 A 
ATOM     12  C   UNL     1       1.478  17.811  17.703  0.00  0.00    +0.000 A 
ATOM     13  C   UNL     1       0.116  18.009  17.895  0.00  0.00    +0.000 A 
ATOM     14  C   UNL     1      -0.697  16.994  18.409  0.00  0.00    +0.000 A 
ATOM     15  C   UNL     1      -0.095  15.771  18.744  0.00  0.00    +0.000 A 
ATOM     16  S   UNL     1      -0.803  14.344  19.392  0.00  0.00    +0.000 S 
ENDBRANCH   4   8
BRANCH   2  18
ATOM     17  C   UNL     1      -0.630   9.982  23.233  0.00  0.00    +0.000 C 
ATOM     18  O   UNL     1       0.695   9.911  22.709  0.00  0.00    +0.000 OA
ENDBRANCH   2  18
ENDBRANCH   1   7
BRANCH   1  19
ATOM     19  C   UNL     1       2.265   7.409  19.778  0.00  0.00    +0.000 C 
BRANCH  19  20
ATOM     20  C   UNL     1       1.920   5.948  19.523  0.00  0.00    +0.000 C 
BRANCH  20  21
ATOM     21  C   UNL     1       2.452   5.106  20.670  0.00  0.00    +0.000 C 
BRANCH  21  22
ATOM     22  O   UNL     1       2.914   3.854  20.167  0.00  0.00    +0.000 OA
BRANCH  22  23
ATOM     23  C   UNL     1       3.885   3.929  19.200  0.00  0.00    +0.000 A 
ATOM     24  C   UNL     1       3.463   3.537  17.916  0.00  0.00    +0.000 A 
ATOM     25  C   UNL     1       4.301   3.660  16.804  0.00  0.00    +0.000 A 
ATOM     26  C   UNL     1       5.553   4.218  16.990  0.00  0.00    +0.000 A 
ATOM     27  C   UNL     1       5.986   4.583  18.276  0.00  0.00    +0.000 A 
ATOM     28  C   UNL     1       5.185   4.406  19.392  0.00  0.00    +0.000 A 
ATOM     29  C   UNL     1       7.283   5.335  18.188  0.00  0.00    +0.000 C 
ATOM     30  C   UNL     1       7.092   5.908  16.771  0.00  0.00    +0.000 C 
ATOM     31  C   UNL     1       6.576   4.686  15.979  0.00  0.00    +0.000 C 
BRANCH  31  32
ATOM     32  C   UNL     1       6.042   4.950  14.578  0.00  0.00    +0.000 C 
BRANCH  32  33
ATOM     33  C   UNL     1       7.142   4.892  13.544  0.00  0.00    +0.000 C 
ATOM     34  O   UNL     1       8.129   5.608  13.530  0.00  0.00    +0.000 OA
BRANCH  33  35
ATOM     35  O   UNL     1       6.919   3.955  12.592  0.00  0.00    +0.000 OA
ATOM     36  H   UNL     1       6.161   4.144  12.006  0.00  0.00    +0.000 HD
ENDBRANCH  33  35
ENDBRANCH  32  33
ENDBRANCH  31  32
ENDBRANCH  22  23
ENDBRANCH  21  22
ENDBRANCH  20  21
ENDBRANCH  19  20
ENDBRANCH   1  19
TORSDOF 11
ENDMDL
MODEL 3
REMARK VINA RESULT:      -7.1      4.582     10.629
REMARK  Name = 
REMARK  12 active torsions:
REMARK  status: ('A' for Active; 'I' for Inactive)
REMARK    1  A    between atoms: C_1  and  O_2
REMARK    2  A    between atoms: O_2  and  C_3
REMARK    3  A    between atoms: C_5  and  C_6
REMARK    4  A    between atoms: C_17  and  O_18
REMARK    5  A    between atoms: O_18  and  C_19
REMARK    6  A    between atoms: C_19  and  C_20
REMARK    7  A    between atoms: C_20  and  C_21
REMARK    8  A    between atoms: C_21  and  O_22
REMARK    9  A    between atoms: O_22  and  C_23
REMARK   10  A    between atoms: C_31  and  C_32
REMARK   11  A    between atoms: C_32  and  C_33
REMARK   12  A    between atoms: C_33  and  O_35
REMARK                            x       y       z     vdW  Elec       q    Type
REMARK                         _______ _______ _______ _____ _____    ______ ____
ROOT
ATOM      1  O   UNL     1       1.873   9.493  18.324  0.00  0.00    +0.000 OA
ENDROOT
BRANCH   1   7
ATOM      2  C   UNL     1       0.593  11.478  19.167  0.00  0.00    +0.000 A 
ATOM      3  C   UNL     1      -0.672  12.090  19.223  0.00  0.00    +0.000 A 
ATOM      4  C   UNL     1      -1.813  11.448  18.738  0.00  0.00    +0.000 A 
ATOM      5  C   UNL     1      -1.649  10.206  18.104  0.00  0.00    +0.000 A 
ATOM      6  C   UNL     1      -0.389   9.626  17.978  0.00  0.00    +0.000 A 
ATOM      7  C   UNL     1       0.742  10.242  18.516  0.00  0.00    +0.000 A 
BRANCH   4   8
ATOM      8  C   UNL     1      -3.186  11.965  18.904  0.00  0.00    +0.000 A 
ATOM      9  N   UNL     1      -4.145  11.732  18.030  0.00  0.00    +0.000 NA
ATOM     10  C   UNL     1      -5.341  12.259  18.467  0.00  0.00    +0.000 A 
ATOM     11  C   UNL     1      -6.561  12.172  17.776  0.00  0.00    +0.000 A 
ATOM     12  C   UNL     1      -7.708  12.762  18.329  0.00  0.00    +0.000 A 
ATOM     13  C   UNL     1      -7.639  13.419  19.551  0.00  0.00    +0.000 A 
ATOM     14  C   UNL     1      -6.437  13.498  20.262  0.00  0.00    +0.000 A 
ATOM     15  C   UNL     1      -5.294  12.910  19.698  0.00  0.00    +0.000 A 
ATOM     16  S   UNL     1      -3.688  12.837  20.305  0.00  0.00    +0.000 S 
ENDBRANCH   4   8
BRANCH   2  18
ATOM     17  C   UNL     1       1.434  13.396  20.280  0.00  0.00    +0.000 C 
ATOM     18  O   UNL     1       1.681  12.115  19.701  0.00  0.00    +0.000 OA
ENDBRANCH   2  18
ENDBRANCH   1   7
BRANCH   1  19
ATOM     19  C   UNL     1       2.099   8.406  19.206  0.00  0.00    +0.000 C 
BRANCH  19  20
ATOM     20  C   UNL     1       2.267   7.127  18.397  0.00  0.00    +0.000 C 
BRANCH  20  21
ATOM     21  C   UNL     1       2.249   5.938  19.342  0.00  0.00    +0.000 C 
BRANCH  21  22
ATOM     22  O   UNL     1       3.587   5.532  19.622  0.00  0.00    +0.000 OA
BRANCH  22  23
ATOM     23  C   UNL     1       4.280   5.009  18.558  0.00  0.00    +0.000 A 
ATOM     24  C   UNL     1       3.482   4.334  17.616  0.00  0.00    +0.000 A 
ATOM     25  C   UNL     1       4.020   3.841  16.424  0.00  0.00    +0.000 A 
ATOM     26  C   UNL     1       5.361   4.069  16.172  0.00  0.00    +0.000 A 
ATOM     27  C   UNL     1       6.165   4.718  17.124  0.00  0.00    +0.000 A 
ATOM     28  C   UNL     1       5.652   5.153  18.334  0.00  0.00    +0.000 A 
ATOM     29  C   UNL     1       7.516   5.016  16.540  0.00  0.00    +0.000 C 
ATOM     30  C   UNL     1       7.087   5.103  15.063  0.00  0.00    +0.000 C 
ATOM     31  C   UNL     1       6.166   3.871  14.906  0.00  0.00    +0.000 C 
BRANCH  31  32
ATOM     32  C   UNL     1       5.357   3.778  13.621  0.00  0.00    +0.000 C 
BRANCH  32  33
ATOM     33  C   UNL     1       6.226   3.401  12.443  0.00  0.00    +0.000 C 
ATOM     34  O   UNL     1       7.116   4.093  11.980  0.00  0.00    +0.000 OA
BRANCH  33  35
ATOM     35  O   UNL     1       5.904   2.194  11.918  0.00  0.00    +0.000 OA
ATOM     36  H   UNL     1       5.460   1.586  12.539  0.00  0.00    +0.000 HD
ENDBRANCH  33  35
ENDBRANCH  32  33
ENDBRANCH  31  32
ENDBRANCH  22  23
ENDBRANCH  21  22
ENDBRANCH  20  21
ENDBRANCH  19  20
ENDBRANCH   1  19
TORSDOF 11
ENDMDL
MODEL 4
REMARK VINA RESULT:      -7.0      6.243     11.136
REMARK  Name = 
REMARK  12 active torsions:
REMARK  status: ('A' for Active; 'I' for Inactive)
REMARK    1  A    between atoms: C_1  and  O_2
REMARK    2  A    between atoms: O_2  and  C_3
REMARK    3  A    between atoms: C_5  and  C_6
REMARK    4  A    between atoms: C_17  and  O_18
REMARK    5  A    between atoms: O_18  and  C_19
REMARK    6  A    between atoms: C_19  and  C_20
REMARK    7  A    between atoms: C_20  and  C_21
REMARK    8  A    between atoms: C_21  and  O_22
REMARK    9  A    between atoms: O_22  and  C_23
REMARK   10  A    between atoms: C_31  and  C_32
REMARK   11  A    between atoms: C_32  and  C_33
REMARK   12  A    between atoms: C_33  and  O_35
REMARK                            x       y       z     vdW  Elec       q    Type
REMARK                         _______ _______ _______ _____ _____    ______ ____
ROOT
ATOM      1  O   UNL     1       4.645   5.776  17.483  0.00  0.00    +0.000 OA
ENDROOT
BRANCH   1   7
ATOM      2  C   UNL     1       3.090   6.255  19.392  0.00  0.00    +0.000 A 
ATOM      3  C   UNL     1       2.208   7.199  19.945  0.00  0.00    +0.000 A 
ATOM      4  C   UNL     1       1.874   8.370  19.262  0.00  0.00    +0.000 A 
ATOM      5  C   UNL     1       2.518   8.626  18.042  0.00  0.00    +0.000 A 
ATOM      6  C   UNL     1       3.450   7.732  17.521  0.00  0.00    +0.000 A 
ATOM      7  C   UNL     1       3.739   6.533  18.177  0.00  0.00    +0.000 A 
BRANCH   4   8
ATOM      8  C   UNL     1       0.842   9.324  19.714  0.00  0.00    +0.000 A 
ATOM      9  N   UNL     1       0.604   9.567  20.988  0.00  0.00    +0.000 NA
ATOM     10  C   UNL     1      -0.347  10.553  21.128  0.00  0.00    +0.000 A 
ATOM     11  C   UNL     1      -0.816  11.054  22.354  0.00  0.00    +0.000 A 
ATOM     12  C   UNL     1      -1.798  12.056  22.357  0.00  0.00    +0.000 A 
ATOM     13  C   UNL     1      -2.296  12.554  21.159  0.00  0.00    +0.000 A 
ATOM     14  C   UNL     1      -1.827  12.081  19.929  0.00  0.00    +0.000 A 
ATOM     15  C   UNL     1      -0.849  11.074  19.937  0.00  0.00    +0.000 A 
ATOM     16  S   UNL     1      -0.079  10.287  18.617  0.00  0.00    +0.000 S 
ENDBRANCH   4   8
BRANCH   2  18
ATOM     17  C   UNL     1       2.235   4.235  20.294  0.00  0.00    +0.000 C 
ATOM     18  O   UNL     1       3.354   5.092  20.066  0.00  0.00    +0.000 OA
ENDBRANCH   2  18
ENDBRANCH   1   7
BRANCH   1  19
ATOM     19  C   UNL     1       5.568   6.455  16.649  0.00  0.00    +0.000 C 
BRANCH  19  20
ATOM     20  C   UNL     1       6.911   6.555  17.359  0.00  0.00    +0.000 C 
BRANCH  20  21
ATOM     21  C   UNL     1       7.374   8.002  17.341  0.00  0.00    +0.000 C 
BRANCH  21  22
ATOM     22  O   UNL     1       8.268   8.229  18.428  0.00  0.00    +0.000 OA
BRANCH  22  23
ATOM     23  C   UNL     1       8.715   9.521  18.564  0.00  0.00    +0.000 A 
ATOM     24  C   UNL     1       8.210  10.418  17.606  0.00  0.00    +0.000 A 
ATOM     25  C   UNL     1       8.482  11.787  17.674  0.00  0.00    +0.000 A 
ATOM     26  C   UNL     1       9.236  12.249  18.738  0.00  0.00    +0.000 A 
ATOM     27  C   UNL     1       9.765  11.350  19.680  0.00  0.00    +0.000 A 
ATOM     28  C   UNL     1       9.551   9.985  19.583  0.00  0.00    +0.000 A 
ATOM     29  C   UNL     1      10.370  12.105  20.829  0.00  0.00    +0.000 C 
ATOM     30  C   UNL     1       9.497  13.370  20.726  0.00  0.00    +0.000 C 
ATOM     31  C   UNL     1       9.503  13.662  19.208  0.00  0.00    +0.000 C 
BRANCH  31  32
ATOM     32  C   UNL     1       8.525  14.716  18.707  0.00  0.00    +0.000 C 
BRANCH  32  33
ATOM     33  C   UNL     1       9.227  16.016  18.387  0.00  0.00    +0.000 C 
ATOM     34  O   UNL     1       8.667  17.072  18.143  0.00  0.00    +0.000 OA
BRANCH  33  35
ATOM     35  O   UNL     1      10.576  15.896  18.376  0.00  0.00    +0.000 OA
ATOM     36  H   UNL     1      11.007  16.239  17.570  0.00  0.00    +0.000 HD
ENDBRANCH  33  35
ENDBRANCH  32  33
ENDBRANCH  31  32
ENDBRANCH  22  23
ENDBRANCH  21  22
ENDBRANCH  20  21
ENDBRANCH  19  20
ENDBRANCH   1  19
TORSDOF 11
ENDMDL
MODEL 5
REMARK VINA RESULT:      -7.0      4.310     10.167
REMARK  Name = 
REMARK  12 active torsions:
REMARK  status: ('A' for Active; 'I' for Inactive)
REMARK    1  A    between atoms: C_1  and  O_2
REMARK    2  A    between atoms: O_2  and  C_3
REMARK    3  A    between atoms: C_5  and  C_6
REMARK    4  A    between atoms: C_17  and  O_18
REMARK    5  A    between atoms: O_18  and  C_19
REMARK    6  A    between atoms: C_19  and  C_20
REMARK    7  A    between atoms: C_20  and  C_21
REMARK    8  A    between atoms: C_21  and  O_22
REMARK    9  A    between atoms: O_22  and  C_23
REMARK   10  A    between atoms: C_31  and  C_32
REMARK   11  A    between atoms: C_32  and  C_33
REMARK   12  A    between atoms: C_33  and  O_35
REMARK                            x       y       z     vdW  Elec       q    Type
REMARK                         _______ _______ _______ _____ _____    ______ ____
ROOT
ATOM      1  O   UNL     1       2.267   6.762  20.013  0.00  0.00    +0.000 OA
ENDROOT
BRANCH   1   7
ATOM      2  C   UNL     1       1.492   8.864  18.886  0.00  0.00    +0.000 A 
ATOM      3  C   UNL     1       0.764  10.055  19.052  0.00  0.00    +0.000 A 
ATOM      4  C   UNL     1       0.262  10.433  20.299  0.00  0.00    +0.000 A 
ATOM      5  C   UNL     1       0.423   9.540  21.370  0.00  0.00    +0.000 A 
ATOM      6  C   UNL     1       1.078   8.323  21.198  0.00  0.00    +0.000 A 
ATOM      7  C   UNL     1       1.631   7.974  19.964  0.00  0.00    +0.000 A 
BRANCH   4   8
ATOM      8  C   UNL     1      -0.374  11.737  20.574  0.00  0.00    +0.000 A 
ATOM      9  N   UNL     1      -1.675  11.927  20.491  0.00  0.00    +0.000 NA
ATOM     10  C   UNL     1      -2.007  13.207  20.876  0.00  0.00    +0.000 A 
ATOM     11  C   UNL     1      -3.313  13.725  20.915  0.00  0.00    +0.000 A 
ATOM     12  C   UNL     1      -3.514  15.054  21.319  0.00  0.00    +0.000 A 
ATOM     13  C   UNL     1      -2.433  15.847  21.683  0.00  0.00    +0.000 A 
ATOM     14  C   UNL     1      -1.129  15.342  21.668  0.00  0.00    +0.000 A 
ATOM     15  C   UNL     1      -0.938  14.013  21.258  0.00  0.00    +0.000 A 
ATOM     16  S   UNL     1       0.517  13.107  21.126  0.00  0.00    +0.000 S 
ENDBRANCH   4   8
BRANCH   2  18
ATOM     17  C   UNL     1       3.284   7.896  17.671  0.00  0.00    +0.000 C 
ATOM     18  O   UNL     1       2.016   8.552  17.660  0.00  0.00    +0.000 OA
ENDBRANCH   2  18
ENDBRANCH   1   7
BRANCH   1  19
ATOM     19  C   UNL     1       1.812   5.819  20.969  0.00  0.00    +0.000 C 
BRANCH  19  20
ATOM     20  C   UNL     1       1.112   4.673  20.252  0.00  0.00    +0.000 C 
BRANCH  20  21
ATOM     21  C   UNL     1       1.457   3.368  20.950  0.00  0.00    +0.000 C 
BRANCH  21  22
ATOM     22  O   UNL     1       1.950   2.432  19.993  0.00  0.00    +0.000 OA
BRANCH  22  23
ATOM     23  C   UNL     1       3.017   2.861  19.243  0.00  0.00    +0.000 A 
ATOM     24  C   UNL     1       2.838   2.746  17.852  0.00  0.00    +0.000 A 
ATOM     25  C   UNL     1       3.786   3.240  16.952  0.00  0.00    +0.000 A 
ATOM     26  C   UNL     1       4.897   3.885  17.465  0.00  0.00    +0.000 A 
ATOM     27  C   UNL     1       5.090   3.975  18.854  0.00  0.00    +0.000 A 
ATOM     28  C   UNL     1       4.187   3.433  19.751  0.00  0.00    +0.000 A 
ATOM     29  C   UNL     1       6.251   4.880  19.154  0.00  0.00    +0.000 C 
ATOM     30  C   UNL     1       6.162   5.755  17.889  0.00  0.00    +0.000 C 
ATOM     31  C   UNL     1       5.958   4.709  16.769  0.00  0.00    +0.000 C 
BRANCH  31  32
ATOM     32  C   UNL     1       5.580   5.240  15.393  0.00  0.00    +0.000 C 
BRANCH  32  33
ATOM     33  C   UNL     1       6.603   4.857  14.350  0.00  0.00    +0.000 C 
ATOM     34  O   UNL     1       6.393   4.124  13.398  0.00  0.00    +0.000 OA
BRANCH  33  35
ATOM     35  O   UNL     1       7.821   5.403  14.583  0.00  0.00    +0.000 OA
ATOM     36  H   UNL     1       8.462   5.291  13.855  0.00  0.00    +0.000 HD
ENDBRANCH  33  35
ENDBRANCH  32  33
ENDBRANCH  31  32
ENDBRANCH  22  23
ENDBRANCH  21  22
ENDBRANCH  20  21
ENDBRANCH  19  20
ENDBRANCH   1  19
TORSDOF 11
ENDMDL
MODEL 6
REMARK VINA RESULT:      -7.0      2.058      3.812
REMARK  Name = 
REMARK  12 active torsions:
REMARK  status: ('A' for Active; 'I' for Inactive)
REMARK    1  A    between atoms: C_1  and  O_2
REMARK    2  A    between atoms: O_2  and  C_3
REMARK    3  A    between atoms: C_5  and  C_6
REMARK    4  A    between atoms: C_17  and  O_18
REMARK    5  A    between atoms: O_18  and  C_19
REMARK    6  A    between atoms: C_19  and  C_20
REMARK    7  A    between atoms: C_20  and  C_21
REMARK    8  A    between atoms: C_21  and  O_22
REMARK    9  A    between atoms: O_22  and  C_23
REMARK   10  A    between atoms: C_31  and  C_32
REMARK   11  A    between atoms: C_32  and  C_33
REMARK   12  A    between atoms: C_33  and  O_35
REMARK                            x       y       z     vdW  Elec       q    Type
REMARK                         _______ _______ _______ _____ _____    ______ ____
ROOT
ATOM      1  O   UNL     1       1.071  12.022  18.398  0.00  0.00    +0.000 OA
ENDROOT
BRANCH   1   7
ATOM      2  C   UNL     1       0.942  10.208  20.127  0.00  0.00    +0.000 A 
ATOM      3  C   UNL     1       1.216   8.856  20.394  0.00  0.00    +0.000 A 
ATOM      4  C   UNL     1       1.907   8.058  19.480  0.00  0.00    +0.000 A 
ATOM      5  C   UNL     1       2.243   8.622  18.239  0.00  0.00    +0.000 A 
ATOM      6  C   UNL     1       1.910   9.939  17.935  0.00  0.00    +0.000 A 
ATOM      7  C   UNL     1       1.271  10.752  18.873  0.00  0.00    +0.000 A 
BRANCH   4   8
ATOM      8  C   UNL     1       2.360   6.681  19.761  0.00  0.00    +0.000 A 
ATOM      9  N   UNL     1       1.746   5.891  20.619  0.00  0.00    +0.000 NA
ATOM     10  C   UNL     1       2.323   4.640  20.629  0.00  0.00    +0.000 A 
ATOM     11  C   UNL     1       1.898   3.562  21.423  0.00  0.00    +0.000 A 
ATOM     12  C   UNL     1       2.582   2.339  21.345  0.00  0.00    +0.000 A 
ATOM     13  C   UNL     1       3.664   2.194  20.486  0.00  0.00    +0.000 A 
ATOM     14  C   UNL     1       4.089   3.251  19.674  0.00  0.00    +0.000 A 
ATOM     15  C   UNL     1       3.402   4.472  19.764  0.00  0.00    +0.000 A 
ATOM     16  S   UNL     1       3.673   5.944  18.919  0.00  0.00    +0.000 S 
ENDBRANCH   4   8
BRANCH   2  18
ATOM     17  C   UNL     1      -0.201  10.275  22.203  0.00  0.00    +0.000 C 
ATOM     18  O   UNL     1       0.309  10.975  21.069  0.00  0.00    +0.000 OA
ENDBRANCH   2  18
ENDBRANCH   1   7
BRANCH   1  19
ATOM     19  C   UNL     1       2.024  13.012  18.747  0.00  0.00    +0.000 C 
BRANCH  19  20
ATOM     20  C   UNL     1       1.472  13.864  19.882  0.00  0.00    +0.000 C 
BRANCH  20  21
ATOM     21  C   UNL     1       0.233  14.595  19.394  0.00  0.00    +0.000 C 
BRANCH  21  22
ATOM     22  O   UNL     1      -0.817  14.441  20.347  0.00  0.00    +0.000 OA
BRANCH  22  23
ATOM     23  C   UNL     1      -1.787  13.528  20.014  0.00  0.00    +0.000 A 
ATOM     24  C   UNL     1      -2.825  13.408  20.955  0.00  0.00    +0.000 A 
ATOM     25  C   UNL     1      -3.942  12.604  20.711  0.00  0.00    +0.000 A 
ATOM     26  C   UNL     1      -4.021  11.953  19.494  0.00  0.00    +0.000 A 
ATOM     27  C   UNL     1      -2.972  12.049  18.564  0.00  0.00    +0.000 A 
ATOM     28  C   UNL     1      -1.834  12.793  18.826  0.00  0.00    +0.000 A 
ATOM     29  C   UNL     1      -3.379  11.422  17.261  0.00  0.00    +0.000 C 
ATOM     30  C   UNL     1      -4.898  11.643  17.393  0.00  0.00    +0.000 C 
ATOM     31  C   UNL     1      -5.176  11.214  18.852  0.00  0.00    +0.000 C 
BRANCH  31  32
ATOM     32  C   UNL     1      -6.554  11.537  19.412  0.00  0.00    +0.000 C 
BRANCH  32  33
ATOM     33  C   UNL     1      -7.224  10.307  19.980  0.00  0.00    +0.000 C 
ATOM     34  O   UNL     1      -7.576  10.174  21.140  0.00  0.00    +0.000 OA
BRANCH  33  35
ATOM     35  O   UNL     1      -7.388   9.326  19.060  0.00  0.00    +0.000 OA
ATOM     36  H   UNL     1      -7.671   9.638  18.180  0.00  0.00    +0.000 HD
ENDBRANCH  33  35
ENDBRANCH  32  33
ENDBRANCH  31  32
ENDBRANCH  22  23
ENDBRANCH  21  22
ENDBRANCH  20  21
ENDBRANCH  19  20
ENDBRANCH   1  19
TORSDOF 11
ENDMDL
MODEL 7
REMARK VINA RESULT:      -6.9      4.573     10.767
REMARK  Name = 
REMARK  12 active torsions:
REMARK  status: ('A' for Active; 'I' for Inactive)
REMARK    1  A    between atoms: C_1  and  O_2
REMARK    2  A    between atoms: O_2  and  C_3
REMARK    3  A    between atoms: C_5  and  C_6
REMARK    4  A    between atoms: C_17  and  O_18
REMARK    5  A    between atoms: O_18  and  C_19
REMARK    6  A    between atoms: C_19  and  C_20
REMARK    7  A    between atoms: C_20  and  C_21
REMARK    8  A    between atoms: C_21  and  O_22
REMARK    9  A    between atoms: O_22  and  C_23
REMARK   10  A    between atoms: C_31  and  C_32
REMARK   11  A    between atoms: C_32  and  C_33
REMARK   12  A    between atoms: C_33  and  O_35
REMARK                            x       y       z     vdW  Elec       q    Type
REMARK                         _______ _______ _______ _____ _____    ______ ____
ROOT
ATOM      1  O   UNL     1       1.204   9.837  19.730  0.00  0.00    +0.000 OA
ENDROOT
BRANCH   1   7
ATOM      2  C   UNL     1      -0.987  11.035  19.489  0.00  0.00    +0.000 A 
ATOM      3  C   UNL     1      -1.943  11.825  20.152  0.00  0.00    +0.000 A 
ATOM      4  C   UNL     1      -1.722  12.304  21.445  0.00  0.00    +0.000 A 
ATOM      5  C   UNL     1      -0.553  11.895  22.106  0.00  0.00    +0.000 A 
ATOM      6  C   UNL     1       0.365  11.051  21.485  0.00  0.00    +0.000 A 
ATOM      7  C   UNL     1       0.170  10.622  20.171  0.00  0.00    +0.000 A 
BRANCH   4   8
ATOM      8  C   UNL     1      -2.610  13.259  22.135  0.00  0.00    +0.000 A 
ATOM      9  N   UNL     1      -2.243  13.922  23.214  0.00  0.00    +0.000 NA
ATOM     10  C   UNL     1      -3.227  14.802  23.605  0.00  0.00    +0.000 A 
ATOM     11  C   UNL     1      -3.145  15.667  24.709  0.00  0.00    +0.000 A 
ATOM     12  C   UNL     1      -4.227  16.510  25.005  0.00  0.00    +0.000 A 
ATOM     13  C   UNL     1      -5.365  16.496  24.208  0.00  0.00    +0.000 A 
ATOM     14  C   UNL     1      -5.457  15.656  23.094  0.00  0.00    +0.000 A 
ATOM     15  C   UNL     1      -4.372  14.812  22.811  0.00  0.00    +0.000 A 
ATOM     16  S   UNL     1      -4.174  13.674  21.536  0.00  0.00    +0.000 S 
ENDBRANCH   4   8
BRANCH   2  18
ATOM     17  C   UNL     1      -1.962  11.529  17.385  0.00  0.00    +0.000 C 
ATOM     18  O   UNL     1      -1.214  10.628  18.202  0.00  0.00    +0.000 OA
ENDBRANCH   2  18
ENDBRANCH   1   7
BRANCH   1  19
ATOM     19  C   UNL     1       1.277   8.510  20.223  0.00  0.00    +0.000 C 
BRANCH  19  20
ATOM     20  C   UNL     1       2.297   7.726  19.408  0.00  0.00    +0.000 C 
BRANCH  20  21
ATOM     21  C   UNL     1       2.129   6.245  19.699  0.00  0.00    +0.000 C 
BRANCH  21  22
ATOM     22  O   UNL     1       3.392   5.682  20.046  0.00  0.00    +0.000 OA
BRANCH  22  23
ATOM     23  C   UNL     1       4.091   5.115  19.009  0.00  0.00    +0.000 A 
ATOM     24  C   UNL     1       3.292   4.667  17.942  0.00  0.00    +0.000 A 
ATOM     25  C   UNL     1       3.859   4.167  16.766  0.00  0.00    +0.000 A 
ATOM     26  C   UNL     1       5.238   4.160  16.660  0.00  0.00    +0.000 A 
ATOM     27  C   UNL     1       6.038   4.581  17.737  0.00  0.00    +0.000 A 
ATOM     28  C   UNL     1       5.483   5.018  18.928  0.00  0.00    +0.000 A 
ATOM     29  C   UNL     1       7.475   4.663  17.309  0.00  0.00    +0.000 C 
ATOM     30  C   UNL     1       7.229   4.931  15.812  0.00  0.00    +0.000 C 
ATOM     31  C   UNL     1       6.127   3.905  15.462  0.00  0.00    +0.000 C 
BRANCH  31  32
ATOM     32  C   UNL     1       5.456   4.053  14.104  0.00  0.00    +0.000 C 
BRANCH  32  33
ATOM     33  C   UNL     1       6.421   3.777  12.975  0.00  0.00    +0.000 C 
ATOM     34  O   UNL     1       7.308   4.531  12.611  0.00  0.00    +0.000 OA
BRANCH  33  35
ATOM     35  O   UNL     1       6.195   2.587  12.369  0.00  0.00    +0.000 OA
ATOM     36  H   UNL     1       5.295   2.482  12.005  0.00  0.00    +0.000 HD
ENDBRANCH  33  35
ENDBRANCH  32  33
ENDBRANCH  31  32
ENDBRANCH  22  23
ENDBRANCH  21  22
ENDBRANCH  20  21
ENDBRANCH  19  20
ENDBRANCH   1  19
TORSDOF 11
ENDMDL
MODEL 8
REMARK VINA RESULT:      -6.9      5.726      9.130
REMARK  Name = 
REMARK  12 active torsions:
REMARK  status: ('A' for Active; 'I' for Inactive)
REMARK    1  A    between atoms: C_1  and  O_2
REMARK    2  A    between atoms: O_2  and  C_3
REMARK    3  A    between atoms: C_5  and  C_6
REMARK    4  A    between atoms: C_17  and  O_18
REMARK    5  A    between atoms: O_18  and  C_19
REMARK    6  A    between atoms: C_19  and  C_20
REMARK    7  A    between atoms: C_20  and  C_21
REMARK    8  A    between atoms: C_21  and  O_22
REMARK    9  A    between atoms: O_22  and  C_23
REMARK   10  A    between atoms: C_31  and  C_32
REMARK   11  A    between atoms: C_32  and  C_33
REMARK   12  A    between atoms: C_33  and  O_35
REMARK                            x       y       z     vdW  Elec       q    Type
REMARK                         _______ _______ _______ _____ _____    ______ ____
ROOT
ATOM      1  O   UNL     1       6.205   4.281  17.507  0.00  0.00    +0.000 OA
ENDROOT
BRANCH   1   7
ATOM      2  C   UNL     1       6.321   6.654  16.702  0.00  0.00    +0.000 A 
ATOM      3  C   UNL     1       6.824   7.937  16.979  0.00  0.00    +0.000 A 
ATOM      4  C   UNL     1       7.699   8.162  18.044  0.00  0.00    +0.000 A 
ATOM      5  C   UNL     1       7.990   7.083  18.894  0.00  0.00    +0.000 A 
ATOM      6  C   UNL     1       7.437   5.824  18.672  0.00  0.00    +0.000 A 
ATOM      7  C   UNL     1       6.610   5.588  17.572  0.00  0.00    +0.000 A 
BRANCH   4   8
ATOM      8  C   UNL     1       8.382   9.446  18.296  0.00  0.00    +0.000 A 
ATOM      9  N   UNL     1       9.317   9.588  19.214  0.00  0.00    +0.000 NA
ATOM     10  C   UNL     1       9.842  10.861  19.184  0.00  0.00    +0.000 A 
ATOM     11  C   UNL     1      10.865  11.333  20.023  0.00  0.00    +0.000 A 
ATOM     12  C   UNL     1      11.303  12.659  19.895  0.00  0.00    +0.000 A 
ATOM     13  C   UNL     1      10.737  13.496  18.941  0.00  0.00    +0.000 A 
ATOM     14  C   UNL     1       9.731  13.038  18.084  0.00  0.00    +0.000 A 
ATOM     15  C   UNL     1       9.295  11.711  18.225  0.00  0.00    +0.000 A 
ATOM     16  S   UNL     1       8.092  10.855  17.344  0.00  0.00    +0.000 S 
ENDBRANCH   4   8
BRANCH   2  18
ATOM     17  C   UNL     1       5.925   5.452  14.697  0.00  0.00    +0.000 C 
ATOM     18  O   UNL     1       5.508   6.461  15.618  0.00  0.00    +0.000 OA
ENDBRANCH   2  18
ENDBRANCH   1   7
BRANCH   1  19
ATOM     19  C   UNL     1       4.994   3.935  18.157  0.00  0.00    +0.000 C 
BRANCH  19  20
ATOM     20  C   UNL     1       3.860   3.935  17.142  0.00  0.00    +0.000 C 
BRANCH  20  21
ATOM     21  C   UNL     1       2.661   4.652  17.739  0.00  0.00    +0.000 C 
BRANCH  21  22
ATOM     22  O   UNL     1       2.990   5.122  19.044  0.00  0.00    +0.000 OA
BRANCH  22  23
ATOM     23  C   UNL     1       2.570   6.397  19.336  0.00  0.00    +0.000 A 
ATOM     24  C   UNL     1       2.769   7.329  18.300  0.00  0.00    +0.000 A 
ATOM     25  C   UNL     1       2.297   8.640  18.399  0.00  0.00    +0.000 A 
ATOM     26  C   UNL     1       1.589   8.994  19.534  0.00  0.00    +0.000 A 
ATOM     27  C   UNL     1       1.415   8.073  20.581  0.00  0.00    +0.000 A 
ATOM     28  C   UNL     1       1.935   6.791  20.516  0.00  0.00    +0.000 A 
ATOM     29  C   UNL     1       0.459   8.625  21.599  0.00  0.00    +0.000 C 
ATOM     30  C   UNL     1      -0.340   9.543  20.653  0.00  0.00    +0.000 C 
ATOM     31  C   UNL     1       0.773  10.233  19.832  0.00  0.00    +0.000 C 
BRANCH  31  32
ATOM     32  C   UNL     1       0.332  11.036  18.617  0.00  0.00    +0.000 C 
BRANCH  32  33
ATOM     33  C   UNL     1      -1.005  10.564  18.094  0.00  0.00    +0.000 C 
ATOM     34  O   UNL     1      -1.174   9.584  17.387  0.00  0.00    +0.000 OA
BRANCH  33  35
ATOM     35  O   UNL     1      -2.030  11.362  18.475  0.00  0.00    +0.000 OA
ATOM     36  H   UNL     1      -2.765  11.413  17.834  0.00  0.00    +0.000 HD
ENDBRANCH  33  35
ENDBRANCH  32  33
ENDBRANCH  31  32
ENDBRANCH  22  23
ENDBRANCH  21  22
ENDBRANCH  20  21
ENDBRANCH  19  20
ENDBRANCH   1  19
TORSDOF 11
ENDMDL
MODEL 9
REMARK VINA RESULT:      -6.8      5.720      9.193
REMARK  Name = 
REMARK  12 active torsions:
REMARK  status: ('A' for Active; 'I' for Inactive)
REMARK    1  A    between atoms: C_1  and  O_2
REMARK    2  A    between atoms: O_2  and  C_3
REMARK    3  A    between atoms: C_5  and  C_6
REMARK    4  A    between atoms: C_17  and  O_18
REMARK    5  A    between atoms: O_18  and  C_19
REMARK    6  A    between atoms: C_19  and  C_20
REMARK    7  A    between atoms: C_20  and  C_21
REMARK    8  A    between atoms: C_21  and  O_22
REMARK    9  A    between atoms: O_22  and  C_23
REMARK   10  A    between atoms: C_31  and  C_32
REMARK   11  A    between atoms: C_32  and  C_33
REMARK   12  A    between atoms: C_33  and  O_35
REMARK                            x       y       z     vdW  Elec       q    Type
REMARK                         _______ _______ _______ _____ _____    ______ ____
ROOT
ATOM      1  O   UNL     1       6.262   4.343  17.721  0.00  0.00    +0.000 OA
ENDROOT
BRANCH   1   7
ATOM      2  C   UNL     1       6.295   6.722  16.926  0.00  0.00    +0.000 A 
ATOM      3  C   UNL     1       6.825   8.003  17.159  0.00  0.00    +0.000 A 
ATOM      4  C   UNL     1       7.805   8.220  18.130  0.00  0.00    +0.000 A 
ATOM      5  C   UNL     1       8.182   7.135  18.937  0.00  0.00    +0.000 A 
ATOM      6  C   UNL     1       7.608   5.878  18.764  0.00  0.00    +0.000 A 
ATOM      7  C   UNL     1       6.672   5.650  17.753  0.00  0.00    +0.000 A 
BRANCH   4   8
ATOM      8  C   UNL     1       8.510   9.503  18.319  0.00  0.00    +0.000 A 
ATOM      9  N   UNL     1       9.499   9.652  19.178  0.00  0.00    +0.000 NA
ATOM     10  C   UNL     1      10.030  10.920  19.095  0.00  0.00    +0.000 A 
ATOM     11  C   UNL     1      11.104  11.397  19.865  0.00  0.00    +0.000 A 
ATOM     12  C   UNL     1      11.544  12.718  19.689  0.00  0.00    +0.000 A 
ATOM     13  C   UNL     1      10.928  13.543  18.756  0.00  0.00    +0.000 A 
ATOM     14  C   UNL     1       9.870  13.080  17.967  0.00  0.00    +0.000 A 
ATOM     15  C   UNL     1       9.434  11.759  18.156  0.00  0.00    +0.000 A 
ATOM     16  S   UNL     1       8.175  10.898  17.362  0.00  0.00    +0.000 S 
ENDBRANCH   4   8
BRANCH   2  18
ATOM     17  C   UNL     1       5.711   5.562  14.942  0.00  0.00    +0.000 C 
ATOM     18  O   UNL     1       5.374   6.536  15.930  0.00  0.00    +0.000 OA
ENDBRANCH   2  18
ENDBRANCH   1   7
BRANCH   1  19
ATOM     19  C   UNL     1       5.335   3.920  18.707  0.00  0.00    +0.000 C 
BRANCH  19  20
ATOM     20  C   UNL     1       3.954   4.465  18.365  0.00  0.00    +0.000 C 
BRANCH  20  21
ATOM     21  C   UNL     1       3.630   5.615  19.304  0.00  0.00    +0.000 C 
BRANCH  21  22
ATOM     22  O   UNL     1       3.360   6.790  18.542  0.00  0.00    +0.000 OA
BRANCH  22  23
ATOM     23  C   UNL     1       2.372   7.602  19.041  0.00  0.00    +0.000 A 
ATOM     24  C   UNL     1       1.888   7.225  20.306  0.00  0.00    +0.000 A 
ATOM     25  C   UNL     1       0.961   8.010  20.997  0.00  0.00    +0.000 A 
ATOM     26  C   UNL     1       0.556   9.199  20.418  0.00  0.00    +0.000 A 
ATOM     27  C   UNL     1       1.017   9.563  19.141  0.00  0.00    +0.000 A 
ATOM     28  C   UNL     1       1.887   8.759  18.425  0.00  0.00    +0.000 A 
ATOM     29  C   UNL     1       0.594  10.969  18.822  0.00  0.00    +0.000 C 
ATOM     30  C   UNL     1       0.510  11.491  20.270  0.00  0.00    +0.000 C 
ATOM     31  C   UNL     1      -0.237  10.350  20.998  0.00  0.00    +0.000 C 
BRANCH  31  32
ATOM     32  C   UNL     1      -0.280  10.417  22.517  0.00  0.00    +0.000 C 
BRANCH  32  33
ATOM     33  C   UNL     1      -1.017  11.646  22.998  0.00  0.00    +0.000 C 
ATOM     34  O   UNL     1      -0.545  12.770  23.050  0.00  0.00    +0.000 OA
BRANCH  33  35
ATOM     35  O   UNL     1      -2.283  11.378  23.397  0.00  0.00    +0.000 OA
ATOM     36  H   UNL     1      -2.363  11.087  24.325  0.00  0.00    +0.000 HD
ENDBRANCH  33  35
ENDBRANCH  32  33
ENDBRANCH  31  32
ENDBRANCH  22  23
ENDBRANCH  21  22
ENDBRANCH  20  21
ENDBRANCH  19  20
ENDBRANCH   1  19
TORSDOF 11
ENDMDL
