MODEL 1
REMARK VINA RESULT:      -7.3      0.000      0.000
REMARK  Name = 
REMARK  15 active torsions:
REMARK  status: ('A' for Active; 'I' for Inactive)
REMARK    1  A    between atoms: C_1  and  C_2
REMARK    2  A    between atoms: C_7  and  C_8
REMARK    3  A    between atoms: C_7  and  C_9
REMARK    4  A    between atoms: C_10  and  O_11
REMARK    5  A    between atoms: C_10  and  C_12
REMARK    6  A    between atoms: C_13  and  C_14
REMARK    7  A    between atoms: C_14  and  C_15
REMARK    8  A    between atoms: C_14  and  O_17
REMARK    9  A    between atoms: C_15  and  O_16
REMARK   10  A    between atoms: O_17  and  C_18
REMARK   11  A    between atoms: C_20  and  C_21
REMARK   12  A    between atoms: C_21  and  O_22
REMARK   13  A    between atoms: C_23  and  O_24
REMARK   14  A    between atoms: C_25  and  O_26
REMARK   15  A    between atoms: C_27  and  O_28
REMARK                            x       y       z     vdW  Elec       q    Type
REMARK                         _______ _______ _______ _____ _____    ______ ____
ROOT
ATOM      1  C   UNL     1       1.831   8.738  19.477  0.00  0.00    +0.000 C 
ENDROOT
BRANCH   1   3
ATOM      2  C   UNL     1       2.833   6.360  19.557  0.00  0.00    +0.000 C 
ATOM      3  C   UNL     1       2.319   7.426  18.912  0.00  0.00    +0.000 C 
BRANCH   2  13
ATOM      4  C   UNL     1       5.489   5.773  18.172  0.00  0.00    +0.000 C 
ATOM      5  C   UNL     1       4.602   4.744  18.846  0.00  0.00    +0.000 C 
ATOM      6  C   UNL     1       5.179   3.632  19.316  0.00  0.00    +0.000 C 
ATOM      7  C   UNL     1       4.415   2.537  19.921  0.00  0.00    +0.000 C 
ATOM      8  O   UNL     1       5.028   1.561  20.347  0.00  0.00    +0.000 OA
ATOM      9  C   UNL     1       2.918   2.593  19.980  0.00  0.00    +0.000 C 
ATOM     10  C   UNL     1       2.171   3.872  19.503  0.00  0.00    +0.000 C 
ATOM     11  C   UNL     1       1.107   3.419  18.460  0.00  0.00    +0.000 C 
ATOM     12  C   UNL     1       1.338   4.361  20.727  0.00  0.00    +0.000 C 
ATOM     13  C   UNL     1       3.111   5.019  18.884  0.00  0.00    +0.000 C 
BRANCH  13  14
ATOM     14  O   UNL     1       2.765   5.189  17.496  0.00  0.00    +0.000 OA
ATOM     15  H   UNL     1       3.087   6.061  17.218  0.00  0.00    +0.000 HD
ENDBRANCH  13  14
ENDBRANCH   2  13
ENDBRANCH   1   3
BRANCH   1  16
ATOM     16  C   UNL     1       0.869   8.445  20.650  0.00  0.00    +0.000 C 
BRANCH  16  17
ATOM     17  O   UNL     1       1.507   8.541  21.924  0.00  0.00    +0.000 OA
ATOM     18  H   UNL     1       2.361   8.988  21.776  0.00  0.00    +0.000 HD
ENDBRANCH  16  17
ENDBRANCH   1  16
BRANCH   1  19
ATOM     19  O   UNL     1       1.298   9.571  18.443  0.00  0.00    +0.000 OA
BRANCH  19  20
ATOM     20  C   UNL     1      -0.012  10.112  18.665  0.00  0.00    +0.000 C 
ATOM     21  O   UNL     1      -0.755   9.950  17.441  0.00  0.00    +0.000 OA
ATOM     22  C   UNL     1      -2.139  10.297  17.560  0.00  0.00    +0.000 C 
ATOM     23  C   UNL     1      -2.302  11.783  17.922  0.00  0.00    +0.000 C 
ATOM     24  C   UNL     1      -1.485  12.094  19.176  0.00  0.00    +0.000 C 
ATOM     25  C   UNL     1      -0.028  11.621  19.047  0.00  0.00    +0.000 C 
BRANCH  23  26
ATOM     26  O   UNL     1      -3.692  12.080  18.128  0.00  0.00    +0.000 OA
ATOM     27  H   UNL     1      -3.756  12.839  18.740  0.00  0.00    +0.000 HD
ENDBRANCH  23  26
BRANCH  24  28
ATOM     28  O   UNL     1      -1.565  13.492  19.480  0.00  0.00    +0.000 OA
ATOM     29  H   UNL     1      -1.652  13.987  18.644  0.00  0.00    +0.000 HD
ENDBRANCH  24  28
BRANCH  25  30
ATOM     30  O   UNL     1       0.648  11.912  20.282  0.00  0.00    +0.000 OA
ATOM     31  H   UNL     1       1.570  11.606  20.217  0.00  0.00    +0.000 HD
ENDBRANCH  25  30
BRANCH  22  32
ATOM     32  C   UNL     1      -2.865   9.986  16.240  0.00  0.00    +0.000 C 
BRANCH  32  33
ATOM     33  O   UNL     1      -3.008  11.138  15.413  0.00  0.00    +0.000 OA
ATOM     34  H   UNL     1      -3.793  10.997  14.849  0.00  0.00    +0.000 HD
ENDBRANCH  32  33
ENDBRANCH  22  32
ENDBRANCH  19  20
ENDBRANCH   1  19
TORSDOF 12
ENDMDL
MODEL 2
REMARK VINA RESULT:      -7.3      1.357      2.543
REMARK  Name = 
REMARK  15 active torsions:
REMARK  status: ('A' for Active; 'I' for Inactive)
REMARK    1  A    between atoms: C_1  and  C_2
REMARK    2  A    between atoms: C_7  and  C_8
REMARK    3  A    between atoms: C_7  and  C_9
REMARK    4  A    between atoms: C_10  and  O_11
REMARK    5  A    between atoms: C_10  and  C_12
REMARK    6  A    between atoms: C_13  and  C_14
REMARK    7  A    between atoms: C_14  and  C_15
REMARK    8  A    between atoms: C_14  and  O_17
REMARK    9  A    between atoms: C_15  and  O_16
REMARK   10  A    between atoms: O_17  and  C_18
REMARK   11  A    between atoms: C_20  and  C_21
REMARK   12  A    between atoms: C_21  and  O_22
REMARK   13  A    between atoms: C_23  and  O_24
REMARK   14  A    between atoms: C_25  and  O_26
REMARK   15  A    between atoms: C_27  and  O_28
REMARK                            x       y       z     vdW  Elec       q    Type
REMARK                         _______ _______ _______ _____ _____    ______ ____
ROOT
ATOM      1  C   UNL     1       1.446   8.887  18.665  0.00  0.00    +0.000 C 
ENDROOT
BRANCH   1   3
ATOM      2  C   UNL     1       2.244   6.434  18.555  0.00  0.00    +0.000 C 
ATOM      3  C   UNL     1       2.043   7.605  19.192  0.00  0.00    +0.000 C 
BRANCH   2  13
ATOM      4  C   UNL     1       0.920   4.325  20.320  0.00  0.00    +0.000 C 
ATOM      5  C   UNL     1       2.119   4.093  19.421  0.00  0.00    +0.000 C 
ATOM      6  C   UNL     1       2.329   2.852  18.965  0.00  0.00    +0.000 C 
ATOM      7  C   UNL     1       3.493   2.494  18.148  0.00  0.00    +0.000 C 
ATOM      8  O   UNL     1       3.596   1.335  17.754  0.00  0.00    +0.000 OA
ATOM      9  C   UNL     1       4.549   3.511  17.840  0.00  0.00    +0.000 C 
ATOM     10  C   UNL     1       4.358   4.989  18.287  0.00  0.00    +0.000 C 
ATOM     11  C   UNL     1       5.629   5.393  19.091  0.00  0.00    +0.000 C 
ATOM     12  C   UNL     1       4.430   5.842  16.983  0.00  0.00    +0.000 C 
ATOM     13  C   UNL     1       3.034   5.273  19.151  0.00  0.00    +0.000 C 
BRANCH  13  14
ATOM     14  O   UNL     1       3.434   5.696  20.469  0.00  0.00    +0.000 OA
ATOM     15  H   UNL     1       2.658   6.089  20.899  0.00  0.00    +0.000 HD
ENDBRANCH  13  14
ENDBRANCH   2  13
ENDBRANCH   1   3
BRANCH   1  16
ATOM     16  C   UNL     1       2.470   9.559  17.722  0.00  0.00    +0.000 C 
BRANCH  16  17
ATOM     17  O   UNL     1       2.151  10.921  17.440  0.00  0.00    +0.000 OA
ATOM     18  H   UNL     1       1.238  11.065  17.753  0.00  0.00    +0.000 HD
ENDBRANCH  16  17
ENDBRANCH   1  16
BRANCH   1  19
ATOM     19  O   UNL     1       0.973   9.708  19.737  0.00  0.00    +0.000 OA
BRANCH  19  20
ATOM     20  C   UNL     1      -0.354  10.236  19.605  0.00  0.00    +0.000 C 
ATOM     21  O   UNL     1      -0.753  10.051  18.232  0.00  0.00    +0.000 OA
ATOM     22  C   UNL     1      -2.124  10.384  17.984  0.00  0.00    +0.000 C 
ATOM     23  C   UNL     1      -2.387  11.872  18.271  0.00  0.00    +0.000 C 
ATOM     24  C   UNL     1      -1.926  12.206  19.690  0.00  0.00    +0.000 C 
ATOM     25  C   UNL     1      -0.482  11.749  19.949  0.00  0.00    +0.000 C 
BRANCH  23  26
ATOM     26  O   UNL     1      -3.786  12.155  18.106  0.00  0.00    +0.000 OA
ATOM     27  H   UNL     1      -3.992  12.975  18.594  0.00  0.00    +0.000 HD
ENDBRANCH  23  26
BRANCH  24  28
ATOM     28  O   UNL     1      -2.094  13.607  19.943  0.00  0.00    +0.000 OA
ATOM     29  H   UNL     1      -2.498  14.018  19.156  0.00  0.00    +0.000 HD
ENDBRANCH  24  28
BRANCH  25  30
ATOM     30  O   UNL     1      -0.151  12.061  21.312  0.00  0.00    +0.000 OA
ATOM     31  H   UNL     1      -0.328  13.005  21.474  0.00  0.00    +0.000 HD
ENDBRANCH  25  30
BRANCH  22  32
ATOM     32  C   UNL     1      -2.480  10.049  16.525  0.00  0.00    +0.000 C 
BRANCH  32  33
ATOM     33  O   UNL     1      -2.467  11.200  15.684  0.00  0.00    +0.000 OA
ATOM     34  H   UNL     1      -3.094  11.846  16.065  0.00  0.00    +0.000 HD
ENDBRANCH  32  33
ENDBRANCH  22  32
ENDBRANCH  19  20
ENDBRANCH   1  19
TORSDOF 12
ENDMDL
MODEL 3
REMARK VINA RESULT:      -7.3      1.402      2.056
REMARK  Name = 
REMARK  15 active torsions:
REMARK  status: ('A' for Active; 'I' for Inactive)
REMARK    1  A    between atoms: C_1  and  C_2
REMARK    2  A    between atoms: C_7  and  C_8
REMARK    3  A    between atoms: C_7  and  C_9
REMARK    4  A    between atoms: C_10  and  O_11
REMARK    5  A    between atoms: C_10  and  C_12
REMARK    6  A    between atoms: C_13  and  C_14
REMARK    7  A    between atoms: C_14  and  C_15
REMARK    8  A    between atoms: C_14  and  O_17
REMARK    9  A    between atoms: C_15  and  O_16
REMARK   10  A    between atoms: O_17  and  C_18
REMARK   11  A    between atoms: C_20  and  C_21
REMARK   12  A    between atoms: C_21  and  O_22
REMARK   13  A    between atoms: C_23  and  O_24
REMARK   14  A    between atoms: C_25  and  O_26
REMARK   15  A    between atoms: C_27  and  O_28
REMARK                            x       y       z     vdW  Elec       q    Type
REMARK                         _______ _______ _______ _____ _____    ______ ____
ROOT
ATOM      1  C   UNL     1       1.633   8.458  18.417  0.00  0.00    +0.000 C 
ENDROOT
BRANCH   1   3
ATOM      2  C   UNL     1       2.571   6.122  18.991  0.00  0.00    +0.000 C 
ATOM      3  C   UNL     1       2.044   7.031  18.147  0.00  0.00    +0.000 C 
BRANCH   2  13
ATOM      4  C   UNL     1       4.884   5.180  17.237  0.00  0.00    +0.000 C 
ATOM      5  C   UNL     1       4.222   4.365  18.332  0.00  0.00    +0.000 C 
ATOM      6  C   UNL     1       4.946   3.409  18.926  0.00  0.00    +0.000 C 
ATOM      7  C   UNL     1       4.392   2.514  19.946  0.00  0.00    +0.000 C 
ATOM      8  O   UNL     1       5.135   1.677  20.455  0.00  0.00    +0.000 OA
ATOM      9  C   UNL     1       2.944   2.593  20.324  0.00  0.00    +0.000 C 
ATOM     10  C   UNL     1       2.044   3.709  19.721  0.00  0.00    +0.000 C 
ATOM     11  C   UNL     1       0.803   3.008  19.095  0.00  0.00    +0.000 C 
ATOM     12  C   UNL     1       1.477   4.504  20.936  0.00  0.00    +0.000 C 
ATOM     13  C   UNL     1       2.764   4.651  18.636  0.00  0.00    +0.000 C 
BRANCH  13  14
ATOM     14  O   UNL     1       2.112   4.458  17.365  0.00  0.00    +0.000 OA
ATOM     15  H   UNL     1       2.722   4.763  16.674  0.00  0.00    +0.000 HD
ENDBRANCH  13  14
ENDBRANCH   2  13
ENDBRANCH   1   3
BRANCH   1  16
ATOM     16  C   UNL     1       2.655   9.403  17.746  0.00  0.00    +0.000 C 
BRANCH  16  17
ATOM     17  O   UNL     1       2.085  10.658  17.374  0.00  0.00    +0.000 OA
ATOM     18  H   UNL     1       1.673  10.530  16.500  0.00  0.00    +0.000 HD
ENDBRANCH  16  17
ENDBRANCH   1  16
BRANCH   1  19
ATOM     19  O   UNL     1       1.429   8.673  19.817  0.00  0.00    +0.000 OA
BRANCH  19  20
ATOM     20  C   UNL     1       0.332   9.522  20.184  0.00  0.00    +0.000 C 
ATOM     21  O   UNL     1      -0.137  10.159  18.979  0.00  0.00    +0.000 OA
ATOM     22  C   UNL     1      -1.340  10.915  19.161  0.00  0.00    +0.000 C 
ATOM     23  C   UNL     1      -1.117  12.069  20.154  0.00  0.00    +0.000 C 
ATOM     24  C   UNL     1      -0.541  11.515  21.457  0.00  0.00    +0.000 C 
ATOM     25  C   UNL     1       0.693  10.632  21.213  0.00  0.00    +0.000 C 
BRANCH  23  26
ATOM     26  O   UNL     1      -2.359  12.750  20.390  0.00  0.00    +0.000 OA
ATOM     27  H   UNL     1      -2.734  13.012  19.527  0.00  0.00    +0.000 HD
ENDBRANCH  23  26
BRANCH  24  28
ATOM     28  O   UNL     1      -0.255  12.589  22.362  0.00  0.00    +0.000 OA
ATOM     29  H   UNL     1       0.710  12.633  22.498  0.00  0.00    +0.000 HD
ENDBRANCH  24  28
BRANCH  25  30
ATOM     30  O   UNL     1       1.137  10.122  22.481  0.00  0.00    +0.000 OA
ATOM     31  H   UNL     1       0.366   9.797  22.980  0.00  0.00    +0.000 HD
ENDBRANCH  25  30
BRANCH  22  32
ATOM     32  C   UNL     1      -1.817  11.461  17.804  0.00  0.00    +0.000 C 
BRANCH  32  33
ATOM     33  O   UNL     1      -1.240  12.727  17.495  0.00  0.00    +0.000 OA
ATOM     34  H   UNL     1      -1.272  12.833  16.524  0.00  0.00    +0.000 HD
ENDBRANCH  32  33
ENDBRANCH  22  32
ENDBRANCH  19  20
ENDBRANCH   1  19
TORSDOF 12
ENDMDL
MODEL 4
REMARK VINA RESULT:      -7.1      2.430      4.595
REMARK  Name = 
REMARK  15 active torsions:
REMARK  status: ('A' for Active; 'I' for Inactive)
REMARK    1  A    between atoms: C_1  and  C_2
REMARK    2  A    between atoms: C_7  and  C_8
REMARK    3  A    between atoms: C_7  and  C_9
REMARK    4  A    between atoms: C_10  and  O_11
REMARK    5  A    between atoms: C_10  and  C_12
REMARK    6  A    between atoms: C_13  and  C_14
REMARK    7  A    between atoms: C_14  and  C_15
REMARK    8  A    between atoms: C_14  and  O_17
REMARK    9  A    between atoms: C_15  and  O_16
REMARK   10  A    between atoms: O_17  and  C_18
REMARK   11  A    between atoms: C_20  and  C_21
REMARK   12  A    between atoms: C_21  and  O_22
REMARK   13  A    between atoms: C_23  and  O_24
REMARK   14  A    between atoms: C_25  and  O_26
REMARK   15  A    between atoms: C_27  and  O_28
REMARK                            x       y       z     vdW  Elec       q    Type
REMARK                         _______ _______ _______ _____ _____    ______ ____
ROOT
ATOM      1  C   UNL     1       2.543   6.399  20.082  0.00  0.00    +0.000 C 
ENDROOT
BRANCH   1   3
ATOM      2  C   UNL     1       4.135   5.615  18.206  0.00  0.00    +0.000 C 
ATOM      3  C   UNL     1       3.594   5.528  19.437  0.00  0.00    +0.000 C 
BRANCH   2  13
ATOM      4  C   UNL     1       3.805   2.778  17.131  0.00  0.00    +0.000 C 
ATOM      5  C   UNL     1       4.895   3.751  16.725  0.00  0.00    +0.000 C 
ATOM      6  C   UNL     1       5.446   3.605  15.514  0.00  0.00    +0.000 C 
ATOM      7  C   UNL     1       6.554   4.440  15.042  0.00  0.00    +0.000 C 
ATOM      8  O   UNL     1       6.986   4.251  13.906  0.00  0.00    +0.000 OA
ATOM      9  C   UNL     1       7.171   5.468  15.940  0.00  0.00    +0.000 C 
ATOM     10  C   UNL     1       6.558   5.739  17.345  0.00  0.00    +0.000 C 
ATOM     11  C   UNL     1       7.713   5.605  18.381  0.00  0.00    +0.000 C 
ATOM     12  C   UNL     1       6.186   7.253  17.364  0.00  0.00    +0.000 C 
ATOM     13  C   UNL     1       5.329   4.785  17.746  0.00  0.00    +0.000 C 
BRANCH  13  14
ATOM     14  O   UNL     1       5.724   3.991  18.882  0.00  0.00    +0.000 OA
ATOM     15  H   UNL     1       5.719   3.061  18.605  0.00  0.00    +0.000 HD
ENDBRANCH  13  14
ENDBRANCH   2  13
ENDBRANCH   1   3
BRANCH   1  16
ATOM     16  C   UNL     1       1.528   5.492  20.812  0.00  0.00    +0.000 C 
BRANCH  16  17
ATOM     17  O   UNL     1       2.095   4.250  21.228  0.00  0.00    +0.000 OA
ATOM     18  H   UNL     1       2.418   3.806  20.422  0.00  0.00    +0.000 HD
ENDBRANCH  16  17
ENDBRANCH   1  16
BRANCH   1  19
ATOM     19  O   UNL     1       1.979   7.306  19.130  0.00  0.00    +0.000 OA
BRANCH  19  20
ATOM     20  C   UNL     1       1.745   8.648  19.580  0.00  0.00    +0.000 C 
ATOM     21  O   UNL     1       0.823   8.574  20.685  0.00  0.00    +0.000 OA
ATOM     22  C   UNL     1       0.621   9.828  21.347  0.00  0.00    +0.000 C 
ATOM     23  C   UNL     1       0.001  10.860  20.389  0.00  0.00    +0.000 C 
ATOM     24  C   UNL     1       0.863  10.967  19.130  0.00  0.00    +0.000 C 
ATOM     25  C   UNL     1       1.138   9.592  18.501  0.00  0.00    +0.000 C 
BRANCH  23  26
ATOM     26  O   UNL     1      -0.102  12.130  21.050  0.00  0.00    +0.000 OA
ATOM     27  H   UNL     1       0.779  12.552  21.044  0.00  0.00    +0.000 HD
ENDBRANCH  23  26
BRANCH  24  28
ATOM     28  O   UNL     1       0.255  11.867  18.196  0.00  0.00    +0.000 OA
ATOM     29  H   UNL     1      -0.524  12.274  18.618  0.00  0.00    +0.000 HD
ENDBRANCH  24  28
BRANCH  25  30
ATOM     30  O   UNL     1       1.987   9.784  17.357  0.00  0.00    +0.000 OA
ATOM     31  H   UNL     1       2.542  10.570  17.503  0.00  0.00    +0.000 HD
ENDBRANCH  25  30
BRANCH  22  32
ATOM     32  C   UNL     1      -0.287   9.623  22.572  0.00  0.00    +0.000 C 
BRANCH  32  33
ATOM     33  O   UNL     1       0.435   9.687  23.800  0.00  0.00    +0.000 OA
ATOM     34  H   UNL     1      -0.214   9.597  24.525  0.00  0.00    +0.000 HD
ENDBRANCH  32  33
ENDBRANCH  22  32
ENDBRANCH  19  20
ENDBRANCH   1  19
TORSDOF 12
ENDMDL
MODEL 5
REMARK VINA RESULT:      -7.1      1.438      2.490
REMARK  Name = 
REMARK  15 active torsions:
REMARK  status: ('A' for Active; 'I' for Inactive)
REMARK    1  A    between atoms: C_1  and  C_2
REMARK    2  A    between atoms: C_7  and  C_8
REMARK    3  A    between atoms: C_7  and  C_9
REMARK    4  A    between atoms: C_10  and  O_11
REMARK    5  A    between atoms: C_10  and  C_12
REMARK    6  A    between atoms: C_13  and  C_14
REMARK    7  A    between atoms: C_14  and  C_15
REMARK    8  A    between atoms: C_14  and  O_17
REMARK    9  A    between atoms: C_15  and  O_16
REMARK   10  A    between atoms: O_17  and  C_18
REMARK   11  A    between atoms: C_20  and  C_21
REMARK   12  A    between atoms: C_21  and  O_22
REMARK   13  A    between atoms: C_23  and  O_24
REMARK   14  A    between atoms: C_25  and  O_26
REMARK   15  A    between atoms: C_27  and  O_28
REMARK                            x       y       z     vdW  Elec       q    Type
REMARK                         _______ _______ _______ _____ _____    ______ ____
ROOT
ATOM      1  C   UNL     1       1.390   8.935  20.736  0.00  0.00    +0.000 C 
ENDROOT
BRANCH   1   3
ATOM      2  C   UNL     1       2.296   6.927  19.389  0.00  0.00    +0.000 C 
ATOM      3  C   UNL     1       1.865   7.518  20.521  0.00  0.00    +0.000 C 
BRANCH   2  13
ATOM      4  C   UNL     1       0.847   4.464  20.461  0.00  0.00    +0.000 C 
ATOM      5  C   UNL     1       1.857   4.468  19.330  0.00  0.00    +0.000 C 
ATOM      6  C   UNL     1       1.775   3.494  18.415  0.00  0.00    +0.000 C 
ATOM      7  C   UNL     1       2.739   3.355  17.318  0.00  0.00    +0.000 C 
ATOM      8  O   UNL     1       2.576   2.444  16.510  0.00  0.00    +0.000 OA
ATOM      9  C   UNL     1       3.915   4.277  17.215  0.00  0.00    +0.000 C 
ATOM     10  C   UNL     1       4.057   5.468  18.206  0.00  0.00    +0.000 C 
ATOM     11  C   UNL     1       5.474   5.365  18.845  0.00  0.00    +0.000 C 
ATOM     12  C   UNL     1       4.115   6.753  17.325  0.00  0.00    +0.000 C 
ATOM     13  C   UNL     1       2.930   5.540  19.349  0.00  0.00    +0.000 C 
BRANCH  13  14
ATOM     14  O   UNL     1       3.567   5.355  20.627  0.00  0.00    +0.000 OA
ATOM     15  H   UNL     1       3.259   4.509  20.989  0.00  0.00    +0.000 HD
ENDBRANCH  13  14
ENDBRANCH   2  13
ENDBRANCH   1   3
BRANCH   1  16
ATOM     16  C   UNL     1       0.207   8.915  21.730  0.00  0.00    +0.000 C 
BRANCH  16  17
ATOM     17  O   UNL     1       0.362   9.856  22.792  0.00  0.00    +0.000 OA
ATOM     18  H   UNL     1       0.274  10.743  22.395  0.00  0.00    +0.000 HD
ENDBRANCH  16  17
ENDBRANCH   1  16
BRANCH   1  19
ATOM     19  O   UNL     1       1.128   9.580  19.486  0.00  0.00    +0.000 OA
BRANCH  19  20
ATOM     20  C   UNL     1      -0.158  10.199  19.340  0.00  0.00    +0.000 C 
ATOM     21  O   UNL     1      -0.642   9.872  18.022  0.00  0.00    +0.000 OA
ATOM     22  C   UNL     1      -1.994  10.287  17.789  0.00  0.00    +0.000 C 
ATOM     23  C   UNL     1      -2.122  11.817  17.885  0.00  0.00    +0.000 C 
ATOM     24  C   UNL     1      -1.561  12.292  19.225  0.00  0.00    +0.000 C 
ATOM     25  C   UNL     1      -0.146  11.749  19.483  0.00  0.00    +0.000 C 
BRANCH  23  26
ATOM     26  O   UNL     1      -3.500  12.195  17.742  0.00  0.00    +0.000 OA
ATOM     27  H   UNL     1      -3.786  11.976  16.835  0.00  0.00    +0.000 HD
ENDBRANCH  23  26
BRANCH  24  28
ATOM     28  O   UNL     1      -1.603  13.722  19.295  0.00  0.00    +0.000 OA
ATOM     29  H   UNL     1      -0.807  14.034  19.765  0.00  0.00    +0.000 HD
ENDBRANCH  24  28
BRANCH  25  30
ATOM     30  O   UNL     1       0.280  12.207  20.777  0.00  0.00    +0.000 OA
ATOM     31  H   UNL     1       1.085  11.723  21.035  0.00  0.00    +0.000 HD
ENDBRANCH  25  30
BRANCH  22  32
ATOM     32  C   UNL     1      -2.452   9.797  16.405  0.00  0.00    +0.000 C 
BRANCH  32  33
ATOM     33  O   UNL     1      -2.311  10.798  15.400  0.00  0.00    +0.000 OA
ATOM     34  H   UNL     1      -1.667  10.465  14.745  0.00  0.00    +0.000 HD
ENDBRANCH  32  33
ENDBRANCH  22  32
ENDBRANCH  19  20
ENDBRANCH   1  19
TORSDOF 12
ENDMDL
MODEL 6
REMARK VINA RESULT:      -6.9      1.735      2.822
REMARK  Name = 
REMARK  15 active torsions:
REMARK  status: ('A' for Active; 'I' for Inactive)
REMARK    1  A    between atoms: C_1  and  C_2
REMARK    2  A    between atoms: C_7  and  C_8
REMARK    3  A    between atoms: C_7  and  C_9
REMARK    4  A    between atoms: C_10  and  O_11
REMARK    5  A    between atoms: C_10  and  C_12
REMARK    6  A    between atoms: C_13  and  C_14
REMARK    7  A    between atoms: C_14  and  C_15
REMARK    8  A    between atoms: C_14  and  O_17
REMARK    9  A    between atoms: C_15  and  O_16
REMARK   10  A    between atoms: O_17  and  C_18
REMARK   11  A    between atoms: C_20  and  C_21
REMARK   12  A    between atoms: C_21  and  O_22
REMARK   13  A    between atoms: C_23  and  O_24
REMARK   14  A    between atoms: C_25  and  O_26
REMARK   15  A    between atoms: C_27  and  O_28
REMARK                            x       y       z     vdW  Elec       q    Type
REMARK                         _______ _______ _______ _____ _____    ______ ____
ROOT
ATOM      1  C   UNL     1       1.480   8.715  19.277  0.00  0.00    +0.000 C 
ENDROOT
BRANCH   1   3
ATOM      2  C   UNL     1       2.264   6.284  18.899  0.00  0.00    +0.000 C 
ATOM      3  C   UNL     1       2.091   7.387  19.654  0.00  0.00    +0.000 C 
BRANCH   2  13
ATOM      4  C   UNL     1       0.994   4.003  20.479  0.00  0.00    +0.000 C 
ATOM      5  C   UNL     1       2.165   3.867  19.525  0.00  0.00    +0.000 C 
ATOM      6  C   UNL     1       2.360   2.679  18.939  0.00  0.00    +0.000 C 
ATOM      7  C   UNL     1       3.498   2.410  18.055  0.00  0.00    +0.000 C 
ATOM      8  O   UNL     1       3.589   1.297  17.542  0.00  0.00    +0.000 OA
ATOM      9  C   UNL     1       4.545   3.455  17.820  0.00  0.00    +0.000 C 
ATOM     10  C   UNL     1       4.369   4.879  18.421  0.00  0.00    +0.000 C 
ATOM     11  C   UNL     1       5.664   5.202  19.223  0.00  0.00    +0.000 C 
ATOM     12  C   UNL     1       4.401   5.861  17.209  0.00  0.00    +0.000 C 
ATOM     13  C   UNL     1       3.071   5.070  19.349  0.00  0.00    +0.000 C 
BRANCH  13  14
ATOM     14  O   UNL     1       3.511   5.358  20.690  0.00  0.00    +0.000 OA
ATOM     15  H   UNL     1       3.189   6.244  20.921  0.00  0.00    +0.000 HD
ENDBRANCH  13  14
ENDBRANCH   2  13
ENDBRANCH   1   3
BRANCH   1  16
ATOM     16  C   UNL     1       2.420   9.427  18.279  0.00  0.00    +0.000 C 
BRANCH  16  17
ATOM     17  O   UNL     1       1.717  10.250  17.349  0.00  0.00    +0.000 OA
ATOM     18  H   UNL     1       2.070  10.037  16.465  0.00  0.00    +0.000 HD
ENDBRANCH  16  17
ENDBRANCH   1  16
BRANCH   1  19
ATOM     19  O   UNL     1       1.142   9.471  20.445  0.00  0.00    +0.000 OA
BRANCH  19  20
ATOM     20  C   UNL     1      -0.143  10.108  20.448  0.00  0.00    +0.000 C 
ATOM     21  O   UNL     1      -0.415  10.529  19.097  0.00  0.00    +0.000 OA
ATOM     22  C   UNL     1      -1.741  11.040  18.912  0.00  0.00    +0.000 C 
ATOM     23  C   UNL     1      -1.969  12.297  19.768  0.00  0.00    +0.000 C 
ATOM     24  C   UNL     1      -1.633  11.987  21.227  0.00  0.00    +0.000 C 
ATOM     25  C   UNL     1      -0.240  11.354  21.377  0.00  0.00    +0.000 C 
BRANCH  23  26
ATOM     26  O   UNL     1      -3.332  12.730  19.636  0.00  0.00    +0.000 OA
ATOM     27  H   UNL     1      -3.403  13.278  18.831  0.00  0.00    +0.000 HD
ENDBRANCH  23  26
BRANCH  24  28
ATOM     28  O   UNL     1      -1.766  13.172  22.023  0.00  0.00    +0.000 OA
ATOM     29  H   UNL     1      -1.839  13.940  21.427  0.00  0.00    +0.000 HD
ENDBRANCH  24  28
BRANCH  25  30
ATOM     30  O   UNL     1      -0.030  11.057  22.767  0.00  0.00    +0.000 OA
ATOM     31  H   UNL     1       0.605  10.323  22.842  0.00  0.00    +0.000 HD
ENDBRANCH  25  30
BRANCH  22  32
ATOM     32  C   UNL     1      -1.968  11.357  17.424  0.00  0.00    +0.000 C 
BRANCH  32  33
ATOM     33  O   UNL     1      -1.384  12.599  17.037  0.00  0.00    +0.000 OA
ATOM     34  H   UNL     1      -1.633  12.761  16.107  0.00  0.00    +0.000 HD
ENDBRANCH  32  33
ENDBRANCH  22  32
ENDBRANCH  19  20
ENDBRANCH   1  19
TORSDOF 12
ENDMDL
MODEL 7
REMARK VINA RESULT:      -6.9      3.247      7.046
REMARK  Name = 
REMARK  15 active torsions:
REMARK  status: ('A' for Active; 'I' for Inactive)
REMARK    1  A    between atoms: C_1  and  C_2
REMARK    2  A    between atoms: C_7  and  C_8
REMARK    3  A    between atoms: C_7  and  C_9
REMARK    4  A    between atoms: C_10  and  O_11
REMARK    5  A    between atoms: C_10  and  C_12
REMARK    6  A    between atoms: C_13  and  C_14
REMARK    7  A    between atoms: C_14  and  C_15
REMARK    8  A    between atoms: C_14  and  O_17
REMARK    9  A    between atoms: C_15  and  O_16
REMARK   10  A    between atoms: O_17  and  C_18
REMARK   11  A    between atoms: C_20  and  C_21
REMARK   12  A    between atoms: C_21  and  O_22
REMARK   13  A    between atoms: C_23  and  O_24
REMARK   14  A    between atoms: C_25  and  O_26
REMARK   15  A    between atoms: C_27  and  O_28
REMARK                            x       y       z     vdW  Elec       q    Type
REMARK                         _______ _______ _______ _____ _____    ______ ____
ROOT
ATOM      1  C   UNL     1       2.986   7.689  18.282  0.00  0.00    +0.000 C 
ENDROOT
BRANCH   1   3
ATOM      2  C   UNL     1       2.098   5.269  18.142  0.00  0.00    +0.000 C 
ATOM      3  C   UNL     1       2.800   6.259  18.728  0.00  0.00    +0.000 C 
BRANCH   2  13
ATOM      4  C   UNL     1       3.841   3.200  16.728  0.00  0.00    +0.000 C 
ATOM      5  C   UNL     1       3.468   3.179  18.198  0.00  0.00    +0.000 C 
ATOM      6  C   UNL     1       4.296   2.556  19.045  0.00  0.00    +0.000 C 
ATOM      7  C   UNL     1       4.004   2.409  20.474  0.00  0.00    +0.000 C 
ATOM      8  O   UNL     1       4.831   1.840  21.184  0.00  0.00    +0.000 OA
ATOM      9  C   UNL     1       2.710   2.906  21.043  0.00  0.00    +0.000 C 
ATOM     10  C   UNL     1       1.715   3.689  20.139  0.00  0.00    +0.000 C 
ATOM     11  C   UNL     1       0.333   2.981  20.260  0.00  0.00    +0.000 C 
ATOM     12  C   UNL     1       1.510   5.072  20.829  0.00  0.00    +0.000 C 
ATOM     13  C   UNL     1       2.149   3.814  18.598  0.00  0.00    +0.000 C 
BRANCH  13  14
ATOM     14  O   UNL     1       1.182   3.110  17.795  0.00  0.00    +0.000 OA
ATOM     15  H   UNL     1       1.633   2.355  17.385  0.00  0.00    +0.000 HD
ENDBRANCH  13  14
ENDBRANCH   2  13
ENDBRANCH   1   3
BRANCH   1  16
ATOM     16  C   UNL     1       1.630   8.231  17.776  0.00  0.00    +0.000 C 
BRANCH  16  17
ATOM     17  O   UNL     1       1.698   9.596  17.367  0.00  0.00    +0.000 OA
ATOM     18  H   UNL     1       0.930   9.753  16.787  0.00  0.00    +0.000 HD
ENDBRANCH  16  17
ENDBRANCH   1  16
BRANCH   1  19
ATOM     19  O   UNL     1       4.071   7.797  17.355  0.00  0.00    +0.000 OA
BRANCH  19  20
ATOM     20  C   UNL     1       4.920   6.649  17.223  0.00  0.00    +0.000 C 
ATOM     21  O   UNL     1       5.724   6.572  18.417  0.00  0.00    +0.000 OA
ATOM     22  C   UNL     1       6.510   5.377  18.503  0.00  0.00    +0.000 C 
ATOM     23  C   UNL     1       7.520   5.302  17.345  0.00  0.00    +0.000 C 
ATOM     24  C   UNL     1       6.782   5.452  16.015  0.00  0.00    +0.000 C 
ATOM     25  C   UNL     1       5.876   6.694  15.995  0.00  0.00    +0.000 C 
BRANCH  23  26
ATOM     26  O   UNL     1       8.226   4.053  17.402  0.00  0.00    +0.000 OA
ATOM     27  H   UNL     1       8.961   4.144  18.038  0.00  0.00    +0.000 HD
ENDBRANCH  23  26
BRANCH  24  28
ATOM     28  O   UNL     1       7.721   5.462  14.932  0.00  0.00    +0.000 OA
ATOM     29  H   UNL     1       7.297   5.065  14.149  0.00  0.00    +0.000 HD
ENDBRANCH  24  28
BRANCH  25  30
ATOM     30  O   UNL     1       5.193   6.730  14.731  0.00  0.00    +0.000 OA
ATOM     31  H   UNL     1       5.032   7.657  14.484  0.00  0.00    +0.000 HD
ENDBRANCH  25  30
BRANCH  22  32
ATOM     32  C   UNL     1       7.241   5.337  19.855  0.00  0.00    +0.000 C 
BRANCH  32  33
ATOM     33  O   UNL     1       8.658   5.401  19.709  0.00  0.00    +0.000 OA
ATOM     34  H   UNL     1       9.050   4.880  20.436  0.00  0.00    +0.000 HD
ENDBRANCH  32  33
ENDBRANCH  22  32
ENDBRANCH  19  20
ENDBRANCH   1  19
TORSDOF 12
ENDMDL
MODEL 8
REMARK VINA RESULT:      -6.8      2.605      4.140
REMARK  Name = 
REMARK  15 active torsions:
REMARK  status: ('A' for Active; 'I' for Inactive)
REMARK    1  A    between atoms: C_1  and  C_2
REMARK    2  A    between atoms: C_7  and  C_8
REMARK    3  A    between atoms: C_7  and  C_9
REMARK    4  A    between atoms: C_10  and  O_11
REMARK    5  A    between atoms: C_10  and  C_12
REMARK    6  A    between atoms: C_13  and  C_14
REMARK    7  A    between atoms: C_14  and  C_15
REMARK    8  A    between atoms: C_14  and  O_17
REMARK    9  A    between atoms: C_15  and  O_16
REMARK   10  A    between atoms: O_17  and  C_18
REMARK   11  A    between atoms: C_20  and  C_21
REMARK   12  A    between atoms: C_21  and  O_22
REMARK   13  A    between atoms: C_23  and  O_24
REMARK   14  A    between atoms: C_25  and  O_26
REMARK   15  A    between atoms: C_27  and  O_28
REMARK                            x       y       z     vdW  Elec       q    Type
REMARK                         _______ _______ _______ _____ _____    ______ ____
ROOT
ATOM      1  C   UNL     1       2.684   6.680  19.434  0.00  0.00    +0.000 C 
ENDROOT
BRANCH   1   3
ATOM      2  C   UNL     1       4.096   6.629  17.273  0.00  0.00    +0.000 C 
ATOM      3  C   UNL     1       3.812   6.241  18.532  0.00  0.00    +0.000 C 
BRANCH   2  13
ATOM      4  C   UNL     1       6.659   8.259  17.569  0.00  0.00    +0.000 C 
ATOM      5  C   UNL     1       6.591   6.769  17.291  0.00  0.00    +0.000 C 
ATOM      6  C   UNL     1       7.626   6.013  17.674  0.00  0.00    +0.000 C 
ATOM      7  C   UNL     1       7.704   4.576  17.395  0.00  0.00    +0.000 C 
ATOM      8  O   UNL     1       8.682   3.953  17.802  0.00  0.00    +0.000 OA
ATOM      9  C   UNL     1       6.634   3.896  16.596  0.00  0.00    +0.000 C 
ATOM     10  C   UNL     1       5.370   4.690  16.156  0.00  0.00    +0.000 C 
ATOM     11  C   UNL     1       5.229   4.509  14.616  0.00  0.00    +0.000 C 
ATOM     12  C   UNL     1       4.153   3.921  16.756  0.00  0.00    +0.000 C 
ATOM     13  C   UNL     1       5.379   6.250  16.540  0.00  0.00    +0.000 C 
BRANCH  13  14
ATOM     14  O   UNL     1       5.385   7.017  15.321  0.00  0.00    +0.000 OA
ATOM     15  H   UNL     1       5.149   6.417  14.596  0.00  0.00    +0.000 HD
ENDBRANCH  13  14
ENDBRANCH   2  13
ENDBRANCH   1   3
BRANCH   1  16
ATOM     16  C   UNL     1       1.995   5.423  20.012  0.00  0.00    +0.000 C 
BRANCH  16  17
ATOM     17  O   UNL     1       2.371   5.160  21.364  0.00  0.00    +0.000 OA
ATOM     18  H   UNL     1       2.327   6.011  21.837  0.00  0.00    +0.000 HD
ENDBRANCH  16  17
ENDBRANCH   1  16
BRANCH   1  19
ATOM     19  O   UNL     1       1.817   7.596  18.758  0.00  0.00    +0.000 OA
BRANCH  19  20
ATOM     20  C   UNL     1       1.630   8.878  19.374  0.00  0.00    +0.000 C 
ATOM     21  O   UNL     1       0.675   8.704  20.440  0.00  0.00    +0.000 OA
ATOM     22  C   UNL     1       0.509   9.870  21.255  0.00  0.00    +0.000 C 
ATOM     23  C   UNL     1      -0.038  11.045  20.427  0.00  0.00    +0.000 C 
ATOM     24  C   UNL     1       0.861  11.274  19.212  0.00  0.00    +0.000 C 
ATOM     25  C   UNL     1       1.094   9.980  18.415  0.00  0.00    +0.000 C 
BRANCH  23  26
ATOM     26  O   UNL     1      -0.105  12.223  21.245  0.00  0.00    +0.000 OA
ATOM     27  H   UNL     1       0.729  12.295  21.749  0.00  0.00    +0.000 HD
ENDBRANCH  23  26
BRANCH  24  28
ATOM     28  O   UNL     1       0.320  12.315  18.390  0.00  0.00    +0.000 OA
ATOM     29  H   UNL     1       0.298  13.141  18.908  0.00  0.00    +0.000 HD
ENDBRANCH  24  28
BRANCH  25  30
ATOM     30  O   UNL     1       1.982  10.279  17.325  0.00  0.00    +0.000 OA
ATOM     31  H   UNL     1       1.997  11.242  17.183  0.00  0.00    +0.000 HD
ENDBRANCH  25  30
BRANCH  22  32
ATOM     32  C   UNL     1      -0.440   9.551  22.423  0.00  0.00    +0.000 C 
BRANCH  32  33
ATOM     33  O   UNL     1      -0.043  10.188  23.636  0.00  0.00    +0.000 OA
ATOM     34  H   UNL     1      -0.537   9.762  24.363  0.00  0.00    +0.000 HD
ENDBRANCH  32  33
ENDBRANCH  22  32
ENDBRANCH  19  20
ENDBRANCH   1  19
TORSDOF 12
ENDMDL
MODEL 9
REMARK VINA RESULT:      -6.7      1.913      3.761
REMARK  Name = 
REMARK  15 active torsions:
REMARK  status: ('A' for Active; 'I' for Inactive)
REMARK    1  A    between atoms: C_1  and  C_2
REMARK    2  A    between atoms: C_7  and  C_8
REMARK    3  A    between atoms: C_7  and  C_9
REMARK    4  A    between atoms: C_10  and  O_11
REMARK    5  A    between atoms: C_10  and  C_12
REMARK    6  A    between atoms: C_13  and  C_14
REMARK    7  A    between atoms: C_14  and  C_15
REMARK    8  A    between atoms: C_14  and  O_17
REMARK    9  A    between atoms: C_15  and  O_16
REMARK   10  A    between atoms: O_17  and  C_18
REMARK   11  A    between atoms: C_20  and  C_21
REMARK   12  A    between atoms: C_21  and  O_22
REMARK   13  A    between atoms: C_23  and  O_24
REMARK   14  A    between atoms: C_25  and  O_26
REMARK   15  A    between atoms: C_27  and  O_28
REMARK                            x       y       z     vdW  Elec       q    Type
REMARK                         _______ _______ _______ _____ _____    ______ ____
ROOT
ATOM      1  C   UNL     1       1.545   9.112  18.158  0.00  0.00    +0.000 C 
ENDROOT
BRANCH   1   3
ATOM      2  C   UNL     1       2.286   6.642  18.267  0.00  0.00    +0.000 C 
ATOM      3  C   UNL     1       2.144   7.877  18.786  0.00  0.00    +0.000 C 
BRANCH   2  13
ATOM      4  C   UNL     1       0.983   4.664  20.192  0.00  0.00    +0.000 C 
ATOM      5  C   UNL     1       2.176   4.370  19.302  0.00  0.00    +0.000 C 
ATOM      6  C   UNL     1       2.387   3.100  18.937  0.00  0.00    +0.000 C 
ATOM      7  C   UNL     1       3.546   2.686  18.140  0.00  0.00    +0.000 C 
ATOM      8  O   UNL     1       3.650   1.501  17.831  0.00  0.00    +0.000 OA
ATOM      9  C   UNL     1       4.596   3.681  17.749  0.00  0.00    +0.000 C 
ATOM     10  C   UNL     1       4.403   5.187  18.088  0.00  0.00    +0.000 C 
ATOM     11  C   UNL     1       5.679   5.652  18.850  0.00  0.00    +0.000 C 
ATOM     12  C   UNL     1       4.462   5.942  16.725  0.00  0.00    +0.000 C 
ATOM     13  C   UNL     1       3.085   5.529  18.940  0.00  0.00    +0.000 C 
BRANCH  13  14
ATOM     14  O   UNL     1       3.493   6.049  20.220  0.00  0.00    +0.000 OA
ATOM     15  H   UNL     1       2.954   5.613  20.899  0.00  0.00    +0.000 HD
ENDBRANCH  13  14
ENDBRANCH   2  13
ENDBRANCH   1   3
BRANCH   1  16
ATOM     16  C   UNL     1       2.559  10.273  18.282  0.00  0.00    +0.000 C 
BRANCH  16  17
ATOM     17  O   UNL     1       2.450  11.217  17.218  0.00  0.00    +0.000 OA
ATOM     18  H   UNL     1       2.377  12.097  17.631  0.00  0.00    +0.000 HD
ENDBRANCH  16  17
ENDBRANCH   1  16
BRANCH   1  19
ATOM     19  O   UNL     1       0.244   9.377  18.693  0.00  0.00    +0.000 OA
BRANCH  19  20
ATOM     20  C   UNL     1       0.126  10.512  19.563  0.00  0.00    +0.000 C 
ATOM     21  O   UNL     1      -0.418  10.039  20.810  0.00  0.00    +0.000 OA
ATOM     22  C   UNL     1      -0.442  11.036  21.839  0.00  0.00    +0.000 C 
ATOM     23  C   UNL     1      -1.346  12.215  21.440  0.00  0.00    +0.000 C 
ATOM     24  C   UNL     1      -0.907  12.754  20.078  0.00  0.00    +0.000 C 
ATOM     25  C   UNL     1      -0.801  11.640  19.024  0.00  0.00    +0.000 C 
BRANCH  23  26
ATOM     26  O   UNL     1      -1.276  13.238  22.444  0.00  0.00    +0.000 OA
ATOM     27  H   UNL     1      -1.165  12.808  23.314  0.00  0.00    +0.000 HD
ENDBRANCH  23  26
BRANCH  24  28
ATOM     28  O   UNL     1      -1.789  13.802  19.658  0.00  0.00    +0.000 OA
ATOM     29  H   UNL     1      -1.575  14.038  18.737  0.00  0.00    +0.000 HD
ENDBRANCH  24  28
BRANCH  25  30
ATOM     30  O   UNL     1      -0.341  12.228  17.796  0.00  0.00    +0.000 OA
ATOM     31  H   UNL     1      -0.913  12.984  17.572  0.00  0.00    +0.000 HD
ENDBRANCH  25  30
BRANCH  22  32
ATOM     32  C   UNL     1      -0.933  10.407  23.155  0.00  0.00    +0.000 C 
BRANCH  32  33
ATOM     33  O   UNL     1       0.005   9.481  23.698  0.00  0.00    +0.000 OA
ATOM     34  H   UNL     1      -0.460   8.964  24.384  0.00  0.00    +0.000 HD
ENDBRANCH  32  33
ENDBRANCH  22  32
ENDBRANCH  19  20
ENDBRANCH   1  19
TORSDOF 12
ENDMDL
