MODEL 1
REMARK VINA RESULT:      -8.2      0.000      0.000
REMARK  Name = 
REMARK  5 active torsions:
REMARK  status: ('A' for Active; 'I' for Inactive)
REMARK    1  A    between atoms: C_2  and  C_3
REMARK    2  A    between atoms: C_5  and  C_6
REMARK    3  A    between atoms: C_7  and  C_8
REMARK    4  A    between atoms: C_27  and  O_28
REMARK    5  A    between atoms: C_29  and  N_30
REMARK                            x       y       z     vdW  Elec       q    Type
REMARK                         _______ _______ _______ _____ _____    ______ ____
ROOT
ATOM      1  C   UNL     1       0.767   8.876  19.059  0.00  0.00    +0.000 C 
ATOM      2  C   UNL     1      -0.136   9.930  19.784  0.00  0.00    +0.000 C 
ATOM      3  C   UNL     1       0.963  10.967  19.493  0.00  0.00    +0.000 C 
ATOM      4  C   UNL     1       1.333  10.087  18.268  0.00  0.00    +0.000 C 
ENDROOT
BRANCH   3   5
ATOM      5  C   UNL     1       0.658  12.424  19.149  0.00  0.00    +0.000 A 
ATOM      6  C   UNL     1      -0.600  12.879  18.757  0.00  0.00    +0.000 A 
ATOM      7  N   UNL     1      -0.455  14.247  18.579  0.00  0.00    +0.000 N 
ATOM      8  C   UNL     1       0.832  14.659  18.823  0.00  0.00    +0.000 A 
ATOM      9  C   UNL     1       1.390  15.931  18.751  0.00  0.00    +0.000 A 
ATOM     10  F   UNL     1       0.646  16.987  18.414  0.00  0.00    +0.000 F 
ATOM     11  C   UNL     1       2.743  16.094  19.019  0.00  0.00    +0.000 A 
ATOM     12  C   UNL     1       3.509  14.987  19.345  0.00  0.00    +0.000 A 
ATOM     13  F   UNL     1       4.814  15.141  19.597  0.00  0.00    +0.000 F 
ATOM     14  C   UNL     1       2.952  13.705  19.413  0.00  0.00    +0.000 A 
ATOM     15  C   UNL     1       1.574  13.520  19.168  0.00  0.00    +0.000 A 
ATOM     16  H   UNL     1      -1.190  14.872  18.271  0.00  0.00    +0.000 HD
BRANCH   6  17
ATOM     17  C   UNL     1      -1.894  12.227  18.515  0.00  0.00    +0.000 A 
ATOM     18  C   UNL     1      -2.960  12.373  19.420  0.00  0.00    +0.000 A 
ATOM     19  C   UNL     1      -4.210  11.800  19.158  0.00  0.00    +0.000 A 
ATOM     20  C   UNL     1      -4.395  11.053  18.002  0.00  0.00    +0.000 A 
ATOM     21  F   UNL     1      -5.592  10.512  17.743  0.00  0.00    +0.000 F 
ATOM     22  C   UNL     1      -3.357  10.875  17.103  0.00  0.00    +0.000 A 
ATOM     23  C   UNL     1      -2.121  11.478  17.352  0.00  0.00    +0.000 A 
ENDBRANCH   6  17
ENDBRANCH   3   5
BRANCH   1  25
ATOM     24  O   UNL     1       1.670   8.122  21.210  0.00  0.00    +0.000 OA
ATOM     25  C   UNL     1       1.706   8.038  19.976  0.00  0.00    +0.000 C 
ATOM     26  N   UNL     1       2.537   7.102  19.380  0.00  0.00    +0.000 N 
ATOM     27  C   UNL     1       2.858   6.916  17.977  0.00  0.00    +0.000 C 
ATOM     28  C   UNL     1       2.637   5.418  17.786  0.00  0.00    +0.000 C 
ATOM     29  C   UNL     1       3.081   4.772  19.151  0.00  0.00    +0.000 C 
ATOM     30  C   UNL     1       3.038   5.974  20.144  0.00  0.00    +0.000 C 
BRANCH  29  31
ATOM     31  N   UNL     1       2.307   3.566  19.548  0.00  0.00    +0.000 NA
ATOM     32  C   UNL     1       2.890   2.806  20.679  0.00  0.00    +0.000 C 
ATOM     33  C   UNL     1       4.226   2.126  20.340  0.00  0.00    +0.000 C 
ATOM     34  O   UNL     1       4.095   1.238  19.225  0.00  0.00    +0.000 OA
ATOM     35  C   UNL     1       3.495   1.867  18.085  0.00  0.00    +0.000 C 
ATOM     36  C   UNL     1       2.181   2.594  18.429  0.00  0.00    +0.000 C 
ENDBRANCH  29  31
BRANCH  28  37
ATOM     37  O   UNL     1       1.252   5.213  17.480  0.00  0.00    +0.000 OA
ATOM     38  H   UNL     1       1.149   5.394  16.528  0.00  0.00    +0.000 HD
ENDBRANCH  28  37
ENDBRANCH   1  25
TORSDOF 5
ENDMDL
MODEL 2
REMARK VINA RESULT:      -8.0      5.805      8.609
REMARK  Name = 
REMARK  5 active torsions:
REMARK  status: ('A' for Active; 'I' for Inactive)
REMARK    1  A    between atoms: C_2  and  C_3
REMARK    2  A    between atoms: C_5  and  C_6
REMARK    3  A    between atoms: C_7  and  C_8
REMARK    4  A    between atoms: C_27  and  O_28
REMARK    5  A    between atoms: C_29  and  N_30
REMARK                            x       y       z     vdW  Elec       q    Type
REMARK                         _______ _______ _______ _____ _____    ______ ____
ROOT
ATOM      1  C   UNL     1       1.416  12.958  19.087  0.00  0.00    +0.000 C 
ATOM      2  C   UNL     1       0.527  11.735  19.495  0.00  0.00    +0.000 C 
ATOM      3  C   UNL     1      -0.612  12.738  19.747  0.00  0.00    +0.000 C 
ATOM      4  C   UNL     1       0.079  13.641  18.688  0.00  0.00    +0.000 C 
ENDROOT
BRANCH   3   5
ATOM      5  C   UNL     1      -2.076  12.423  19.442  0.00  0.00    +0.000 A 
ATOM      6  C   UNL     1      -3.124  12.694  20.321  0.00  0.00    +0.000 A 
ATOM      7  N   UNL     1      -4.273  12.297  19.652  0.00  0.00    +0.000 N 
ATOM      8  C   UNL     1      -3.988  11.777  18.413  0.00  0.00    +0.000 A 
ATOM      9  C   UNL     1      -4.843  11.265  17.443  0.00  0.00    +0.000 A 
ATOM     10  F   UNL     1      -6.164  11.237  17.639  0.00  0.00    +0.000 F 
ATOM     11  C   UNL     1      -4.307  10.762  16.264  0.00  0.00    +0.000 A 
ATOM     12  C   UNL     1      -2.934  10.776  16.083  0.00  0.00    +0.000 A 
ATOM     13  F   UNL     1      -2.415  10.287  14.950  0.00  0.00    +0.000 F 
ATOM     14  C   UNL     1      -2.070  11.286  17.059  0.00  0.00    +0.000 A 
ATOM     15  C   UNL     1      -2.596  11.824  18.254  0.00  0.00    +0.000 A 
ATOM     16  H   UNL     1      -5.210  12.342  20.033  0.00  0.00    +0.000 HD
BRANCH   6  17
ATOM     17  C   UNL     1      -3.203  13.248  21.678  0.00  0.00    +0.000 A 
ATOM     18  C   UNL     1      -3.490  12.427  22.782  0.00  0.00    +0.000 A 
ATOM     19  C   UNL     1      -3.507  12.947  24.082  0.00  0.00    +0.000 A 
ATOM     20  C   UNL     1      -3.262  14.299  24.284  0.00  0.00    +0.000 A 
ATOM     21  F   UNL     1      -3.267  14.797  25.526  0.00  0.00    +0.000 F 
ATOM     22  C   UNL     1      -2.998  15.137  23.213  0.00  0.00    +0.000 A 
ATOM     23  C   UNL     1      -2.948  14.606  21.922  0.00  0.00    +0.000 A 
ENDBRANCH   6  17
ENDBRANCH   3   5
BRANCH   1  25
ATOM     24  O   UNL     1       2.408  13.034  21.327  0.00  0.00    +0.000 OA
ATOM     25  C   UNL     1       2.295  13.571  20.218  0.00  0.00    +0.000 C 
ATOM     26  N   UNL     1       3.043  14.700  19.925  0.00  0.00    +0.000 N 
ATOM     27  C   UNL     1       2.977  15.575  18.771  0.00  0.00    +0.000 C 
ATOM     28  C   UNL     1       4.441  15.675  18.351  0.00  0.00    +0.000 C 
ATOM     29  C   UNL     1       5.248  15.632  19.702  0.00  0.00    +0.000 C 
ATOM     30  C   UNL     1       4.225  15.018  20.707  0.00  0.00    +0.000 C 
BRANCH  29  31
ATOM     31  N   UNL     1       6.568  14.954  19.615  0.00  0.00    +0.000 NA
ATOM     32  C   UNL     1       7.202  14.673  20.925  0.00  0.00    +0.000 C 
ATOM     33  C   UNL     1       7.637  15.937  21.683  0.00  0.00    +0.000 C 
ATOM     34  O   UNL     1       8.545  16.728  20.907  0.00  0.00    +0.000 OA
ATOM     35  C   UNL     1       8.043  17.019  19.597  0.00  0.00    +0.000 C 
ATOM     36  C   UNL     1       7.557  15.761  18.852  0.00  0.00    +0.000 C 
ENDBRANCH  29  31
BRANCH  28  37
ATOM     37  O   UNL     1       4.725  14.575  17.480  0.00  0.00    +0.000 OA
ATOM     38  H   UNL     1       4.909  13.807  18.053  0.00  0.00    +0.000 HD
ENDBRANCH  28  37
ENDBRANCH   1  25
TORSDOF 5
ENDMDL
MODEL 3
REMARK VINA RESULT:      -7.9      3.316      4.167
REMARK  Name = 
REMARK  5 active torsions:
REMARK  status: ('A' for Active; 'I' for Inactive)
REMARK    1  A    between atoms: C_2  and  C_3
REMARK    2  A    between atoms: C_5  and  C_6
REMARK    3  A    between atoms: C_7  and  C_8
REMARK    4  A    between atoms: C_27  and  O_28
REMARK    5  A    between atoms: C_29  and  N_30
REMARK                            x       y       z     vdW  Elec       q    Type
REMARK                         _______ _______ _______ _____ _____    ______ ____
ROOT
ATOM      1  C   UNL     1       1.217   9.340  19.550  0.00  0.00    +0.000 C 
ATOM      2  C   UNL     1       1.000  10.843  19.932  0.00  0.00    +0.000 C 
ATOM      3  C   UNL     1      -0.291  10.795  19.097  0.00  0.00    +0.000 C 
ATOM      4  C   UNL     1      -0.329   9.276  19.421  0.00  0.00    +0.000 C 
ENDROOT
BRANCH   3   5
ATOM      5  C   UNL     1      -1.560  11.550  19.488  0.00  0.00    +0.000 A 
ATOM      6  C   UNL     1      -2.697  11.620  18.684  0.00  0.00    +0.000 A 
ATOM      7  N   UNL     1      -3.618  12.355  19.415  0.00  0.00    +0.000 N 
ATOM      8  C   UNL     1      -3.103  12.761  20.623  0.00  0.00    +0.000 A 
ATOM      9  C   UNL     1      -3.688  13.515  21.634  0.00  0.00    +0.000 A 
ATOM     10  F   UNL     1      -4.945  13.953  21.522  0.00  0.00    +0.000 F 
ATOM     11  C   UNL     1      -2.945  13.826  22.765  0.00  0.00    +0.000 A 
ATOM     12  C   UNL     1      -1.635  13.385  22.859  0.00  0.00    +0.000 A 
ATOM     13  F   UNL     1      -0.916  13.688  23.945  0.00  0.00    +0.000 F 
ATOM     14  C   UNL     1      -1.041  12.631  21.841  0.00  0.00    +0.000 A 
ATOM     15  C   UNL     1      -1.787  12.283  20.693  0.00  0.00    +0.000 A 
ATOM     16  H   UNL     1      -4.546  12.605  19.096  0.00  0.00    +0.000 HD
BRANCH   6  17
ATOM     17  C   UNL     1      -3.036  11.116  17.347  0.00  0.00    +0.000 A 
ATOM     18  C   UNL     1      -4.172  11.583  16.662  0.00  0.00    +0.000 A 
ATOM     19  C   UNL     1      -4.461  11.146  15.363  0.00  0.00    +0.000 A 
ATOM     20  C   UNL     1      -3.629  10.218  14.750  0.00  0.00    +0.000 A 
ATOM     21  F   UNL     1      -3.896   9.806  13.505  0.00  0.00    +0.000 F 
ATOM     22  C   UNL     1      -2.514   9.726  15.408  0.00  0.00    +0.000 A 
ATOM     23  C   UNL     1      -2.212  10.191  16.691  0.00  0.00    +0.000 A 
ENDBRANCH   6  17
ENDBRANCH   3   5
BRANCH   1  25
ATOM     24  O   UNL     1       2.620   9.997  17.650  0.00  0.00    +0.000 OA
ATOM     25  C   UNL     1       2.114   9.076  18.304  0.00  0.00    +0.000 C 
ATOM     26  N   UNL     1       2.423   7.763  17.987  0.00  0.00    +0.000 N 
ATOM     27  C   UNL     1       1.853   6.533  18.502  0.00  0.00    +0.000 C 
ATOM     28  C   UNL     1       3.095   5.723  18.865  0.00  0.00    +0.000 C 
ATOM     29  C   UNL     1       4.161   6.116  17.775  0.00  0.00    +0.000 C 
ATOM     30  C   UNL     1       3.607   7.458  17.204  0.00  0.00    +0.000 C 
BRANCH  29  31
ATOM     31  N   UNL     1       5.566   6.140  18.261  0.00  0.00    +0.000 NA
ATOM     32  C   UNL     1       6.505   6.884  17.388  0.00  0.00    +0.000 C 
ATOM     33  C   UNL     1       6.740   6.214  16.026  0.00  0.00    +0.000 C 
ATOM     34  O   UNL     1       7.231   4.877  16.175  0.00  0.00    +0.000 OA
ATOM     35  C   UNL     1       6.414   4.082  17.043  0.00  0.00    +0.000 C 
ATOM     36  C   UNL     1       6.132   4.771  18.392  0.00  0.00    +0.000 C 
ENDBRANCH  29  31
BRANCH  28  37
ATOM     37  O   UNL     1       3.480   6.083  20.197  0.00  0.00    +0.000 OA
ATOM     38  H   UNL     1       4.164   5.444  20.471  0.00  0.00    +0.000 HD
ENDBRANCH  28  37
ENDBRANCH   1  25
TORSDOF 5
ENDMDL
MODEL 4
REMARK VINA RESULT:      -7.7      4.249     10.628
REMARK  Name = 
REMARK  5 active torsions:
REMARK  status: ('A' for Active; 'I' for Inactive)
REMARK    1  A    between atoms: C_2  and  C_3
REMARK    2  A    between atoms: C_5  and  C_6
REMARK    3  A    between atoms: C_7  and  C_8
REMARK    4  A    between atoms: C_27  and  O_28
REMARK    5  A    between atoms: C_29  and  N_30
REMARK                            x       y       z     vdW  Elec       q    Type
REMARK                         _______ _______ _______ _____ _____    ______ ____
ROOT
ATOM      1  C   UNL     1       1.264   8.268  18.906  0.00  0.00    +0.000 C 
ATOM      2  C   UNL     1       1.558   7.271  17.734  0.00  0.00    +0.000 C 
ATOM      3  C   UNL     1       2.878   6.932  18.448  0.00  0.00    +0.000 C 
ATOM      4  C   UNL     1       2.155   7.329  19.765  0.00  0.00    +0.000 C 
ENDROOT
BRANCH   3   5
ATOM      5  C   UNL     1       3.475   5.526  18.462  0.00  0.00    +0.000 A 
ATOM      6  C   UNL     1       4.845   5.268  18.425  0.00  0.00    +0.000 A 
ATOM      7  N   UNL     1       4.958   3.887  18.492  0.00  0.00    +0.000 N 
ATOM      8  C   UNL     1       3.729   3.276  18.551  0.00  0.00    +0.000 A 
ATOM      9  C   UNL     1       3.407   1.925  18.619  0.00  0.00    +0.000 A 
ATOM     10  F   UNL     1       4.364   0.993  18.649  0.00  0.00    +0.000 F 
ATOM     11  C   UNL     1       2.071   1.547  18.638  0.00  0.00    +0.000 A 
ATOM     12  C   UNL     1       1.089   2.522  18.583  0.00  0.00    +0.000 A 
ATOM     13  F   UNL     1      -0.199   2.159  18.596  0.00  0.00    +0.000 F 
ATOM     14  C   UNL     1       1.409   3.882  18.509  0.00  0.00    +0.000 A 
ATOM     15  C   UNL     1       2.761   4.290  18.512  0.00  0.00    +0.000 A 
ATOM     16  H   UNL     1       5.832   3.375  18.464  0.00  0.00    +0.000 HD
BRANCH   6  17
ATOM     17  C   UNL     1       6.042   6.112  18.323  0.00  0.00    +0.000 A 
ATOM     18  C   UNL     1       6.102   7.179  17.410  0.00  0.00    +0.000 A 
ATOM     19  C   UNL     1       7.222   8.019  17.356  0.00  0.00    +0.000 A 
ATOM     20  C   UNL     1       8.300   7.780  18.198  0.00  0.00    +0.000 A 
ATOM     21  F   UNL     1       9.367   8.587  18.157  0.00  0.00    +0.000 F 
ATOM     22  C   UNL     1       8.278   6.724  19.094  0.00  0.00    +0.000 A 
ATOM     23  C   UNL     1       7.144   5.910  19.167  0.00  0.00    +0.000 A 
ENDBRANCH   6  17
ENDBRANCH   3   5
BRANCH   1  25
ATOM     24  O   UNL     1       2.162  10.130  17.588  0.00  0.00    +0.000 OA
ATOM     25  C   UNL     1       1.694   9.746  18.668  0.00  0.00    +0.000 C 
ATOM     26  N   UNL     1       1.451  10.668  19.673  0.00  0.00    +0.000 N 
ATOM     27  C   UNL     1       1.053  10.446  21.050  0.00  0.00    +0.000 C 
ATOM     28  C   UNL     1      -0.124  11.405  21.209  0.00  0.00    +0.000 C 
ATOM     29  C   UNL     1       0.251  12.648  20.319  0.00  0.00    +0.000 C 
ATOM     30  C   UNL     1       1.343  12.082  19.360  0.00  0.00    +0.000 C 
BRANCH  29  31
ATOM     31  N   UNL     1      -0.907  13.318  19.670  0.00  0.00    +0.000 NA
ATOM     32  C   UNL     1      -0.543  14.259  18.584  0.00  0.00    +0.000 C 
ATOM     33  C   UNL     1       0.205  15.508  19.075  0.00  0.00    +0.000 C 
ATOM     34  O   UNL     1      -0.556  16.226  20.052  0.00  0.00    +0.000 OA
ATOM     35  C   UNL     1      -0.999  15.392  21.131  0.00  0.00    +0.000 C 
ATOM     36  C   UNL     1      -1.706  14.112  20.642  0.00  0.00    +0.000 C 
ENDBRANCH  29  31
BRANCH  28  37
ATOM     37  O   UNL     1      -1.308  10.726  20.774  0.00  0.00    +0.000 OA
ATOM     38  H   UNL     1      -2.053  11.332  20.940  0.00  0.00    +0.000 HD
ENDBRANCH  28  37
ENDBRANCH   1  25
TORSDOF 5
ENDMDL
MODEL 5
REMARK VINA RESULT:      -7.5      2.678      3.205
REMARK  Name = 
REMARK  5 active torsions:
REMARK  status: ('A' for Active; 'I' for Inactive)
REMARK    1  A    between atoms: C_2  and  C_3
REMARK    2  A    between atoms: C_5  and  C_6
REMARK    3  A    between atoms: C_7  and  C_8
REMARK    4  A    between atoms: C_27  and  O_28
REMARK    5  A    between atoms: C_29  and  N_30
REMARK                            x       y       z     vdW  Elec       q    Type
REMARK                         _______ _______ _______ _____ _____    ______ ____
ROOT
ATOM      1  C   UNL     1       0.656   9.734  19.532  0.00  0.00    +0.000 C 
ATOM      2  C   UNL     1      -0.908   9.815  19.488  0.00  0.00    +0.000 C 
ATOM      3  C   UNL     1      -0.813  10.881  20.594  0.00  0.00    +0.000 C 
ATOM      4  C   UNL     1       0.595  11.206  20.025  0.00  0.00    +0.000 C 
ENDROOT
BRANCH   3   5
ATOM      5  C   UNL     1      -1.751  12.084  20.668  0.00  0.00    +0.000 A 
ATOM      6  C   UNL     1      -2.700  12.386  19.692  0.00  0.00    +0.000 A 
ATOM      7  N   UNL     1      -3.356  13.516  20.158  0.00  0.00    +0.000 N 
ATOM      8  C   UNL     1      -2.849  13.941  21.362  0.00  0.00    +0.000 A 
ATOM      9  C   UNL     1      -3.216  15.026  22.151  0.00  0.00    +0.000 A 
ATOM     10  F   UNL     1      -4.209  15.838  21.780  0.00  0.00    +0.000 F 
ATOM     11  C   UNL     1      -2.524  15.271  23.330  0.00  0.00    +0.000 A 
ATOM     12  C   UNL     1      -1.481  14.434  23.691  0.00  0.00    +0.000 A 
ATOM     13  F   UNL     1      -0.810  14.672  24.825  0.00  0.00    +0.000 F 
ATOM     14  C   UNL     1      -1.106  13.345  22.897  0.00  0.00    +0.000 A 
ATOM     15  C   UNL     1      -1.812  13.063  21.707  0.00  0.00    +0.000 A 
ATOM     16  H   UNL     1      -4.094  14.003  19.663  0.00  0.00    +0.000 HD
BRANCH   6  17
ATOM     17  C   UNL     1      -3.067  11.787  18.403  0.00  0.00    +0.000 A 
ATOM     18  C   UNL     1      -4.383  11.361  18.149  0.00  0.00    +0.000 A 
ATOM     19  C   UNL     1      -4.744  10.845  16.898  0.00  0.00    +0.000 A 
ATOM     20  C   UNL     1      -3.784  10.726  15.901  0.00  0.00    +0.000 A 
ATOM     21  F   UNL     1      -4.128  10.243  14.701  0.00  0.00    +0.000 F 
ATOM     22  C   UNL     1      -2.476  11.119  16.130  0.00  0.00    +0.000 A 
ATOM     23  C   UNL     1      -2.129  11.665  17.368  0.00  0.00    +0.000 A 
ENDBRANCH   6  17
ENDBRANCH   3   5
BRANCH   1  25
ATOM     24  O   UNL     1       0.919   8.504  21.636  0.00  0.00    +0.000 OA
ATOM     25  C   UNL     1       1.256   8.630  20.452  0.00  0.00    +0.000 C 
ATOM     26  N   UNL     1       2.121   7.708  19.887  0.00  0.00    +0.000 N 
ATOM     27  C   UNL     1       2.766   7.725  18.588  0.00  0.00    +0.000 C 
ATOM     28  C   UNL     1       2.465   6.326  18.054  0.00  0.00    +0.000 C 
ATOM     29  C   UNL     1       2.492   5.399  19.327  0.00  0.00    +0.000 C 
ATOM     30  C   UNL     1       2.311   6.406  20.504  0.00  0.00    +0.000 C 
BRANCH  29  31
ATOM     31  N   UNL     1       1.538   4.260  19.285  0.00  0.00    +0.000 NA
ATOM     32  C   UNL     1       1.565   3.392  20.486  0.00  0.00    +0.000 C 
ATOM     33  C   UNL     1       2.871   2.597  20.641  0.00  0.00    +0.000 C 
ATOM     34  O   UNL     1       3.131   1.782  19.493  0.00  0.00    +0.000 OA
ATOM     35  C   UNL     1       3.082   2.522  18.267  0.00  0.00    +0.000 C 
ATOM     36  C   UNL     1       1.796   3.361  18.129  0.00  0.00    +0.000 C 
ENDBRANCH  29  31
BRANCH  28  37
ATOM     37  O   UNL     1       1.189   6.368  17.405  0.00  0.00    +0.000 OA
ATOM     38  H   UNL     1       0.948   7.310  17.326  0.00  0.00    +0.000 HD
ENDBRANCH  28  37
ENDBRANCH   1  25
TORSDOF 5
ENDMDL
MODEL 6
REMARK VINA RESULT:      -7.5      1.607      1.965
REMARK  Name = 
REMARK  5 active torsions:
REMARK  status: ('A' for Active; 'I' for Inactive)
REMARK    1  A    between atoms: C_2  and  C_3
REMARK    2  A    between atoms: C_5  and  C_6
REMARK    3  A    between atoms: C_7  and  C_8
REMARK    4  A    between atoms: C_27  and  O_28
REMARK    5  A    between atoms: C_29  and  N_30
REMARK                            x       y       z     vdW  Elec       q    Type
REMARK                         _______ _______ _______ _____ _____    ______ ____
ROOT
ATOM      1  C   UNL     1       0.651   9.408  19.210  0.00  0.00    +0.000 C 
ATOM      2  C   UNL     1      -0.337  10.440  19.850  0.00  0.00    +0.000 C 
ATOM      3  C   UNL     1       0.837  11.434  19.886  0.00  0.00    +0.000 C 
ATOM      4  C   UNL     1       1.409  10.652  18.672  0.00  0.00    +0.000 C 
ENDROOT
BRANCH   3   5
ATOM      5  C   UNL     1       0.663  12.932  19.640  0.00  0.00    +0.000 A 
ATOM      6  C   UNL     1      -0.478  13.647  20.001  0.00  0.00    +0.000 A 
ATOM      7  N   UNL     1      -0.215  14.961  19.641  0.00  0.00    +0.000 N 
ATOM      8  C   UNL     1       1.023  15.093  19.060  0.00  0.00    +0.000 A 
ATOM      9  C   UNL     1       1.657  16.224  18.558  0.00  0.00    +0.000 A 
ATOM     10  F   UNL     1       1.066  17.420  18.610  0.00  0.00    +0.000 F 
ATOM     11  C   UNL     1       2.915  16.097  17.983  0.00  0.00    +0.000 A 
ATOM     12  C   UNL     1       3.507  14.847  17.915  0.00  0.00    +0.000 A 
ATOM     13  F   UNL     1       4.717  14.722  17.356  0.00  0.00    +0.000 F 
ATOM     14  C   UNL     1       2.870  13.705  18.414  0.00  0.00    +0.000 A 
ATOM     15  C   UNL     1       1.601  13.816  19.025  0.00  0.00    +0.000 A 
ATOM     16  H   UNL     1      -0.861  15.733  19.752  0.00  0.00    +0.000 HD
BRANCH   6  17
ATOM     17  C   UNL     1      -1.764  13.283  20.610  0.00  0.00    +0.000 A 
ATOM     18  C   UNL     1      -1.916  13.233  22.007  0.00  0.00    +0.000 A 
ATOM     19  C   UNL     1      -3.157  12.943  22.586  0.00  0.00    +0.000 A 
ATOM     20  C   UNL     1      -4.250  12.675  21.771  0.00  0.00    +0.000 A 
ATOM     21  F   UNL     1      -5.440  12.408  22.322  0.00  0.00    +0.000 F 
ATOM     22  C   UNL     1      -4.125  12.697  20.392  0.00  0.00    +0.000 A 
ATOM     23  C   UNL     1      -2.892  13.021  19.819  0.00  0.00    +0.000 A 
ENDBRANCH   6  17
ENDBRANCH   3   5
BRANCH   1  25
ATOM     24  O   UNL     1       1.060   8.387  21.401  0.00  0.00    +0.000 OA
ATOM     25  C   UNL     1       1.357   8.435  20.200  0.00  0.00    +0.000 C 
ATOM     26  N   UNL     1       2.276   7.533  19.688  0.00  0.00    +0.000 N 
ATOM     27  C   UNL     1       2.884   7.485  18.372  0.00  0.00    +0.000 C 
ATOM     28  C   UNL     1       2.678   6.027  17.969  0.00  0.00    +0.000 C 
ATOM     29  C   UNL     1       2.808   5.219  19.313  0.00  0.00    +0.000 C 
ATOM     30  C   UNL     1       2.579   6.308  20.406  0.00  0.00    +0.000 C 
BRANCH  29  31
ATOM     31  N   UNL     1       1.943   4.013  19.397  0.00  0.00    +0.000 NA
ATOM     32  C   UNL     1       1.272   3.830  20.707  0.00  0.00    +0.000 C 
ATOM     33  C   UNL     1       2.240   3.503  21.854  0.00  0.00    +0.000 C 
ATOM     34  O   UNL     1       3.008   2.327  21.576  0.00  0.00    +0.000 OA
ATOM     35  C   UNL     1       3.665   2.385  20.303  0.00  0.00    +0.000 C 
ATOM     36  C   UNL     1       2.708   2.762  19.156  0.00  0.00    +0.000 C 
ENDBRANCH  29  31
BRANCH  28  37
ATOM     37  O   UNL     1       1.387   5.919  17.358  0.00  0.00    +0.000 OA
ATOM     38  H   UNL     1       1.533   5.926  16.394  0.00  0.00    +0.000 HD
ENDBRANCH  28  37
ENDBRANCH   1  25
TORSDOF 5
ENDMDL
MODEL 7
REMARK VINA RESULT:      -7.4      5.949      8.619
REMARK  Name = 
REMARK  5 active torsions:
REMARK  status: ('A' for Active; 'I' for Inactive)
REMARK    1  A    between atoms: C_2  and  C_3
REMARK    2  A    between atoms: C_5  and  C_6
REMARK    3  A    between atoms: C_7  and  C_8
REMARK    4  A    between atoms: C_27  and  O_28
REMARK    5  A    between atoms: C_29  and  N_30
REMARK                            x       y       z     vdW  Elec       q    Type
REMARK                         _______ _______ _______ _____ _____    ______ ____
ROOT
ATOM      1  C   UNL     1      -0.156  14.004  21.175  0.00  0.00    +0.000 C 
ATOM      2  C   UNL     1      -1.253  14.466  20.157  0.00  0.00    +0.000 C 
ATOM      3  C   UNL     1      -1.871  13.063  20.296  0.00  0.00    +0.000 C 
ATOM      4  C   UNL     1      -1.241  13.032  21.715  0.00  0.00    +0.000 C 
ENDROOT
BRANCH   3   5
ATOM      5  C   UNL     1      -3.378  12.816  20.275  0.00  0.00    +0.000 A 
ATOM      6  C   UNL     1      -4.029  12.091  19.277  0.00  0.00    +0.000 A 
ATOM      7  N   UNL     1      -5.364  12.071  19.652  0.00  0.00    +0.000 N 
ATOM      8  C   UNL     1      -5.577  12.760  20.821  0.00  0.00    +0.000 A 
ATOM      9  C   UNL     1      -6.756  12.983  21.524  0.00  0.00    +0.000 A 
ATOM     10  F   UNL     1      -7.917  12.485  21.089  0.00  0.00    +0.000 F 
ATOM     11  C   UNL     1      -6.721  13.749  22.682  0.00  0.00    +0.000 A 
ATOM     12  C   UNL     1      -5.514  14.279  23.109  0.00  0.00    +0.000 A 
ATOM     13  F   UNL     1      -5.480  15.021  24.222  0.00  0.00    +0.000 F 
ATOM     14  C   UNL     1      -4.327  14.061  22.402  0.00  0.00    +0.000 A 
ATOM     15  C   UNL     1      -4.336  13.266  21.235  0.00  0.00    +0.000 A 
ATOM     16  H   UNL     1      -6.109  11.637  19.120  0.00  0.00    +0.000 HD
BRANCH   6  17
ATOM     17  C   UNL     1      -3.591  11.439  18.037  0.00  0.00    +0.000 A 
ATOM     18  C   UNL     1      -2.418  10.665  17.999  0.00  0.00    +0.000 A 
ATOM     19  C   UNL     1      -2.034   9.995  16.831  0.00  0.00    +0.000 A 
ATOM     20  C   UNL     1      -2.808  10.116  15.684  0.00  0.00    +0.000 A 
ATOM     21  F   UNL     1      -2.450   9.469  14.569  0.00  0.00    +0.000 F 
ATOM     22  C   UNL     1      -3.958  10.888  15.686  0.00  0.00    +0.000 A 
ATOM     23  C   UNL     1      -4.355  11.527  16.863  0.00  0.00    +0.000 A 
ENDBRANCH   6  17
ENDBRANCH   3   5
BRANCH   1  25
ATOM     24  O   UNL     1       1.148  12.527  19.716  0.00  0.00    +0.000 OA
ATOM     25  C   UNL     1       1.155  13.438  20.553  0.00  0.00    +0.000 C 
ATOM     26  N   UNL     1       2.353  14.050  20.885  0.00  0.00    +0.000 N 
ATOM     27  C   UNL     1       2.634  15.022  21.925  0.00  0.00    +0.000 C 
ATOM     28  C   UNL     1       3.405  16.100  21.167  0.00  0.00    +0.000 C 
ATOM     29  C   UNL     1       4.240  15.310  20.091  0.00  0.00    +0.000 C 
ATOM     30  C   UNL     1       3.502  13.939  20.004  0.00  0.00    +0.000 C 
BRANCH  29  31
ATOM     31  N   UNL     1       4.435  16.032  18.806  0.00  0.00    +0.000 NA
ATOM     32  C   UNL     1       4.844  15.168  17.672  0.00  0.00    +0.000 C 
ATOM     33  C   UNL     1       6.255  14.579  17.826  0.00  0.00    +0.000 C 
ATOM     34  O   UNL     1       7.240  15.606  17.985  0.00  0.00    +0.000 OA
ATOM     35  C   UNL     1       6.914  16.528  19.033  0.00  0.00    +0.000 C 
ATOM     36  C   UNL     1       5.481  17.084  18.912  0.00  0.00    +0.000 C 
ENDBRANCH  29  31
BRANCH  28  37
ATOM     37  O   UNL     1       2.452  17.006  20.600  0.00  0.00    +0.000 OA
ATOM     38  H   UNL     1       1.620  16.507  20.500  0.00  0.00    +0.000 HD
ENDBRANCH  28  37
ENDBRANCH   1  25
TORSDOF 5
ENDMDL
MODEL 8
REMARK VINA RESULT:      -7.4      6.206      8.799
REMARK  Name = 
REMARK  5 active torsions:
REMARK  status: ('A' for Active; 'I' for Inactive)
REMARK    1  A    between atoms: C_2  and  C_3
REMARK    2  A    between atoms: C_5  and  C_6
REMARK    3  A    between atoms: C_7  and  C_8
REMARK    4  A    between atoms: C_27  and  O_28
REMARK    5  A    between atoms: C_29  and  N_30
REMARK                            x       y       z     vdW  Elec       q    Type
REMARK                         _______ _______ _______ _____ _____    ______ ____
ROOT
ATOM      1  C   UNL     1      -0.322  13.757  20.801  0.00  0.00    +0.000 C 
ATOM      2  C   UNL     1      -1.711  14.480  20.783  0.00  0.00    +0.000 C 
ATOM      3  C   UNL     1      -2.227  13.314  19.922  0.00  0.00    +0.000 C 
ATOM      4  C   UNL     1      -1.138  12.449  20.615  0.00  0.00    +0.000 C 
ENDROOT
BRANCH   3   5
ATOM      5  C   UNL     1      -3.643  12.754  20.047  0.00  0.00    +0.000 A 
ATOM      6  C   UNL     1      -4.212  11.877  19.125  0.00  0.00    +0.000 A 
ATOM      7  N   UNL     1      -5.473  11.589  19.625  0.00  0.00    +0.000 N 
ATOM      8  C   UNL     1      -5.722  12.256  20.799  0.00  0.00    +0.000 A 
ATOM      9  C   UNL     1      -6.853  12.250  21.607  0.00  0.00    +0.000 A 
ATOM     10  F   UNL     1      -7.916  11.505  21.290  0.00  0.00    +0.000 F 
ATOM     11  C   UNL     1      -6.879  13.043  22.746  0.00  0.00    +0.000 A 
ATOM     12  C   UNL     1      -5.778  13.829  23.050  0.00  0.00    +0.000 A 
ATOM     13  F   UNL     1      -5.803  14.598  24.145  0.00  0.00    +0.000 F 
ATOM     14  C   UNL     1      -4.640  13.843  22.237  0.00  0.00    +0.000 A 
ATOM     15  C   UNL     1      -4.584  13.025  21.087  0.00  0.00    +0.000 A 
ATOM     16  H   UNL     1      -6.154  10.991  19.171  0.00  0.00    +0.000 HD
BRANCH   6  17
ATOM     17  C   UNL     1      -3.758  11.290  17.858  0.00  0.00    +0.000 A 
ATOM     18  C   UNL     1      -4.444  11.539  16.656  0.00  0.00    +0.000 A 
ATOM     19  C   UNL     1      -3.976  11.026  15.440  0.00  0.00    +0.000 A 
ATOM     20  C   UNL     1      -2.831  10.239  15.421  0.00  0.00    +0.000 A 
ATOM     21  F   UNL     1      -2.375   9.756  14.259  0.00  0.00    +0.000 F 
ATOM     22  C   UNL     1      -2.146   9.960  16.593  0.00  0.00    +0.000 A 
ATOM     23  C   UNL     1      -2.599  10.502  17.798  0.00  0.00    +0.000 A 
ENDBRANCH   6  17
ENDBRANCH   3   5
BRANCH   1  25
ATOM     24  O   UNL     1       0.347  14.851  18.711  0.00  0.00    +0.000 OA
ATOM     25  C   UNL     1       0.694  14.204  19.707  0.00  0.00    +0.000 C 
ATOM     26  N   UNL     1       2.038  13.944  19.918  0.00  0.00    +0.000 N 
ATOM     27  C   UNL     1       2.668  13.099  20.914  0.00  0.00    +0.000 C 
ATOM     28  C   UNL     1       3.745  14.016  21.489  0.00  0.00    +0.000 C 
ATOM     29  C   UNL     1       4.223  14.885  20.267  0.00  0.00    +0.000 C 
ATOM     30  C   UNL     1       3.052  14.739  19.247  0.00  0.00    +0.000 C 
BRANCH  29  31
ATOM     31  N   UNL     1       4.622  16.275  20.613  0.00  0.00    +0.000 NA
ATOM     32  C   UNL     1       4.894  17.144  19.443  0.00  0.00    +0.000 C 
ATOM     33  C   UNL     1       6.143  16.734  18.648  0.00  0.00    +0.000 C 
ATOM     34  O   UNL     1       7.311  16.718  19.476  0.00  0.00    +0.000 OA
ATOM     35  C   UNL     1       7.136  15.936  20.664  0.00  0.00    +0.000 C 
ATOM     36  C   UNL     1       5.857  16.309  21.439  0.00  0.00    +0.000 C 
ENDBRANCH  29  31
BRANCH  28  37
ATOM     37  O   UNL     1       3.151  14.786  22.541  0.00  0.00    +0.000 OA
ATOM     38  H   UNL     1       2.971  15.669  22.171  0.00  0.00    +0.000 HD
ENDBRANCH  28  37
ENDBRANCH   1  25
TORSDOF 5
ENDMDL
MODEL 9
REMARK VINA RESULT:      -7.3      5.877      8.555
REMARK  Name = 
REMARK  5 active torsions:
REMARK  status: ('A' for Active; 'I' for Inactive)
REMARK    1  A    between atoms: C_2  and  C_3
REMARK    2  A    between atoms: C_5  and  C_6
REMARK    3  A    between atoms: C_7  and  C_8
REMARK    4  A    between atoms: C_27  and  O_28
REMARK    5  A    between atoms: C_29  and  N_30
REMARK                            x       y       z     vdW  Elec       q    Type
REMARK                         _______ _______ _______ _____ _____    ______ ____
ROOT
ATOM      1  C   UNL     1       0.163  14.176  18.950  0.00  0.00    +0.000 C 
ATOM      2  C   UNL     1      -0.765  13.037  18.409  0.00  0.00    +0.000 C 
ATOM      3  C   UNL     1      -1.372  12.957  19.821  0.00  0.00    +0.000 C 
ATOM      4  C   UNL     1      -0.976  14.452  19.969  0.00  0.00    +0.000 C 
ENDROOT
BRANCH   3   5
ATOM      5  C   UNL     1      -2.851  12.673  20.073  0.00  0.00    +0.000 A 
ATOM      6  C   UNL     1      -3.652  11.922  19.214  0.00  0.00    +0.000 A 
ATOM      7  N   UNL     1      -4.897  11.874  19.823  0.00  0.00    +0.000 N 
ATOM      8  C   UNL     1      -4.914  12.572  21.006  0.00  0.00    +0.000 A 
ATOM      9  C   UNL     1      -5.953  12.775  21.907  0.00  0.00    +0.000 A 
ATOM     10  F   UNL     1      -7.160  12.244  21.692  0.00  0.00    +0.000 F 
ATOM     11  C   UNL     1      -5.731  13.555  23.035  0.00  0.00    +0.000 A 
ATOM     12  C   UNL     1      -4.481  14.119  23.234  0.00  0.00    +0.000 A 
ATOM     13  F   UNL     1      -4.267  14.875  24.316  0.00  0.00    +0.000 F 
ATOM     14  C   UNL     1      -3.434  13.921  22.326  0.00  0.00    +0.000 A 
ATOM     15  C   UNL     1      -3.632  13.112  21.186  0.00  0.00    +0.000 A 
ATOM     16  H   UNL     1      -5.714  11.416  19.437  0.00  0.00    +0.000 HD
BRANCH   6  17
ATOM     17  C   UNL     1      -3.427  11.265  17.920  0.00  0.00    +0.000 A 
ATOM     18  C   UNL     1      -4.127  11.669  16.770  0.00  0.00    +0.000 A 
ATOM     19  C   UNL     1      -3.868  11.080  15.526  0.00  0.00    +0.000 A 
ATOM     20  C   UNL     1      -2.925  10.066  15.429  0.00  0.00    +0.000 A 
ATOM     21  F   UNL     1      -2.667   9.509  14.239  0.00  0.00    +0.000 F 
ATOM     22  C   UNL     1      -2.234   9.633  16.549  0.00  0.00    +0.000 A 
ATOM     23  C   UNL     1      -2.472  10.247  17.781  0.00  0.00    +0.000 A 
ENDBRANCH   6  17
ENDBRANCH   3   5
BRANCH   1  25
ATOM     24  O   UNL     1       1.974  12.568  19.329  0.00  0.00    +0.000 OA
ATOM     25  C   UNL     1       1.567  13.730  19.455  0.00  0.00    +0.000 C 
ATOM     26  N   UNL     1       2.414  14.697  19.973  0.00  0.00    +0.000 N 
ATOM     27  C   UNL     1       2.126  16.068  20.347  0.00  0.00    +0.000 C 
ATOM     28  C   UNL     1       3.244  16.840  19.650  0.00  0.00    +0.000 C 
ATOM     29  C   UNL     1       4.490  15.880  19.713  0.00  0.00    +0.000 C 
ATOM     30  C   UNL     1       3.850  14.484  19.984  0.00  0.00    +0.000 C 
BRANCH  29  31
ATOM     31  N   UNL     1       5.400  15.968  18.541  0.00  0.00    +0.000 NA
ATOM     32  C   UNL     1       6.265  14.780  18.344  0.00  0.00    +0.000 C 
ATOM     33  C   UNL     1       7.320  14.597  19.446  0.00  0.00    +0.000 C 
ATOM     34  O   UNL     1       8.162  15.749  19.564  0.00  0.00    +0.000 OA
ATOM     35  C   UNL     1       7.418  16.965  19.713  0.00  0.00    +0.000 C 
ATOM     36  C   UNL     1       6.324  17.129  18.640  0.00  0.00    +0.000 C 
ENDBRANCH  29  31
BRANCH  28  37
ATOM     37  O   UNL     1       2.812  17.130  18.315  0.00  0.00    +0.000 OA
ATOM     38  H   UNL     1       3.249  16.480  17.735  0.00  0.00    +0.000 HD
ENDBRANCH  28  37
ENDBRANCH   1  25
TORSDOF 5
ENDMDL
