MODEL 1
REMARK VINA RESULT:      -6.7      0.000      0.000
REMARK  Name = 
REMARK  6 active torsions:
REMARK  status: ('A' for Active; 'I' for Inactive)
REMARK    1  A    between atoms: C_1  and  C_2
REMARK    2  A    between atoms: C_2  and  C_3
REMARK    3  A    between atoms: C_2  and  C_4
REMARK    4  A    between atoms: C_4  and  C_5
REMARK    5  A    between atoms: C_5  and  N_6
REMARK    6  A    between atoms: N_6  and  C_7
REMARK                            x       y       z     vdW  Elec       q    Type
REMARK                         _______ _______ _______ _____ _____    ______ ____
ROOT
ATOM      1  C   UNL     1       4.982   4.657  16.974  0.00  0.00    +0.000 A 
ATOM      2  N   UNL     1       5.460   4.351  15.729  0.00  0.00    +0.000 NA
ATOM      3  C   UNL     1       6.806   4.266  15.481  0.00  0.00    +0.000 A 
ATOM      4  N   UNL     1       7.712   4.482  16.483  0.00  0.00    +0.000 NA
ATOM      5  C   UNL     1       7.235   4.787  17.715  0.00  0.00    +0.000 A 
ATOM      6  N   UNL     1       7.944   5.031  18.822  0.00  0.00    +0.000 N 
ATOM      7  N   UNL     1       7.088   5.288  19.809  0.00  0.00    +0.000 NA
ATOM      8  C   UNL     1       5.826   5.204  19.319  0.00  0.00    +0.000 A 
ATOM      9  C   UNL     1       5.914   4.881  17.981  0.00  0.00    +0.000 A 
ATOM     10  H   UNL     1       8.983   5.027  18.921  0.00  0.00    +0.000 HD
ENDROOT
BRANCH   1  11
ATOM     11  N   UNL     1       3.591   4.746  17.227  0.00  0.00    +0.000 N 
ATOM     12  H   UNL     1       3.159   5.679  17.271  0.00  0.00    +0.000 HD
BRANCH  11  13
ATOM     13  C   UNL     1       2.779   3.564  17.429  0.00  0.00    +0.000 C 
BRANCH  13  14
ATOM     14  C   UNL     1       1.451   3.916  18.114  0.00  0.00    +0.000 C 
BRANCH  14  16
ATOM     15  C   UNL     1       2.500   2.555  20.008  0.00  0.00    +0.000 C 
ATOM     16  C   UNL     1       1.409   3.567  19.626  0.00  0.00    +0.000 C 
ATOM     17  C   UNL     1       1.555   4.851  20.448  0.00  0.00    +0.000 C 
ENDBRANCH  14  16
ENDBRANCH  13  14
ENDBRANCH  11  13
ENDBRANCH   1  11
TORSDOF 4
ENDMDL
MODEL 2
REMARK VINA RESULT:      -6.6      1.561      2.949
REMARK  Name = 
REMARK  6 active torsions:
REMARK  status: ('A' for Active; 'I' for Inactive)
REMARK    1  A    between atoms: C_1  and  C_2
REMARK    2  A    between atoms: C_2  and  C_3
REMARK    3  A    between atoms: C_2  and  C_4
REMARK    4  A    between atoms: C_4  and  C_5
REMARK    5  A    between atoms: C_5  and  N_6
REMARK    6  A    between atoms: N_6  and  C_7
REMARK                            x       y       z     vdW  Elec       q    Type
REMARK                         _______ _______ _______ _____ _____    ______ ____
ROOT
ATOM      1  C   UNL     1       6.226   4.583  18.074  0.00  0.00    +0.000 A 
ATOM      2  N   UNL     1       6.753   5.645  18.757  0.00  0.00    +0.000 NA
ATOM      3  C   UNL     1       7.438   6.642  18.110  0.00  0.00    +0.000 A 
ATOM      4  N   UNL     1       7.608   6.599  16.752  0.00  0.00    +0.000 NA
ATOM      5  C   UNL     1       7.085   5.545  16.080  0.00  0.00    +0.000 A 
ATOM      6  N   UNL     1       7.137   5.316  14.763  0.00  0.00    +0.000 N 
ATOM      7  N   UNL     1       6.502   4.171  14.520  0.00  0.00    +0.000 NA
ATOM      8  C   UNL     1       6.044   3.674  15.697  0.00  0.00    +0.000 A 
ATOM      9  C   UNL     1       6.411   4.550  16.697  0.00  0.00    +0.000 A 
ATOM     10  H   UNL     1       7.589   5.912  14.035  0.00  0.00    +0.000 HD
ENDROOT
BRANCH   1  11
ATOM     11  N   UNL     1       5.520   3.554  18.745  0.00  0.00    +0.000 N 
ATOM     12  H   UNL     1       6.027   2.695  18.997  0.00  0.00    +0.000 HD
BRANCH  11  13
ATOM     13  C   UNL     1       4.115   3.686  19.071  0.00  0.00    +0.000 C 
BRANCH  13  14
ATOM     14  C   UNL     1       3.281   2.608  18.362  0.00  0.00    +0.000 C 
BRANCH  14  16
ATOM     15  C   UNL     1       0.971   2.778  19.448  0.00  0.00    +0.000 C 
ATOM     16  C   UNL     1       1.790   2.993  18.166  0.00  0.00    +0.000 C 
ATOM     17  C   UNL     1       1.698   4.451  17.706  0.00  0.00    +0.000 C 
ENDBRANCH  14  16
ENDBRANCH  13  14
ENDBRANCH  11  13
ENDBRANCH   1  11
TORSDOF 4
ENDMDL
MODEL 3
REMARK VINA RESULT:      -6.5      1.280      2.563
REMARK  Name = 
REMARK  6 active torsions:
REMARK  status: ('A' for Active; 'I' for Inactive)
REMARK    1  A    between atoms: C_1  and  C_2
REMARK    2  A    between atoms: C_2  and  C_3
REMARK    3  A    between atoms: C_2  and  C_4
REMARK    4  A    between atoms: C_4  and  C_5
REMARK    5  A    between atoms: C_5  and  N_6
REMARK    6  A    between atoms: N_6  and  C_7
REMARK                            x       y       z     vdW  Elec       q    Type
REMARK                         _______ _______ _______ _____ _____    ______ ____
ROOT
ATOM      1  C   UNL     1       5.434   4.094  17.931  0.00  0.00    +0.000 A 
ATOM      2  N   UNL     1       5.846   4.570  19.147  0.00  0.00    +0.000 NA
ATOM      3  C   UNL     1       6.834   5.516  19.247  0.00  0.00    +0.000 A 
ATOM      4  N   UNL     1       7.434   6.015  18.123  0.00  0.00    +0.000 NA
ATOM      5  C   UNL     1       7.025   5.540  16.921  0.00  0.00    +0.000 A 
ATOM      6  N   UNL     1       7.477   5.893  15.713  0.00  0.00    +0.000 N 
ATOM      7  N   UNL     1       6.808   5.188  14.803  0.00  0.00    +0.000 NA
ATOM      8  C   UNL     1       5.925   4.381  15.444  0.00  0.00    +0.000 A 
ATOM      9  C   UNL     1       6.057   4.605  16.798  0.00  0.00    +0.000 A 
ATOM     10  H   UNL     1       8.219   6.594  15.495  0.00  0.00    +0.000 HD
ENDROOT
BRANCH   1  11
ATOM     11  N   UNL     1       4.415   3.115  17.830  0.00  0.00    +0.000 N 
ATOM     12  H   UNL     1       4.634   2.148  18.103  0.00  0.00    +0.000 HD
BRANCH  11  13
ATOM     13  C   UNL     1       3.089   3.447  17.351  0.00  0.00    +0.000 C 
BRANCH  13  14
ATOM     14  C   UNL     1       2.408   4.469  18.274  0.00  0.00    +0.000 C 
BRANCH  14  16
ATOM     15  C   UNL     1       0.964   2.415  18.762  0.00  0.00    +0.000 C 
ATOM     16  C   UNL     1       1.270   3.872  19.143  0.00  0.00    +0.000 C 
ATOM     17  C   UNL     1       1.654   3.973  20.622  0.00  0.00    +0.000 C 
ENDBRANCH  14  16
ENDBRANCH  13  14
ENDBRANCH  11  13
ENDBRANCH   1  11
TORSDOF 4
ENDMDL
MODEL 4
REMARK VINA RESULT:      -6.5      0.755      1.100
REMARK  Name = 
REMARK  6 active torsions:
REMARK  status: ('A' for Active; 'I' for Inactive)
REMARK    1  A    between atoms: C_1  and  C_2
REMARK    2  A    between atoms: C_2  and  C_3
REMARK    3  A    between atoms: C_2  and  C_4
REMARK    4  A    between atoms: C_4  and  C_5
REMARK    5  A    between atoms: C_5  and  N_6
REMARK    6  A    between atoms: N_6  and  C_7
REMARK                            x       y       z     vdW  Elec       q    Type
REMARK                         _______ _______ _______ _____ _____    ______ ____
ROOT
ATOM      1  C   UNL     1       5.057   4.224  17.061  0.00  0.00    +0.000 A 
ATOM      2  N   UNL     1       5.542   3.989  15.802  0.00  0.00    +0.000 NA
ATOM      3  C   UNL     1       6.868   4.165  15.503  0.00  0.00    +0.000 A 
ATOM      4  N   UNL     1       7.749   4.579  16.465  0.00  0.00    +0.000 NA
ATOM      5  C   UNL     1       7.265   4.812  17.709  0.00  0.00    +0.000 A 
ATOM      6  N   UNL     1       7.951   5.217  18.784  0.00  0.00    +0.000 N 
ATOM      7  N   UNL     1       7.097   5.324  19.800  0.00  0.00    +0.000 NA
ATOM      8  C   UNL     1       5.859   4.981  19.361  0.00  0.00    +0.000 A 
ATOM      9  C   UNL     1       5.962   4.650  18.027  0.00  0.00    +0.000 A 
ATOM     10  H   UNL     1       8.973   5.420  18.842  0.00  0.00    +0.000 HD
ENDROOT
BRANCH   1  11
ATOM     11  N   UNL     1       3.686   4.043  17.367  0.00  0.00    +0.000 N 
ATOM     12  H   UNL     1       3.295   3.092  17.324  0.00  0.00    +0.000 HD
BRANCH  11  13
ATOM     13  C   UNL     1       2.836   5.157  17.730  0.00  0.00    +0.000 C 
BRANCH  13  14
ATOM     14  C   UNL     1       1.513   4.668  18.337  0.00  0.00    +0.000 C 
BRANCH  14  16
ATOM     15  C   UNL     1       1.251   3.775  20.719  0.00  0.00    +0.000 C 
ATOM     16  C   UNL     1       1.666   3.443  19.278  0.00  0.00    +0.000 C 
ATOM     17  C   UNL     1       0.835   2.277  18.733  0.00  0.00    +0.000 C 
ENDBRANCH  14  16
ENDBRANCH  13  14
ENDBRANCH  11  13
ENDBRANCH   1  11
TORSDOF 4
ENDMDL
MODEL 5
REMARK VINA RESULT:      -6.4      1.036      1.261
REMARK  Name = 
REMARK  6 active torsions:
REMARK  status: ('A' for Active; 'I' for Inactive)
REMARK    1  A    between atoms: C_1  and  C_2
REMARK    2  A    between atoms: C_2  and  C_3
REMARK    3  A    between atoms: C_2  and  C_4
REMARK    4  A    between atoms: C_4  and  C_5
REMARK    5  A    between atoms: C_5  and  N_6
REMARK    6  A    between atoms: N_6  and  C_7
REMARK                            x       y       z     vdW  Elec       q    Type
REMARK                         _______ _______ _______ _____ _____    ______ ____
ROOT
ATOM      1  C   UNL     1       4.990   5.286  17.037  0.00  0.00    +0.000 A 
ATOM      2  N   UNL     1       5.362   5.032  15.744  0.00  0.00    +0.000 NA
ATOM      3  C   UNL     1       6.654   4.703  15.423  0.00  0.00    +0.000 A 
ATOM      4  N   UNL     1       7.610   4.614  16.397  0.00  0.00    +0.000 NA
ATOM      5  C   UNL     1       7.239   4.867  17.676  0.00  0.00    +0.000 A 
ATOM      6  N   UNL     1       8.012   4.833  18.767  0.00  0.00    +0.000 N 
ATOM      7  N   UNL     1       7.254   5.145  19.816  0.00  0.00    +0.000 NA
ATOM      8  C   UNL     1       5.990   5.377  19.382  0.00  0.00    +0.000 A 
ATOM      9  C   UNL     1       5.974   5.197  18.015  0.00  0.00    +0.000 A 
ATOM     10  H   UNL     1       9.029   4.606  18.814  0.00  0.00    +0.000 HD
ENDROOT
BRANCH   1  11
ATOM     11  N   UNL     1       3.655   5.627  17.365  0.00  0.00    +0.000 N 
ATOM     12  H   UNL     1       3.320   6.573  17.138  0.00  0.00    +0.000 HD
BRANCH  11  13
ATOM     13  C   UNL     1       2.768   4.683  18.013  0.00  0.00    +0.000 C 
BRANCH  13  14
ATOM     14  C   UNL     1       2.556   3.437  17.141  0.00  0.00    +0.000 C 
BRANCH  14  16
ATOM     15  C   UNL     1       3.553   1.535  18.529  0.00  0.00    +0.000 C 
ATOM     16  C   UNL     1       2.268   2.144  17.947  0.00  0.00    +0.000 C 
ATOM     17  C   UNL     1       1.266   2.454  19.064  0.00  0.00    +0.000 C 
ENDBRANCH  14  16
ENDBRANCH  13  14
ENDBRANCH  11  13
ENDBRANCH   1  11
TORSDOF 4
ENDMDL
MODEL 6
REMARK VINA RESULT:      -6.4      1.541      1.944
REMARK  Name = 
REMARK  6 active torsions:
REMARK  status: ('A' for Active; 'I' for Inactive)
REMARK    1  A    between atoms: C_1  and  C_2
REMARK    2  A    between atoms: C_2  and  C_3
REMARK    3  A    between atoms: C_2  and  C_4
REMARK    4  A    between atoms: C_4  and  C_5
REMARK    5  A    between atoms: C_5  and  N_6
REMARK    6  A    between atoms: N_6  and  C_7
REMARK                            x       y       z     vdW  Elec       q    Type
REMARK                         _______ _______ _______ _____ _____    ______ ____
ROOT
ATOM      1  C   UNL     1       5.638   4.195  17.664  0.00  0.00    +0.000 A 
ATOM      2  N   UNL     1       5.126   3.957  16.417  0.00  0.00    +0.000 NA
ATOM      3  C   UNL     1       5.461   4.744  15.345  0.00  0.00    +0.000 A 
ATOM      4  N   UNL     1       6.326   5.794  15.497  0.00  0.00    +0.000 NA
ATOM      5  C   UNL     1       6.829   6.027  16.734  0.00  0.00    +0.000 A 
ATOM      6  N   UNL     1       7.683   6.992  17.094  0.00  0.00    +0.000 N 
ATOM      7  N   UNL     1       7.919   6.865  18.398  0.00  0.00    +0.000 NA
ATOM      8  C   UNL     1       7.206   5.809  18.865  0.00  0.00    +0.000 A 
ATOM      9  C   UNL     1       6.510   5.268  17.805  0.00  0.00    +0.000 A 
ATOM     10  H   UNL     1       8.104   7.724  16.481  0.00  0.00    +0.000 HD
ENDROOT
BRANCH   1  11
ATOM     11  N   UNL     1       5.289   3.381  18.770  0.00  0.00    +0.000 N 
ATOM     12  H   UNL     1       5.941   2.637  19.056  0.00  0.00    +0.000 HD
BRANCH  11  13
ATOM     13  C   UNL     1       4.048   3.570  19.490  0.00  0.00    +0.000 C 
BRANCH  13  14
ATOM     14  C   UNL     1       3.039   2.463  19.152  0.00  0.00    +0.000 C 
BRANCH  14  16
ATOM     15  C   UNL     1       0.910   3.466  20.153  0.00  0.00    +0.000 C 
ATOM     16  C   UNL     1       1.604   2.981  18.871  0.00  0.00    +0.000 C 
ATOM     17  C   UNL     1       1.664   4.106  17.833  0.00  0.00    +0.000 C 
ENDBRANCH  14  16
ENDBRANCH  13  14
ENDBRANCH  11  13
ENDBRANCH   1  11
TORSDOF 4
ENDMDL
MODEL 7
REMARK VINA RESULT:      -6.4      1.583      2.010
REMARK  Name = 
REMARK  6 active torsions:
REMARK  status: ('A' for Active; 'I' for Inactive)
REMARK    1  A    between atoms: C_1  and  C_2
REMARK    2  A    between atoms: C_2  and  C_3
REMARK    3  A    between atoms: C_2  and  C_4
REMARK    4  A    between atoms: C_4  and  C_5
REMARK    5  A    between atoms: C_5  and  N_6
REMARK    6  A    between atoms: N_6  and  C_7
REMARK                            x       y       z     vdW  Elec       q    Type
REMARK                         _______ _______ _______ _____ _____    ______ ____
ROOT
ATOM      1  C   UNL     1       5.678   4.251  17.789  0.00  0.00    +0.000 A 
ATOM      2  N   UNL     1       5.123   3.936  16.578  0.00  0.00    +0.000 NA
ATOM      3  C   UNL     1       5.412   4.659  15.449  0.00  0.00    +0.000 A 
ATOM      4  N   UNL     1       6.276   5.719  15.506  0.00  0.00    +0.000 NA
ATOM      5  C   UNL     1       6.822   6.029  16.707  0.00  0.00    +0.000 A 
ATOM      6  N   UNL     1       7.683   7.017  16.976  0.00  0.00    +0.000 N 
ATOM      7  N   UNL     1       7.967   6.970  18.276  0.00  0.00    +0.000 NA
ATOM      8  C   UNL     1       7.279   5.941  18.832  0.00  0.00    +0.000 A 
ATOM      9  C   UNL     1       6.548   5.334  17.833  0.00  0.00    +0.000 A 
ATOM     10  H   UNL     1       8.077   7.712  16.305  0.00  0.00    +0.000 HD
ENDROOT
BRANCH   1  11
ATOM     11  N   UNL     1       5.376   3.504  18.954  0.00  0.00    +0.000 N 
ATOM     12  H   UNL     1       6.142   3.273  19.601  0.00  0.00    +0.000 HD
BRANCH  11  13
ATOM     13  C   UNL     1       4.027   3.061  19.243  0.00  0.00    +0.000 C 
BRANCH  13  14
ATOM     14  C   UNL     1       3.194   4.195  19.859  0.00  0.00    +0.000 C 
BRANCH  14  16
ATOM     15  C   UNL     1       1.707   4.275  17.780  0.00  0.00    +0.000 C 
ATOM     16  C   UNL     1       1.743   4.278  19.316  0.00  0.00    +0.000 C 
ATOM     17  C   UNL     1       0.923   3.112  19.876  0.00  0.00    +0.000 C 
ENDBRANCH  14  16
ENDBRANCH  13  14
ENDBRANCH  11  13
ENDBRANCH   1  11
TORSDOF 4
ENDMDL
MODEL 8
REMARK VINA RESULT:      -6.4      1.802      3.233
REMARK  Name = 
REMARK  6 active torsions:
REMARK  status: ('A' for Active; 'I' for Inactive)
REMARK    1  A    between atoms: C_1  and  C_2
REMARK    2  A    between atoms: C_2  and  C_3
REMARK    3  A    between atoms: C_2  and  C_4
REMARK    4  A    between atoms: C_4  and  C_5
REMARK    5  A    between atoms: C_5  and  N_6
REMARK    6  A    between atoms: N_6  and  C_7
REMARK                            x       y       z     vdW  Elec       q    Type
REMARK                         _______ _______ _______ _____ _____    ______ ____
ROOT
ATOM      1  C   UNL     1       6.098   4.574  18.421  0.00  0.00    +0.000 A 
ATOM      2  N   UNL     1       6.961   5.399  19.089  0.00  0.00    +0.000 NA
ATOM      3  C   UNL     1       7.677   6.367  18.432  0.00  0.00    +0.000 A 
ATOM      4  N   UNL     1       7.539   6.536  17.081  0.00  0.00    +0.000 NA
ATOM      5  C   UNL     1       6.684   5.716  16.423  0.00  0.00    +0.000 A 
ATOM      6  N   UNL     1       6.405   5.715  15.114  0.00  0.00    +0.000 N 
ATOM      7  N   UNL     1       5.516   4.751  14.885  0.00  0.00    +0.000 NA
ATOM      8  C   UNL     1       5.231   4.137  16.061  0.00  0.00    +0.000 A 
ATOM      9  C   UNL     1       5.972   4.753  17.048  0.00  0.00    +0.000 A 
ATOM     10  H   UNL     1       6.799   6.347  14.383  0.00  0.00    +0.000 HD
ENDROOT
BRANCH   1  11
ATOM     11  N   UNL     1       5.361   3.573  19.101  0.00  0.00    +0.000 N 
ATOM     12  H   UNL     1       5.845   2.707  19.374  0.00  0.00    +0.000 HD
BRANCH  11  13
ATOM     13  C   UNL     1       3.956   3.743  19.410  0.00  0.00    +0.000 C 
BRANCH  13  14
ATOM     14  C   UNL     1       3.637   5.209  19.739  0.00  0.00    +0.000 C 
BRANCH  14  16
ATOM     15  C   UNL     1       3.137   7.023  18.006  0.00  0.00    +0.000 C 
ATOM     16  C   UNL     1       2.568   5.845  18.812  0.00  0.00    +0.000 C 
ATOM     17  C   UNL     1       2.005   4.772  17.874  0.00  0.00    +0.000 C 
ENDBRANCH  14  16
ENDBRANCH  13  14
ENDBRANCH  11  13
ENDBRANCH   1  11
TORSDOF 4
ENDMDL
MODEL 9
REMARK VINA RESULT:      -6.4      1.209      2.642
REMARK  Name = 
REMARK  6 active torsions:
REMARK  status: ('A' for Active; 'I' for Inactive)
REMARK    1  A    between atoms: C_1  and  C_2
REMARK    2  A    between atoms: C_2  and  C_3
REMARK    3  A    between atoms: C_2  and  C_4
REMARK    4  A    between atoms: C_4  and  C_5
REMARK    5  A    between atoms: C_5  and  N_6
REMARK    6  A    between atoms: N_6  and  C_7
REMARK                            x       y       z     vdW  Elec       q    Type
REMARK                         _______ _______ _______ _____ _____    ______ ____
ROOT
ATOM      1  C   UNL     1       5.369   4.065  17.957  0.00  0.00    +0.000 A 
ATOM      2  N   UNL     1       5.790   4.660  19.115  0.00  0.00    +0.000 NA
ATOM      3  C   UNL     1       6.834   5.550  19.124  0.00  0.00    +0.000 A 
ATOM      4  N   UNL     1       7.481   5.872  17.962  0.00  0.00    +0.000 NA
ATOM      5  C   UNL     1       7.062   5.280  16.817  0.00  0.00    +0.000 A 
ATOM      6  N   UNL     1       7.554   5.457  15.585  0.00  0.00    +0.000 N 
ATOM      7  N   UNL     1       6.857   4.687  14.752  0.00  0.00    +0.000 NA
ATOM      8  C   UNL     1       5.915   4.019  15.465  0.00  0.00    +0.000 A 
ATOM      9  C   UNL     1       6.040   4.398  16.785  0.00  0.00    +0.000 A 
ATOM     10  H   UNL     1       8.341   6.080  15.302  0.00  0.00    +0.000 HD
ENDROOT
BRANCH   1  11
ATOM     11  N   UNL     1       4.292   3.145  17.951  0.00  0.00    +0.000 N 
ATOM     12  H   UNL     1       4.417   2.241  18.427  0.00  0.00    +0.000 HD
BRANCH  11  13
ATOM     13  C   UNL     1       3.039   3.447  17.290  0.00  0.00    +0.000 C 
BRANCH  13  14
ATOM     14  C   UNL     1       2.173   4.379  18.150  0.00  0.00    +0.000 C 
BRANCH  14  16
ATOM     15  C   UNL     1       1.984   5.174  20.574  0.00  0.00    +0.000 C 
ATOM     16  C   UNL     1       2.081   3.957  19.640  0.00  0.00    +0.000 C 
ATOM     17  C   UNL     1       0.874   3.034  19.833  0.00  0.00    +0.000 C 
ENDBRANCH  14  16
ENDBRANCH  13  14
ENDBRANCH  11  13
ENDBRANCH   1  11
TORSDOF 4
ENDMDL
