MODEL 1
REMARK VINA RESULT:      -7.7      0.000      0.000
REMARK  Name = 
REMARK  8 active torsions:
REMARK  status: ('A' for Active; 'I' for Inactive)
REMARK    1  A    between atoms: C_2  and  C_3
REMARK    2  A    between atoms: N_5  and  C_6
REMARK    3  A    between atoms: C_6  and  C_7
REMARK    4  A    between atoms: C_7  and  C_8
REMARK    5  A    between atoms: C_8  and  C_9
REMARK    6  A    between atoms: N_11  and  C_12
REMARK    7  A    between atoms: C_12  and  C_13
REMARK    8  A    between atoms: C_17  and  C_18
REMARK                            x       y       z     vdW  Elec       q    Type
REMARK                         _______ _______ _______ _____ _____    ______ ____
ROOT
ATOM      1  C   UNL     1       6.802   5.165  18.896  0.00  0.00    +0.000 C 
ATOM      2  O   UNL     1       7.144   5.285  20.067  0.00  0.00    +0.000 OA
ATOM      3  N   UNL     1       5.834   4.286  18.474  0.00  0.00    +0.000 N 
ATOM      4  H   UNL     1       5.561   4.259  17.501  0.00  0.00    +0.000 HD
ENDROOT
BRANCH   1   5
ATOM      5  C   UNL     1       7.409   5.996  17.783  0.00  0.00    +0.000 C 
BRANCH   5   6
ATOM      6  C   UNL     1       6.461   7.104  17.326  0.00  0.00    +0.000 C 
BRANCH   6   7
ATOM      7  C   UNL     1       5.388   6.572  16.376  0.00  0.00    +0.000 C 
BRANCH   7  10
ATOM      8  N   UNL     1       5.530   3.852  15.488  0.00  0.00    +0.000 NA
ATOM      9  C   UNL     1       6.088   4.786  14.780  0.00  0.00    +0.000 C 
ATOM     10  N   UNL     1       6.000   6.100  15.156  0.00  0.00    +0.000 N 
ATOM     11  H   UNL     1       5.671   2.932  15.067  0.00  0.00    +0.000 HD
ATOM     12  H   UNL     1       6.502   6.794  14.607  0.00  0.00    +0.000 HD
BRANCH   9  13
ATOM     13  C   UNL     1       6.804   4.431  13.477  0.00  0.00    +0.000 C 
ATOM     14 CL   UNL     1       5.843   3.287  12.517  0.00  0.00    +0.000 Cl
ENDBRANCH   9  13
ENDBRANCH   7  10
ENDBRANCH   6   7
ENDBRANCH   5   6
ENDBRANCH   1   5
BRANCH   3  15
ATOM     15  C   UNL     1       5.124   3.437  19.404  0.00  0.00    +0.000 C 
BRANCH  15  16
ATOM     16  C   UNL     1       3.834   4.065  19.867  0.00  0.00    +0.000 A 
ATOM     17  C   UNL     1       2.889   3.309  20.567  0.00  0.00    +0.000 A 
ATOM     18  C   UNL     1       1.672   3.875  20.933  0.00  0.00    +0.000 A 
ATOM     19  C   UNL     1       1.387   5.203  20.603  0.00  0.00    +0.000 A 
ATOM     20  C   UNL     1       2.303   5.997  19.890  0.00  0.00    +0.000 A 
ATOM     21  C   UNL     1       3.531   5.401  19.540  0.00  0.00    +0.000 A 
BRANCH  20  22
ATOM     22  C   UNL     1       1.972   7.390  19.496  0.00  0.00    +0.000 A 
ATOM     23  C   UNL     1       1.326   8.276  20.379  0.00  0.00    +0.000 A 
ATOM     24  C   UNL     1       1.038   9.595  20.010  0.00  0.00    +0.000 A 
ATOM     25  C   UNL     1       1.378  10.058  18.742  0.00  0.00    +0.000 A 
ATOM     26  C   UNL     1       2.011   9.203  17.846  0.00  0.00    +0.000 A 
ATOM     27  C   UNL     1       2.308   7.889  18.222  0.00  0.00    +0.000 A 
ENDBRANCH  20  22
ENDBRANCH  15  16
ENDBRANCH   3  15
TORSDOF 8
ENDMDL
MODEL 2
REMARK VINA RESULT:      -7.5      4.289      5.123
REMARK  Name = 
REMARK  8 active torsions:
REMARK  status: ('A' for Active; 'I' for Inactive)
REMARK    1  A    between atoms: C_2  and  C_3
REMARK    2  A    between atoms: N_5  and  C_6
REMARK    3  A    between atoms: C_6  and  C_7
REMARK    4  A    between atoms: C_7  and  C_8
REMARK    5  A    between atoms: C_8  and  C_9
REMARK    6  A    between atoms: N_11  and  C_12
REMARK    7  A    between atoms: C_12  and  C_13
REMARK    8  A    between atoms: C_17  and  C_18
REMARK                            x       y       z     vdW  Elec       q    Type
REMARK                         _______ _______ _______ _____ _____    ______ ____
ROOT
ATOM      1  C   UNL     1       7.630   6.763  17.668  0.00  0.00    +0.000 C 
ATOM      2  O   UNL     1       7.617   6.948  16.456  0.00  0.00    +0.000 OA
ATOM      3  N   UNL     1       7.021   5.694  18.278  0.00  0.00    +0.000 N 
ATOM      4  H   UNL     1       7.099   5.567  19.278  0.00  0.00    +0.000 HD
ENDROOT
BRANCH   1   5
ATOM      5  C   UNL     1       8.340   7.699  18.625  0.00  0.00    +0.000 C 
BRANCH   5   6
ATOM      6  C   UNL     1       8.357   9.135  18.103  0.00  0.00    +0.000 C 
BRANCH   6   7
ATOM      7  C   UNL     1       9.177  10.055  19.007  0.00  0.00    +0.000 C 
BRANCH   7  10
ATOM      8  N   UNL     1      11.232  11.455  17.583  0.00  0.00    +0.000 NA
ATOM      9  C   UNL     1      10.126  12.068  17.878  0.00  0.00    +0.000 C 
ATOM     10  N   UNL     1       9.108  11.413  18.519  0.00  0.00    +0.000 N 
ATOM     11  H   UNL     1      11.880  12.073  17.093  0.00  0.00    +0.000 HD
ATOM     12  H   UNL     1       8.284  11.945  18.785  0.00  0.00    +0.000 HD
BRANCH   9  13
ATOM     13  C   UNL     1       9.924  13.523  17.454  0.00  0.00    +0.000 C 
ATOM     14 CL   UNL     1       8.352  14.132  18.011  0.00  0.00    +0.000 Cl
ENDBRANCH   9  13
ENDBRANCH   7  10
ENDBRANCH   6   7
ENDBRANCH   5   6
ENDBRANCH   1   5
BRANCH   3  15
ATOM     15  C   UNL     1       6.325   4.681  17.517  0.00  0.00    +0.000 C 
BRANCH  15  16
ATOM     16  C   UNL     1       4.831   4.770  17.696  0.00  0.00    +0.000 A 
ATOM     17  C   UNL     1       4.009   3.699  17.332  0.00  0.00    +0.000 A 
ATOM     18  C   UNL     1       2.626   3.812  17.436  0.00  0.00    +0.000 A 
ATOM     19  C   UNL     1       2.051   4.997  17.904  0.00  0.00    +0.000 A 
ATOM     20  C   UNL     1       2.838   6.103  18.271  0.00  0.00    +0.000 A 
ATOM     21  C   UNL     1       4.236   5.958  18.163  0.00  0.00    +0.000 A 
BRANCH  20  22
ATOM     22  C   UNL     1       2.219   7.377  18.716  0.00  0.00    +0.000 A 
ATOM     23  C   UNL     1       1.951   8.424  17.816  0.00  0.00    +0.000 A 
ATOM     24  C   UNL     1       1.346   9.614  18.237  0.00  0.00    +0.000 A 
ATOM     25  C   UNL     1       1.005   9.791  19.574  0.00  0.00    +0.000 A 
ATOM     26  C   UNL     1       1.265   8.776  20.489  0.00  0.00    +0.000 A 
ATOM     27  C   UNL     1       1.859   7.583  20.062  0.00  0.00    +0.000 A 
ENDBRANCH  20  22
ENDBRANCH  15  16
ENDBRANCH   3  15
TORSDOF 8
ENDMDL
MODEL 3
REMARK VINA RESULT:      -7.5      4.433      5.435
REMARK  Name = 
REMARK  8 active torsions:
REMARK  status: ('A' for Active; 'I' for Inactive)
REMARK    1  A    between atoms: C_2  and  C_3
REMARK    2  A    between atoms: N_5  and  C_6
REMARK    3  A    between atoms: C_6  and  C_7
REMARK    4  A    between atoms: C_7  and  C_8
REMARK    5  A    between atoms: C_8  and  C_9
REMARK    6  A    between atoms: N_11  and  C_12
REMARK    7  A    between atoms: C_12  and  C_13
REMARK    8  A    between atoms: C_17  and  C_18
REMARK                            x       y       z     vdW  Elec       q    Type
REMARK                         _______ _______ _______ _____ _____    ______ ____
ROOT
ATOM      1  C   UNL     1       7.848   7.699  17.845  0.00  0.00    +0.000 C 
ATOM      2  O   UNL     1       8.258   6.965  18.738  0.00  0.00    +0.000 OA
ATOM      3  N   UNL     1       7.129   7.249  16.765  0.00  0.00    +0.000 N 
ATOM      4  H   UNL     1       6.779   7.905  16.079  0.00  0.00    +0.000 HD
ENDROOT
BRANCH   1   5
ATOM      5  C   UNL     1       8.083   9.196  17.852  0.00  0.00    +0.000 C 
BRANCH   5   6
ATOM      6  C   UNL     1       9.148   9.595  18.872  0.00  0.00    +0.000 C 
BRANCH   6   7
ATOM      7  C   UNL     1       8.865  10.971  19.475  0.00  0.00    +0.000 C 
BRANCH   7  10
ATOM      8  N   UNL     1       8.709  13.002  17.460  0.00  0.00    +0.000 NA
ATOM      9  C   UNL     1       9.820  12.828  18.108  0.00  0.00    +0.000 C 
ATOM     10  N   UNL     1       9.912  11.895  19.106  0.00  0.00    +0.000 N 
ATOM     11  H   UNL     1       8.798  13.743  16.762  0.00  0.00    +0.000 HD
ATOM     12  H   UNL     1      10.817  11.748  19.548  0.00  0.00    +0.000 HD
BRANCH   9  13
ATOM     13  C   UNL     1      11.029  13.712  17.802  0.00  0.00    +0.000 C 
ATOM     14 CL   UNL     1      11.710  13.325  16.208  0.00  0.00    +0.000 Cl
ENDBRANCH   9  13
ENDBRANCH   7  10
ENDBRANCH   6   7
ENDBRANCH   5   6
ENDBRANCH   1   5
BRANCH   3  15
ATOM     15  C   UNL     1       6.782   5.854  16.611  0.00  0.00    +0.000 C 
BRANCH  15  16
ATOM     16  C   UNL     1       5.381   5.567  17.087  0.00  0.00    +0.000 A 
ATOM     17  C   UNL     1       4.813   4.303  16.899  0.00  0.00    +0.000 A 
ATOM     18  C   UNL     1       3.496   4.064  17.279  0.00  0.00    +0.000 A 
ATOM     19  C   UNL     1       2.733   5.085  17.851  0.00  0.00    +0.000 A 
ATOM     20  C   UNL     1       3.259   6.375  18.049  0.00  0.00    +0.000 A 
ATOM     21  C   UNL     1       4.598   6.587  17.662  0.00  0.00    +0.000 A 
BRANCH  20  22
ATOM     22  C   UNL     1       2.426   7.470  18.607  0.00  0.00    +0.000 A 
ATOM     23  C   UNL     1       2.043   7.493  19.961  0.00  0.00    +0.000 A 
ATOM     24  C   UNL     1       1.278   8.539  20.488  0.00  0.00    +0.000 A 
ATOM     25  C   UNL     1       0.864   9.585  19.668  0.00  0.00    +0.000 A 
ATOM     26  C   UNL     1       1.221   9.586  18.323  0.00  0.00    +0.000 A 
ATOM     27  C   UNL     1       1.996   8.544  17.803  0.00  0.00    +0.000 A 
ENDBRANCH  20  22
ENDBRANCH  15  16
ENDBRANCH   3  15
TORSDOF 8
ENDMDL
MODEL 4
REMARK VINA RESULT:      -7.4      2.885      6.689
REMARK  Name = 
REMARK  8 active torsions:
REMARK  status: ('A' for Active; 'I' for Inactive)
REMARK    1  A    between atoms: C_2  and  C_3
REMARK    2  A    between atoms: N_5  and  C_6
REMARK    3  A    between atoms: C_6  and  C_7
REMARK    4  A    between atoms: C_7  and  C_8
REMARK    5  A    between atoms: C_8  and  C_9
REMARK    6  A    between atoms: N_11  and  C_12
REMARK    7  A    between atoms: C_12  and  C_13
REMARK    8  A    between atoms: C_17  and  C_18
REMARK                            x       y       z     vdW  Elec       q    Type
REMARK                         _______ _______ _______ _____ _____    ______ ____
ROOT
ATOM      1  C   UNL     1       2.145   5.608  18.919  0.00  0.00    +0.000 C 
ATOM      2  O   UNL     1       1.944   4.974  17.889  0.00  0.00    +0.000 OA
ATOM      3  N   UNL     1       3.009   6.673  18.999  0.00  0.00    +0.000 N 
ATOM      4  H   UNL     1       3.104   7.186  19.865  0.00  0.00    +0.000 HD
ENDROOT
BRANCH   1   5
ATOM      5  C   UNL     1       1.440   5.285  20.222  0.00  0.00    +0.000 C 
BRANCH   5   6
ATOM      6  C   UNL     1       2.401   4.690  21.251  0.00  0.00    +0.000 C 
BRANCH   6   7
ATOM      7  C   UNL     1       2.285   3.167  21.316  0.00  0.00    +0.000 C 
BRANCH   7  10
ATOM      8  N   UNL     1       1.368   1.835  18.951  0.00  0.00    +0.000 NA
ATOM      9  C   UNL     1       2.641   1.899  19.197  0.00  0.00    +0.000 C 
ATOM     10  N   UNL     1       3.112   2.566  20.296  0.00  0.00    +0.000 N 
ATOM     11  H   UNL     1       1.182   1.319  18.090  0.00  0.00    +0.000 HD
ATOM     12  H   UNL     1       4.111   2.541  20.485  0.00  0.00    +0.000 HD
BRANCH   9  13
ATOM     13  C   UNL     1       3.639   1.276  18.220  0.00  0.00    +0.000 C 
ATOM     14 CL   UNL     1       4.255   2.492  17.082  0.00  0.00    +0.000 Cl
ENDBRANCH   9  13
ENDBRANCH   7  10
ENDBRANCH   6   7
ENDBRANCH   5   6
ENDBRANCH   1   5
BRANCH   3  15
ATOM     15  C   UNL     1       3.742   7.143  17.845  0.00  0.00    +0.000 C 
BRANCH  15  16
ATOM     16  C   UNL     1       4.904   6.242  17.511  0.00  0.00    +0.000 A 
ATOM     17  C   UNL     1       5.817   5.867  18.501  0.00  0.00    +0.000 A 
ATOM     18  C   UNL     1       6.925   5.092  18.173  0.00  0.00    +0.000 A 
ATOM     19  C   UNL     1       7.131   4.683  16.853  0.00  0.00    +0.000 A 
ATOM     20  C   UNL     1       6.245   5.046  15.823  0.00  0.00    +0.000 A 
ATOM     21  C   UNL     1       5.127   5.825  16.185  0.00  0.00    +0.000 A 
BRANCH  20  22
ATOM     22  C   UNL     1       6.499   4.655  14.413  0.00  0.00    +0.000 A 
ATOM     23  C   UNL     1       5.730   3.667  13.770  0.00  0.00    +0.000 A 
ATOM     24  C   UNL     1       5.959   3.318  12.434  0.00  0.00    +0.000 A 
ATOM     25  C   UNL     1       6.972   3.940  11.711  0.00  0.00    +0.000 A 
ATOM     26  C   UNL     1       7.753   4.915  12.323  0.00  0.00    +0.000 A 
ATOM     27  C   UNL     1       7.514   5.270  13.655  0.00  0.00    +0.000 A 
ENDBRANCH  20  22
ENDBRANCH  15  16
ENDBRANCH   3  15
TORSDOF 8
ENDMDL
MODEL 5
REMARK VINA RESULT:      -7.3      1.612      2.005
REMARK  Name = 
REMARK  8 active torsions:
REMARK  status: ('A' for Active; 'I' for Inactive)
REMARK    1  A    between atoms: C_2  and  C_3
REMARK    2  A    between atoms: N_5  and  C_6
REMARK    3  A    between atoms: C_6  and  C_7
REMARK    4  A    between atoms: C_7  and  C_8
REMARK    5  A    between atoms: C_8  and  C_9
REMARK    6  A    between atoms: N_11  and  C_12
REMARK    7  A    between atoms: C_12  and  C_13
REMARK    8  A    between atoms: C_17  and  C_18
REMARK                            x       y       z     vdW  Elec       q    Type
REMARK                         _______ _______ _______ _____ _____    ______ ____
ROOT
ATOM      1  C   UNL     1       6.577   4.595  17.789  0.00  0.00    +0.000 C 
ATOM      2  O   UNL     1       7.391   4.845  18.671  0.00  0.00    +0.000 OA
ATOM      3  N   UNL     1       5.398   3.926  18.012  0.00  0.00    +0.000 N 
ATOM      4  H   UNL     1       4.743   3.784  17.256  0.00  0.00    +0.000 HD
ENDROOT
BRANCH   1   5
ATOM      5  C   UNL     1       6.783   5.018  16.349  0.00  0.00    +0.000 C 
BRANCH   5   6
ATOM      6  C   UNL     1       6.435   3.893  15.375  0.00  0.00    +0.000 C 
BRANCH   6   7
ATOM      7  C   UNL     1       6.569   4.344  13.920  0.00  0.00    +0.000 C 
BRANCH   7  10
ATOM      8  N   UNL     1       6.576   2.588  11.656  0.00  0.00    +0.000 NA
ATOM      9  C   UNL     1       5.457   3.108  12.059  0.00  0.00    +0.000 C 
ATOM     10  N   UNL     1       5.415   3.916  13.164  0.00  0.00    +0.000 N 
ATOM     11  H   UNL     1       6.438   1.999  10.833  0.00  0.00    +0.000 HD
ATOM     12  H   UNL     1       4.530   4.351  13.410  0.00  0.00    +0.000 HD
BRANCH   9  13
ATOM     13  C   UNL     1       4.154   2.772  11.333  0.00  0.00    +0.000 C 
ATOM     14 CL   UNL     1       3.608   4.142  10.344  0.00  0.00    +0.000 Cl
ENDBRANCH   9  13
ENDBRANCH   7  10
ENDBRANCH   6   7
ENDBRANCH   5   6
ENDBRANCH   1   5
BRANCH   3  15
ATOM     15  C   UNL     1       5.019   3.477  19.333  0.00  0.00    +0.000 C 
BRANCH  15  16
ATOM     16  C   UNL     1       3.723   4.096  19.788  0.00  0.00    +0.000 A 
ATOM     17  C   UNL     1       2.755   3.322  20.435  0.00  0.00    +0.000 A 
ATOM     18  C   UNL     1       1.533   3.883  20.792  0.00  0.00    +0.000 A 
ATOM     19  C   UNL     1       1.266   5.225  20.506  0.00  0.00    +0.000 A 
ATOM     20  C   UNL     1       2.205   6.039  19.847  0.00  0.00    +0.000 A 
ATOM     21  C   UNL     1       3.437   5.446  19.505  0.00  0.00    +0.000 A 
BRANCH  20  22
ATOM     22  C   UNL     1       1.894   7.448  19.498  0.00  0.00    +0.000 A 
ATOM     23  C   UNL     1       1.390   8.353  20.451  0.00  0.00    +0.000 A 
ATOM     24  C   UNL     1       1.121   9.686  20.122  0.00  0.00    +0.000 A 
ATOM     25  C   UNL     1       1.337  10.145  18.826  0.00  0.00    +0.000 A 
ATOM     26  C   UNL     1       1.827   9.272  17.861  0.00  0.00    +0.000 A 
ATOM     27  C   UNL     1       2.106   7.943  18.196  0.00  0.00    +0.000 A 
ENDBRANCH  20  22
ENDBRANCH  15  16
ENDBRANCH   3  15
TORSDOF 8
ENDMDL
MODEL 6
REMARK VINA RESULT:      -7.2      4.787      6.517
REMARK  Name = 
REMARK  8 active torsions:
REMARK  status: ('A' for Active; 'I' for Inactive)
REMARK    1  A    between atoms: C_2  and  C_3
REMARK    2  A    between atoms: N_5  and  C_6
REMARK    3  A    between atoms: C_6  and  C_7
REMARK    4  A    between atoms: C_7  and  C_8
REMARK    5  A    between atoms: C_8  and  C_9
REMARK    6  A    between atoms: N_11  and  C_12
REMARK    7  A    between atoms: C_12  and  C_13
REMARK    8  A    between atoms: C_17  and  C_18
REMARK                            x       y       z     vdW  Elec       q    Type
REMARK                         _______ _______ _______ _____ _____    ______ ____
ROOT
ATOM      1  C   UNL     1       7.881   8.183  17.874  0.00  0.00    +0.000 C 
ATOM      2  O   UNL     1       8.287   7.332  18.658  0.00  0.00    +0.000 OA
ATOM      3  N   UNL     1       6.901   7.948  16.941  0.00  0.00    +0.000 N 
ATOM      4  H   UNL     1       6.574   8.699  16.348  0.00  0.00    +0.000 HD
ENDROOT
BRANCH   1   5
ATOM      5  C   UNL     1       8.414   9.601  17.867  0.00  0.00    +0.000 C 
BRANCH   5   6
ATOM      6  C   UNL     1       9.296   9.879  19.084  0.00  0.00    +0.000 C 
BRANCH   6   7
ATOM      7  C   UNL     1       9.459  11.378  19.332  0.00  0.00    +0.000 C 
BRANCH   7  10
ATOM      8  N   UNL     1       9.361  13.343  17.249  0.00  0.00    +0.000 NA
ATOM      9  C   UNL     1      10.495  12.793  17.556  0.00  0.00    +0.000 C 
ATOM     10  N   UNL     1      10.582  11.882  18.577  0.00  0.00    +0.000 N 
ATOM     11  H   UNL     1       9.466  14.008  16.482  0.00  0.00    +0.000 HD
ATOM     12  H   UNL     1      11.477  11.430  18.745  0.00  0.00    +0.000 HD
BRANCH   9  13
ATOM     13  C   UNL     1      11.768  13.204  16.816  0.00  0.00    +0.000 C 
ATOM     14 CL   UNL     1      12.327  14.801  17.356  0.00  0.00    +0.000 Cl
ENDBRANCH   9  13
ENDBRANCH   7  10
ENDBRANCH   6   7
ENDBRANCH   5   6
ENDBRANCH   1   5
BRANCH   3  15
ATOM     15  C   UNL     1       6.253   6.661  16.827  0.00  0.00    +0.000 C 
BRANCH  15  16
ATOM     16  C   UNL     1       4.836   6.696  17.338  0.00  0.00    +0.000 A 
ATOM     17  C   UNL     1       4.046   7.836  17.158  0.00  0.00    +0.000 A 
ATOM     18  C   UNL     1       2.761   7.888  17.691  0.00  0.00    +0.000 A 
ATOM     19  C   UNL     1       2.254   6.803  18.410  0.00  0.00    +0.000 A 
ATOM     20  C   UNL     1       3.017   5.641  18.626  0.00  0.00    +0.000 A 
ATOM     21  C   UNL     1       4.311   5.612  18.068  0.00  0.00    +0.000 A 
BRANCH  20  22
ATOM     22  C   UNL     1       2.492   4.513  19.437  0.00  0.00    +0.000 A 
ATOM     23  C   UNL     1       2.094   3.300  18.846  0.00  0.00    +0.000 A 
ATOM     24  C   UNL     1       1.621   2.231  19.618  0.00  0.00    +0.000 A 
ATOM     25  C   UNL     1       1.524   2.356  21.000  0.00  0.00    +0.000 A 
ATOM     26  C   UNL     1       1.904   3.546  21.611  0.00  0.00    +0.000 A 
ATOM     27  C   UNL     1       2.386   4.607  20.838  0.00  0.00    +0.000 A 
ENDBRANCH  20  22
ENDBRANCH  15  16
ENDBRANCH   3  15
TORSDOF 8
ENDMDL
MODEL 7
REMARK VINA RESULT:      -7.2      1.978      3.591
REMARK  Name = 
REMARK  8 active torsions:
REMARK  status: ('A' for Active; 'I' for Inactive)
REMARK    1  A    between atoms: C_2  and  C_3
REMARK    2  A    between atoms: N_5  and  C_6
REMARK    3  A    between atoms: C_6  and  C_7
REMARK    4  A    between atoms: C_7  and  C_8
REMARK    5  A    between atoms: C_8  and  C_9
REMARK    6  A    between atoms: N_11  and  C_12
REMARK    7  A    between atoms: C_12  and  C_13
REMARK    8  A    between atoms: C_17  and  C_18
REMARK                            x       y       z     vdW  Elec       q    Type
REMARK                         _______ _______ _______ _____ _____    ______ ____
ROOT
ATOM      1  C   UNL     1       4.839   4.469  18.776  0.00  0.00    +0.000 C 
ATOM      2  O   UNL     1       5.679   4.665  19.647  0.00  0.00    +0.000 OA
ATOM      3  N   UNL     1       3.551   4.943  18.843  0.00  0.00    +0.000 N 
ATOM      4  H   UNL     1       2.912   4.788  18.076  0.00  0.00    +0.000 HD
ENDROOT
BRANCH   1   5
ATOM      5  C   UNL     1       5.144   3.688  17.514  0.00  0.00    +0.000 C 
BRANCH   5   6
ATOM      6  C   UNL     1       5.259   4.604  16.297  0.00  0.00    +0.000 C 
BRANCH   6   7
ATOM      7  C   UNL     1       6.507   4.292  15.471  0.00  0.00    +0.000 C 
BRANCH   7  10
ATOM      8  N   UNL     1       7.377   4.814  12.791  0.00  0.00    +0.000 NA
ATOM      9  C   UNL     1       6.542   3.847  13.015  0.00  0.00    +0.000 C 
ATOM     10  N   UNL     1       6.141   3.545  14.290  0.00  0.00    +0.000 N 
ATOM     11  H   UNL     1       7.588   4.900  11.796  0.00  0.00    +0.000 HD
ATOM     12  H   UNL     1       5.439   2.819  14.416  0.00  0.00    +0.000 HD
BRANCH   9  13
ATOM     13  C   UNL     1       6.039   2.988  11.854  0.00  0.00    +0.000 C 
ATOM     14 CL   UNL     1       4.320   3.298  11.535  0.00  0.00    +0.000 Cl
ENDBRANCH   9  13
ENDBRANCH   7  10
ENDBRANCH   6   7
ENDBRANCH   5   6
ENDBRANCH   1   5
BRANCH   3  15
ATOM     15  C   UNL     1       3.093   5.739  19.960  0.00  0.00    +0.000 C 
BRANCH  15  16
ATOM     16  C   UNL     1       2.424   7.012  19.507  0.00  0.00    +0.000 A 
ATOM     17  C   UNL     1       2.631   7.500  18.213  0.00  0.00    +0.000 A 
ATOM     18  C   UNL     1       2.065   8.710  17.823  0.00  0.00    +0.000 A 
ATOM     19  C   UNL     1       1.289   9.445  18.722  0.00  0.00    +0.000 A 
ATOM     20  C   UNL     1       1.064   8.999  20.037  0.00  0.00    +0.000 A 
ATOM     21  C   UNL     1       1.642   7.766  20.403  0.00  0.00    +0.000 A 
BRANCH  20  22
ATOM     22  C   UNL     1       0.283   9.811  21.004  0.00  0.00    +0.000 A 
ATOM     23  C   UNL     1      -0.291  11.044  20.642  0.00  0.00    +0.000 A 
ATOM     24  C   UNL     1      -1.046  11.794  21.551  0.00  0.00    +0.000 A 
ATOM     25  C   UNL     1      -1.235  11.334  22.851  0.00  0.00    +0.000 A 
ATOM     26  C   UNL     1      -0.673  10.123  23.240  0.00  0.00    +0.000 A 
ATOM     27  C   UNL     1       0.071   9.370  22.325  0.00  0.00    +0.000 A 
ENDBRANCH  20  22
ENDBRANCH  15  16
ENDBRANCH   3  15
TORSDOF 8
ENDMDL
MODEL 8
REMARK VINA RESULT:      -7.2      2.276      3.859
REMARK  Name = 
REMARK  8 active torsions:
REMARK  status: ('A' for Active; 'I' for Inactive)
REMARK    1  A    between atoms: C_2  and  C_3
REMARK    2  A    between atoms: N_5  and  C_6
REMARK    3  A    between atoms: C_6  and  C_7
REMARK    4  A    between atoms: C_7  and  C_8
REMARK    5  A    between atoms: C_8  and  C_9
REMARK    6  A    between atoms: N_11  and  C_12
REMARK    7  A    between atoms: C_12  and  C_13
REMARK    8  A    between atoms: C_17  and  C_18
REMARK                            x       y       z     vdW  Elec       q    Type
REMARK                         _______ _______ _______ _____ _____    ______ ____
ROOT
ATOM      1  C   UNL     1       2.872   3.855  18.578  0.00  0.00    +0.000 C 
ATOM      2  O   UNL     1       1.685   3.548  18.585  0.00  0.00    +0.000 OA
ATOM      3  N   UNL     1       3.410   4.818  19.396  0.00  0.00    +0.000 N 
ATOM      4  H   UNL     1       4.404   5.002  19.379  0.00  0.00    +0.000 HD
ENDROOT
BRANCH   1   5
ATOM      5  C   UNL     1       3.880   3.185  17.667  0.00  0.00    +0.000 C 
BRANCH   5   6
ATOM      6  C   UNL     1       4.343   4.121  16.552  0.00  0.00    +0.000 C 
BRANCH   6   7
ATOM      7  C   UNL     1       5.814   3.900  16.203  0.00  0.00    +0.000 C 
BRANCH   7  10
ATOM      8  N   UNL     1       7.550   5.324  14.422  0.00  0.00    +0.000 NA
ATOM      9  C   UNL     1       6.765   4.405  13.951  0.00  0.00    +0.000 C 
ATOM     10  N   UNL     1       5.955   3.677  14.783  0.00  0.00    +0.000 N 
ATOM     11  H   UNL     1       8.098   5.761  13.680  0.00  0.00    +0.000 HD
ATOM     12  H   UNL     1       5.311   3.009  14.366  0.00  0.00    +0.000 HD
BRANCH   9  13
ATOM     13  C   UNL     1       6.780   4.081  12.457  0.00  0.00    +0.000 C 
ATOM     14 CL   UNL     1       5.406   3.044  12.019  0.00  0.00    +0.000 Cl
ENDBRANCH   9  13
ENDBRANCH   7  10
ENDBRANCH   6   7
ENDBRANCH   5   6
ENDBRANCH   1   5
BRANCH   3  15
ATOM     15  C   UNL     1       2.602   5.538  20.355  0.00  0.00    +0.000 C 
BRANCH  15  16
ATOM     16  C   UNL     1       2.157   6.876  19.824  0.00  0.00    +0.000 A 
ATOM     17  C   UNL     1       2.532   7.290  18.542  0.00  0.00    +0.000 A 
ATOM     18  C   UNL     1       2.175   8.555  18.083  0.00  0.00    +0.000 A 
ATOM     19  C   UNL     1       1.441   9.418  18.900  0.00  0.00    +0.000 A 
ATOM     20  C   UNL     1       1.053   9.049  20.201  0.00  0.00    +0.000 A 
ATOM     21  C   UNL     1       1.420   7.759  20.637  0.00  0.00    +0.000 A 
BRANCH  20  22
ATOM     22  C   UNL     1       0.320   9.991  21.084  0.00  0.00    +0.000 A 
ATOM     23  C   UNL     1       0.106  11.333  20.719  0.00  0.00    +0.000 A 
ATOM     24  C   UNL     1      -0.606  12.211  21.546  0.00  0.00    +0.000 A 
ATOM     25  C   UNL     1      -1.111  11.770  22.765  0.00  0.00    +0.000 A 
ATOM     26  C   UNL     1      -0.909  10.450  23.155  0.00  0.00    +0.000 A 
ATOM     27  C   UNL     1      -0.207   9.573  22.322  0.00  0.00    +0.000 A 
ENDBRANCH  20  22
ENDBRANCH  15  16
ENDBRANCH   3  15
TORSDOF 8
ENDMDL
MODEL 9
REMARK VINA RESULT:      -7.1      1.556      2.147
REMARK  Name = 
REMARK  8 active torsions:
REMARK  status: ('A' for Active; 'I' for Inactive)
REMARK    1  A    between atoms: C_2  and  C_3
REMARK    2  A    between atoms: N_5  and  C_6
REMARK    3  A    between atoms: C_6  and  C_7
REMARK    4  A    between atoms: C_7  and  C_8
REMARK    5  A    between atoms: C_8  and  C_9
REMARK    6  A    between atoms: N_11  and  C_12
REMARK    7  A    between atoms: C_12  and  C_13
REMARK    8  A    between atoms: C_17  and  C_18
REMARK                            x       y       z     vdW  Elec       q    Type
REMARK                         _______ _______ _______ _____ _____    ______ ____
ROOT
ATOM      1  C   UNL     1       7.097   4.653  17.280  0.00  0.00    +0.000 C 
ATOM      2  O   UNL     1       7.991   5.095  17.993  0.00  0.00    +0.000 OA
ATOM      3  N   UNL     1       5.939   4.100  17.770  0.00  0.00    +0.000 N 
ATOM      4  H   UNL     1       5.215   3.790  17.136  0.00  0.00    +0.000 HD
ENDROOT
BRANCH   1   5
ATOM      5  C   UNL     1       7.173   4.686  15.767  0.00  0.00    +0.000 C 
BRANCH   5   6
ATOM      6  C   UNL     1       5.936   5.343  15.154  0.00  0.00    +0.000 C 
BRANCH   6   7
ATOM      7  C   UNL     1       5.190   4.385  14.226  0.00  0.00    +0.000 C 
BRANCH   7  10
ATOM      8  N   UNL     1       4.660   3.240  11.653  0.00  0.00    +0.000 NA
ATOM      9  C   UNL     1       5.835   3.098  12.187  0.00  0.00    +0.000 C 
ATOM     10  N   UNL     1       6.131   3.670  13.396  0.00  0.00    +0.000 N 
ATOM     11  H   UNL     1       4.604   2.770  10.748  0.00  0.00    +0.000 HD
ATOM     12  H   UNL     1       7.042   3.484  13.807  0.00  0.00    +0.000 HD
BRANCH   9  13
ATOM     13  C   UNL     1       6.927   2.334  11.438  0.00  0.00    +0.000 C 
ATOM     14 CL   UNL     1       6.367   0.711  10.984  0.00  0.00    +0.000 Cl
ENDBRANCH   9  13
ENDBRANCH   7  10
ENDBRANCH   6   7
ENDBRANCH   5   6
ENDBRANCH   1   5
BRANCH   3  15
ATOM     15  C   UNL     1       5.680   4.017  19.190  0.00  0.00    +0.000 C 
BRANCH  15  16
ATOM     16  C   UNL     1       4.265   4.411  19.529  0.00  0.00    +0.000 A 
ATOM     17  C   UNL     1       3.343   3.448  19.949  0.00  0.00    +0.000 A 
ATOM     18  C   UNL     1       2.021   3.806  20.195  0.00  0.00    +0.000 A 
ATOM     19  C   UNL     1       1.608   5.130  20.023  0.00  0.00    +0.000 A 
ATOM     20  C   UNL     1       2.498   6.129  19.590  0.00  0.00    +0.000 A 
ATOM     21  C   UNL     1       3.833   5.740  19.357  0.00  0.00    +0.000 A 
BRANCH  20  22
ATOM     22  C   UNL     1       2.040   7.522  19.357  0.00  0.00    +0.000 A 
ATOM     23  C   UNL     1       2.170   8.144  18.102  0.00  0.00    +0.000 A 
ATOM     24  C   UNL     1       1.716   9.449  17.881  0.00  0.00    +0.000 A 
ATOM     25  C   UNL     1       1.130  10.171  18.917  0.00  0.00    +0.000 A 
ATOM     26  C   UNL     1       0.995   9.585  20.171  0.00  0.00    +0.000 A 
ATOM     27  C   UNL     1       1.439   8.275  20.385  0.00  0.00    +0.000 A 
ENDBRANCH  20  22
ENDBRANCH  15  16
ENDBRANCH   3  15
TORSDOF 8
ENDMDL
