MODEL 1
REMARK VINA RESULT:      -7.4      0.000      0.000
REMARK  Name = 
REMARK  6 active torsions:
REMARK  status: ('A' for Active; 'I' for Inactive)
REMARK    1  A    between atoms: C_1  and  O_2
REMARK    2  A    between atoms: O_2  and  C_3
REMARK    3  A    between atoms: C_6  and  C_7
REMARK    4  A    between atoms: C_12  and  N_13
REMARK    5  A    between atoms: C_15  and  C_16
REMARK    6  A    between atoms: C_18  and  C_19
REMARK                            x       y       z     vdW  Elec       q    Type
REMARK                         _______ _______ _______ _____ _____    ______ ____
ROOT
ATOM      1  C   UNL     1       2.924   7.962  17.801  0.00  0.00    +0.000 A 
ATOM      2  C   UNL     1       2.234   7.245  18.771  0.00  0.00    +0.000 A 
ATOM      3  C   UNL     1       2.551   5.904  19.017  0.00  0.00    +0.000 A 
ATOM      4  C   UNL     1       3.592   5.248  18.328  0.00  0.00    +0.000 A 
ATOM      5  C   UNL     1       4.301   5.996  17.359  0.00  0.00    +0.000 A 
ATOM      6  C   UNL     1       3.955   7.341  17.100  0.00  0.00    +0.000 A 
ENDROOT
BRANCH   5   7
ATOM      7  N   UNL     1       5.331   5.422  16.561  0.00  0.00    +0.000 N 
ATOM      8  N   UNL     1       5.017   4.806  15.401  0.00  0.00    +0.000 NA
ATOM      9  C   UNL     1       6.176   4.447  14.850  0.00  0.00    +0.000 A 
ATOM     10  C   UNL     1       6.200   3.757  13.537  0.00  0.00    +0.000 C 
ATOM     11  C   UNL     1       7.255   4.751  15.696  0.00  0.00    +0.000 A 
ATOM     12  C   UNL     1       6.693   5.331  16.816  0.00  0.00    +0.000 A 
ATOM     13  C   UNL     1       7.349   5.682  18.103  0.00  0.00    +0.000 C 
ENDBRANCH   5   7
BRANCH   4  14
ATOM     14  C   UNL     1       3.892   3.872  18.763  0.00  0.00    +0.000 A 
ATOM     15  N   UNL     1       3.234   2.773  18.430  0.00  0.00    +0.000 NA
ATOM     16  C   UNL     1       3.883   1.783  19.113  0.00  0.00    +0.000 A 
ATOM     17  N   UNL     1       4.870   2.192  19.909  0.00  0.00    +0.000 NA
ATOM     18  N   UNL     1       4.872   3.510  19.654  0.00  0.00    +0.000 N 
ATOM     19  H   UNL     1       5.586   4.097  20.065  0.00  0.00    +0.000 HD
ENDBRANCH   4  14
BRANCH   1  21
ATOM     20  C   UNL     1       1.246   9.596  18.139  0.00  0.00    +0.000 C 
ATOM     21  O   UNL     1       2.536   9.263  17.636  0.00  0.00    +0.000 OA
ENDBRANCH   1  21
TORSDOF 3
ENDMDL
MODEL 2
REMARK VINA RESULT:      -6.9      2.497      5.503
REMARK  Name = 
REMARK  6 active torsions:
REMARK  status: ('A' for Active; 'I' for Inactive)
REMARK    1  A    between atoms: C_1  and  O_2
REMARK    2  A    between atoms: O_2  and  C_3
REMARK    3  A    between atoms: C_6  and  C_7
REMARK    4  A    between atoms: C_12  and  N_13
REMARK    5  A    between atoms: C_15  and  C_16
REMARK    6  A    between atoms: C_18  and  C_19
REMARK                            x       y       z     vdW  Elec       q    Type
REMARK                         _______ _______ _______ _____ _____    ______ ____
ROOT
ATOM      1  C   UNL     1       5.675   4.019  13.532  0.00  0.00    +0.000 A 
ATOM      2  C   UNL     1       6.968   4.495  13.713  0.00  0.00    +0.000 A 
ATOM      3  C   UNL     1       7.388   4.939  14.972  0.00  0.00    +0.000 A 
ATOM      4  C   UNL     1       6.542   4.885  16.099  0.00  0.00    +0.000 A 
ATOM      5  C   UNL     1       5.235   4.378  15.906  0.00  0.00    +0.000 A 
ATOM      6  C   UNL     1       4.814   3.959  14.625  0.00  0.00    +0.000 A 
ENDROOT
BRANCH   5   7
ATOM      7  N   UNL     1       4.276   4.333  16.957  0.00  0.00    +0.000 N 
ATOM      8  N   UNL     1       3.769   3.146  17.353  0.00  0.00    +0.000 NA
ATOM      9  C   UNL     1       2.972   3.413  18.387  0.00  0.00    +0.000 A 
ATOM     10  C   UNL     1       2.261   2.317  19.088  0.00  0.00    +0.000 C 
ATOM     11  C   UNL     1       2.887   4.796  18.618  0.00  0.00    +0.000 A 
ATOM     12  C   UNL     1       3.691   5.380  17.658  0.00  0.00    +0.000 A 
ATOM     13  C   UNL     1       3.831   6.820  17.321  0.00  0.00    +0.000 C 
ENDBRANCH   5   7
BRANCH   4  14
ATOM     14  C   UNL     1       7.147   5.280  17.384  0.00  0.00    +0.000 A 
ATOM     15  N   UNL     1       7.452   6.507  17.775  0.00  0.00    +0.000 NA
ATOM     16  C   UNL     1       8.008   6.330  19.010  0.00  0.00    +0.000 A 
ATOM     17  N   UNL     1       8.136   5.062  19.401  0.00  0.00    +0.000 NA
ATOM     18  N   UNL     1       7.565   4.420  18.370  0.00  0.00    +0.000 N 
ATOM     19  H   UNL     1       7.439   3.417  18.414  0.00  0.00    +0.000 HD
ENDBRANCH   4  14
BRANCH   1  21
ATOM     20  C   UNL     1       5.960   2.392  11.839  0.00  0.00    +0.000 C 
ATOM     21  O   UNL     1       5.364   3.613  12.265  0.00  0.00    +0.000 OA
ENDBRANCH   1  21
TORSDOF 3
ENDMDL
MODEL 3
REMARK VINA RESULT:      -6.8      2.986      5.726
REMARK  Name = 
REMARK  6 active torsions:
REMARK  status: ('A' for Active; 'I' for Inactive)
REMARK    1  A    between atoms: C_1  and  O_2
REMARK    2  A    between atoms: O_2  and  C_3
REMARK    3  A    between atoms: C_6  and  C_7
REMARK    4  A    between atoms: C_12  and  N_13
REMARK    5  A    between atoms: C_15  and  C_16
REMARK    6  A    between atoms: C_18  and  C_19
REMARK                            x       y       z     vdW  Elec       q    Type
REMARK                         _______ _______ _______ _____ _____    ______ ____
ROOT
ATOM      1  C   UNL     1       5.648   4.928  16.504  0.00  0.00    +0.000 A 
ATOM      2  C   UNL     1       5.591   6.309  16.366  0.00  0.00    +0.000 A 
ATOM      3  C   UNL     1       4.608   7.046  17.037  0.00  0.00    +0.000 A 
ATOM      4  C   UNL     1       3.676   6.431  17.897  0.00  0.00    +0.000 A 
ATOM      5  C   UNL     1       3.759   5.026  18.047  0.00  0.00    +0.000 A 
ATOM      6  C   UNL     1       4.737   4.290  17.343  0.00  0.00    +0.000 A 
ENDROOT
BRANCH   5   7
ATOM      7  N   UNL     1       2.834   4.292  18.841  0.00  0.00    +0.000 N 
ATOM      8  N   UNL     1       3.208   3.833  20.055  0.00  0.00    +0.000 NA
ATOM      9  C   UNL     1       2.124   3.264  20.582  0.00  0.00    +0.000 A 
ATOM     10  C   UNL     1       2.175   2.669  21.940  0.00  0.00    +0.000 C 
ATOM     11  C   UNL     1       1.053   3.273  19.673  0.00  0.00    +0.000 A 
ATOM     12  C   UNL     1       1.539   3.890  18.537  0.00  0.00    +0.000 A 
ATOM     13  C   UNL     1       0.897   4.009  17.203  0.00  0.00    +0.000 C 
ENDBRANCH   5   7
BRANCH   4  14
ATOM     14  C   UNL     1       2.768   7.336  18.625  0.00  0.00    +0.000 A 
ATOM     15  N   UNL     1       2.224   8.452  18.168  0.00  0.00    +0.000 NA
ATOM     16  C   UNL     1       1.504   8.925  19.228  0.00  0.00    +0.000 A 
ATOM     17  N   UNL     1       1.608   8.214  20.350  0.00  0.00    +0.000 NA
ATOM     18  N   UNL     1       2.392   7.205  19.940  0.00  0.00    +0.000 N 
ATOM     19  H   UNL     1       2.590   6.438  20.569  0.00  0.00    +0.000 HD
ENDBRANCH   4  14
BRANCH   1  21
ATOM     20  C   UNL     1       6.347   3.990  14.448  0.00  0.00    +0.000 C 
ATOM     21  O   UNL     1       6.642   4.302  15.806  0.00  0.00    +0.000 OA
ENDBRANCH   1  21
TORSDOF 3
ENDMDL
MODEL 4
REMARK VINA RESULT:      -6.7      1.406      1.630
REMARK  Name = 
REMARK  6 active torsions:
REMARK  status: ('A' for Active; 'I' for Inactive)
REMARK    1  A    between atoms: C_1  and  O_2
REMARK    2  A    between atoms: O_2  and  C_3
REMARK    3  A    between atoms: C_6  and  C_7
REMARK    4  A    between atoms: C_12  and  N_13
REMARK    5  A    between atoms: C_15  and  C_16
REMARK    6  A    between atoms: C_18  and  C_19
REMARK                            x       y       z     vdW  Elec       q    Type
REMARK                         _______ _______ _______ _____ _____    ______ ____
ROOT
ATOM      1  C   UNL     1       2.375   6.904  19.700  0.00  0.00    +0.000 A 
ATOM      2  C   UNL     1       1.846   5.845  20.428  0.00  0.00    +0.000 A 
ATOM      3  C   UNL     1       2.330   4.546  20.238  0.00  0.00    +0.000 A 
ATOM      4  C   UNL     1       3.384   4.269  19.343  0.00  0.00    +0.000 A 
ATOM      5  C   UNL     1       3.929   5.360  18.624  0.00  0.00    +0.000 A 
ATOM      6  C   UNL     1       3.413   6.662  18.804  0.00  0.00    +0.000 A 
ENDROOT
BRANCH   5   7
ATOM      7  N   UNL     1       4.953   5.191  17.651  0.00  0.00    +0.000 N 
ATOM      8  N   UNL     1       4.640   4.737  16.418  0.00  0.00    +0.000 NA
ATOM      9  C   UNL     1       5.775   4.760  15.719  0.00  0.00    +0.000 A 
ATOM     10  C   UNL     1       5.787   4.341  14.297  0.00  0.00    +0.000 C 
ATOM     11  C   UNL     1       6.858   5.149  16.524  0.00  0.00    +0.000 A 
ATOM     12  C   UNL     1       6.325   5.373  17.778  0.00  0.00    +0.000 A 
ATOM     13  C   UNL     1       7.040   5.630  19.055  0.00  0.00    +0.000 C 
ENDBRANCH   5   7
BRANCH   4  14
ATOM     14  C   UNL     1       3.870   2.877  19.322  0.00  0.00    +0.000 A 
ATOM     15  N   UNL     1       3.388   1.879  18.600  0.00  0.00    +0.000 NA
ATOM     16  C   UNL     1       4.156   0.809  18.965  0.00  0.00    +0.000 A 
ATOM     17  N   UNL     1       5.052   1.051  19.922  0.00  0.00    +0.000 NA
ATOM     18  N   UNL     1       4.868   2.366  20.115  0.00  0.00    +0.000 N 
ATOM     19  H   UNL     1       5.478   2.868  20.748  0.00  0.00    +0.000 HD
ENDBRANCH   4  14
BRANCH   1  21
ATOM     20  C   UNL     1       1.111   8.249  21.181  0.00  0.00    +0.000 C 
ATOM     21  O   UNL     1       1.831   8.131  19.957  0.00  0.00    +0.000 OA
ENDBRANCH   1  21
TORSDOF 3
ENDMDL
MODEL 5
REMARK VINA RESULT:      -6.7      2.442      5.488
REMARK  Name = 
REMARK  6 active torsions:
REMARK  status: ('A' for Active; 'I' for Inactive)
REMARK    1  A    between atoms: C_1  and  O_2
REMARK    2  A    between atoms: O_2  and  C_3
REMARK    3  A    between atoms: C_6  and  C_7
REMARK    4  A    between atoms: C_12  and  N_13
REMARK    5  A    between atoms: C_15  and  C_16
REMARK    6  A    between atoms: C_18  and  C_19
REMARK                            x       y       z     vdW  Elec       q    Type
REMARK                         _______ _______ _______ _____ _____    ______ ____
ROOT
ATOM      1  C   UNL     1       5.542   4.119  13.933  0.00  0.00    +0.000 A 
ATOM      2  C   UNL     1       6.892   4.319  14.198  0.00  0.00    +0.000 A 
ATOM      3  C   UNL     1       7.306   4.775  15.454  0.00  0.00    +0.000 A 
ATOM      4  C   UNL     1       6.388   5.009  16.499  0.00  0.00    +0.000 A 
ATOM      5  C   UNL     1       5.019   4.781  16.224  0.00  0.00    +0.000 A 
ATOM      6  C   UNL     1       4.611   4.348  14.943  0.00  0.00    +0.000 A 
ENDROOT
BRANCH   5   7
ATOM      7  N   UNL     1       3.999   5.041  17.181  0.00  0.00    +0.000 N 
ATOM      8  N   UNL     1       3.817   6.297  17.645  0.00  0.00    +0.000 NA
ATOM      9  C   UNL     1       2.758   6.241  18.452  0.00  0.00    +0.000 A 
ATOM     10  C   UNL     1       2.261   7.467  19.123  0.00  0.00    +0.000 C 
ATOM     11  C   UNL     1       2.294   4.922  18.589  0.00  0.00    +0.000 A 
ATOM     12  C   UNL     1       3.133   4.153  17.807  0.00  0.00    +0.000 A 
ATOM     13  C   UNL     1       3.216   2.672  17.721  0.00  0.00    +0.000 C 
ENDBRANCH   5   7
BRANCH   4  14
ATOM     14  C   UNL     1       6.968   5.380  17.803  0.00  0.00    +0.000 A 
ATOM     15  N   UNL     1       7.930   6.262  18.022  0.00  0.00    +0.000 NA
ATOM     16  C   UNL     1       8.121   6.211  19.374  0.00  0.00    +0.000 A 
ATOM     17  N   UNL     1       7.387   5.304  20.019  0.00  0.00    +0.000 NA
ATOM     18  N   UNL     1       6.652   4.809  19.011  0.00  0.00    +0.000 N 
ATOM     19  H   UNL     1       5.923   4.135  19.208  0.00  0.00    +0.000 HD
ENDBRANCH   4  14
BRANCH   1  21
ATOM     20  C   UNL     1       6.300   3.025  11.977  0.00  0.00    +0.000 C 
ATOM     21  O   UNL     1       5.243   3.676  12.675  0.00  0.00    +0.000 OA
ENDBRANCH   1  21
TORSDOF 3
ENDMDL
MODEL 6
REMARK VINA RESULT:      -6.6      0.801      1.090
REMARK  Name = 
REMARK  6 active torsions:
REMARK  status: ('A' for Active; 'I' for Inactive)
REMARK    1  A    between atoms: C_1  and  O_2
REMARK    2  A    between atoms: O_2  and  C_3
REMARK    3  A    between atoms: C_6  and  C_7
REMARK    4  A    between atoms: C_12  and  N_13
REMARK    5  A    between atoms: C_15  and  C_16
REMARK    6  A    between atoms: C_18  and  C_19
REMARK                            x       y       z     vdW  Elec       q    Type
REMARK                         _______ _______ _______ _____ _____    ______ ____
ROOT
ATOM      1  C   UNL     1       2.652   7.437  18.698  0.00  0.00    +0.000 A 
ATOM      2  C   UNL     1       1.982   6.543  19.524  0.00  0.00    +0.000 A 
ATOM      3  C   UNL     1       2.327   5.187  19.524  0.00  0.00    +0.000 A 
ATOM      4  C   UNL     1       3.377   4.687  18.727  0.00  0.00    +0.000 A 
ATOM      5  C   UNL     1       4.066   5.612  17.906  0.00  0.00    +0.000 A 
ATOM      6  C   UNL     1       3.691   6.973  17.894  0.00  0.00    +0.000 A 
ENDROOT
BRANCH   5   7
ATOM      7  N   UNL     1       5.102   5.212  17.017  0.00  0.00    +0.000 N 
ATOM      8  N   UNL     1       4.788   4.644  15.832  0.00  0.00    +0.000 NA
ATOM      9  C   UNL     1       5.945   4.455  15.197  0.00  0.00    +0.000 A 
ATOM     10  C   UNL     1       5.965   3.862  13.838  0.00  0.00    +0.000 C 
ATOM     11  C   UNL     1       7.033   4.822  16.006  0.00  0.00    +0.000 A 
ATOM     12  C   UNL     1       6.480   5.258  17.193  0.00  0.00    +0.000 A 
ATOM     13  C   UNL     1       7.169   5.594  18.466  0.00  0.00    +0.000 C 
ENDBRANCH   5   7
BRANCH   4  14
ATOM     14  C   UNL     1       3.707   3.261  18.905  0.00  0.00    +0.000 A 
ATOM     15  N   UNL     1       4.368   2.720  19.916  0.00  0.00    +0.000 NA
ATOM     16  C   UNL     1       4.435   1.394  19.591  0.00  0.00    +0.000 A 
ATOM     17  N   UNL     1       3.916   1.070  18.407  0.00  0.00    +0.000 NA
ATOM     18  N   UNL     1       3.443   2.260  18.003  0.00  0.00    +0.000 N 
ATOM     19  H   UNL     1       2.910   2.321  17.145  0.00  0.00    +0.000 HD
ENDBRANCH   4  14
BRANCH   1  21
ATOM     20  C   UNL     1       1.418   9.191  17.697  0.00  0.00    +0.000 C 
ATOM     21  O   UNL     1       2.238   8.738  18.771  0.00  0.00    +0.000 OA
ENDBRANCH   1  21
TORSDOF 3
ENDMDL
MODEL 7
REMARK VINA RESULT:      -6.4      2.810      3.946
REMARK  Name = 
REMARK  6 active torsions:
REMARK  status: ('A' for Active; 'I' for Inactive)
REMARK    1  A    between atoms: C_1  and  O_2
REMARK    2  A    between atoms: O_2  and  C_3
REMARK    3  A    between atoms: C_6  and  C_7
REMARK    4  A    between atoms: C_12  and  N_13
REMARK    5  A    between atoms: C_15  and  C_16
REMARK    6  A    between atoms: C_18  and  C_19
REMARK                            x       y       z     vdW  Elec       q    Type
REMARK                         _______ _______ _______ _____ _____    ______ ____
ROOT
ATOM      1  C   UNL     1       2.508   2.558  18.418  0.00  0.00    +0.000 A 
ATOM      2  C   UNL     1       3.189   2.561  19.629  0.00  0.00    +0.000 A 
ATOM      3  C   UNL     1       4.458   3.141  19.725  0.00  0.00    +0.000 A 
ATOM      4  C   UNL     1       5.072   3.772  18.623  0.00  0.00    +0.000 A 
ATOM      5  C   UNL     1       4.358   3.782  17.401  0.00  0.00    +0.000 A 
ATOM      6  C   UNL     1       3.090   3.169  17.310  0.00  0.00    +0.000 A 
ENDROOT
BRANCH   5   7
ATOM      7  N   UNL     1       4.904   4.337  16.209  0.00  0.00    +0.000 N 
ATOM      8  N   UNL     1       5.421   3.521  15.264  0.00  0.00    +0.000 NA
ATOM      9  C   UNL     1       5.774   4.311  14.251  0.00  0.00    +0.000 A 
ATOM     10  C   UNL     1       6.364   3.731  13.020  0.00  0.00    +0.000 C 
ATOM     11  C   UNL     1       5.568   5.664  14.566  0.00  0.00    +0.000 A 
ATOM     12  C   UNL     1       5.056   5.670  15.849  0.00  0.00    +0.000 A 
ATOM     13  C   UNL     1       4.823   6.831  16.746  0.00  0.00    +0.000 C 
ENDBRANCH   5   7
BRANCH   4  14
ATOM     14  C   UNL     1       6.359   4.439  18.890  0.00  0.00    +0.000 A 
ATOM     15  N   UNL     1       6.595   5.379  19.791  0.00  0.00    +0.000 NA
ATOM     16  C   UNL     1       7.917   5.678  19.614  0.00  0.00    +0.000 A 
ATOM     17  N   UNL     1       8.518   5.035  18.614  0.00  0.00    +0.000 NA
ATOM     18  N   UNL     1       7.523   4.242  18.187  0.00  0.00    +0.000 N 
ATOM     19  H   UNL     1       7.704   3.559  17.463  0.00  0.00    +0.000 HD
ENDBRANCH   4  14
BRANCH   1  21
ATOM     20  C   UNL     1       0.255   2.663  19.135  0.00  0.00    +0.000 C 
ATOM     21  O   UNL     1       1.277   1.964  18.430  0.00  0.00    +0.000 OA
ENDBRANCH   1  21
TORSDOF 3
ENDMDL
MODEL 8
REMARK VINA RESULT:      -6.3      2.658      5.689
REMARK  Name = 
REMARK  6 active torsions:
REMARK  status: ('A' for Active; 'I' for Inactive)
REMARK    1  A    between atoms: C_1  and  O_2
REMARK    2  A    between atoms: O_2  and  C_3
REMARK    3  A    between atoms: C_6  and  C_7
REMARK    4  A    between atoms: C_12  and  N_13
REMARK    5  A    between atoms: C_15  and  C_16
REMARK    6  A    between atoms: C_18  and  C_19
REMARK                            x       y       z     vdW  Elec       q    Type
REMARK                         _______ _______ _______ _____ _____    ______ ____
ROOT
ATOM      1  C   UNL     1       5.842   3.839  13.582  0.00  0.00    +0.000 A 
ATOM      2  C   UNL     1       7.131   4.352  13.651  0.00  0.00    +0.000 A 
ATOM      3  C   UNL     1       7.519   5.143  14.739  0.00  0.00    +0.000 A 
ATOM      4  C   UNL     1       6.644   5.414  15.811  0.00  0.00    +0.000 A 
ATOM      5  C   UNL     1       5.341   4.866  15.739  0.00  0.00    +0.000 A 
ATOM      6  C   UNL     1       4.952   4.093  14.624  0.00  0.00    +0.000 A 
ENDROOT
BRANCH   5   7
ATOM      7  N   UNL     1       4.354   5.122  16.733  0.00  0.00    +0.000 N 
ATOM      8  N   UNL     1       4.049   6.396  17.063  0.00  0.00    +0.000 NA
ATOM      9  C   UNL     1       3.054   6.317  17.946  0.00  0.00    +0.000 A 
ATOM     10  C   UNL     1       2.452   7.551  18.509  0.00  0.00    +0.000 C 
ATOM     11  C   UNL     1       2.762   4.981  18.264  0.00  0.00    +0.000 A 
ATOM     12  C   UNL     1       3.640   4.223  17.515  0.00  0.00    +0.000 A 
ATOM     13  C   UNL     1       3.897   2.761  17.591  0.00  0.00    +0.000 C 
ENDBRANCH   5   7
BRANCH   4  14
ATOM     14  C   UNL     1       7.215   6.166  16.943  0.00  0.00    +0.000 A 
ATOM     15  N   UNL     1       7.556   7.445  16.955  0.00  0.00    +0.000 NA
ATOM     16  C   UNL     1       8.058   7.638  18.211  0.00  0.00    +0.000 A 
ATOM     17  N   UNL     1       8.118   6.548  18.975  0.00  0.00    +0.000 NA
ATOM     18  N   UNL     1       7.561   5.637  18.162  0.00  0.00    +0.000 N 
ATOM     19  H   UNL     1       7.392   4.700  18.503  0.00  0.00    +0.000 HD
ENDBRANCH   4  14
BRANCH   1  21
ATOM     20  C   UNL     1       4.412   3.471  11.733  0.00  0.00    +0.000 C 
ATOM     21  O   UNL     1       5.562   3.082  12.479  0.00  0.00    +0.000 OA
ENDBRANCH   1  21
TORSDOF 3
ENDMDL
MODEL 9
REMARK VINA RESULT:      -6.3      2.191      3.129
REMARK  Name = 
REMARK  6 active torsions:
REMARK  status: ('A' for Active; 'I' for Inactive)
REMARK    1  A    between atoms: C_1  and  O_2
REMARK    2  A    between atoms: O_2  and  C_3
REMARK    3  A    between atoms: C_6  and  C_7
REMARK    4  A    between atoms: C_12  and  N_13
REMARK    5  A    between atoms: C_15  and  C_16
REMARK    6  A    between atoms: C_18  and  C_19
REMARK                            x       y       z     vdW  Elec       q    Type
REMARK                         _______ _______ _______ _____ _____    ______ ____
ROOT
ATOM      1  C   UNL     1       1.788   8.773  19.251  0.00  0.00    +0.000 A 
ATOM      2  C   UNL     1       1.096   8.407  20.399  0.00  0.00    +0.000 A 
ATOM      3  C   UNL     1       1.109   7.078  20.839  0.00  0.00    +0.000 A 
ATOM      4  C   UNL     1       1.845   6.081  20.167  0.00  0.00    +0.000 A 
ATOM      5  C   UNL     1       2.563   6.471  19.011  0.00  0.00    +0.000 A 
ATOM      6  C   UNL     1       2.520   7.809  18.562  0.00  0.00    +0.000 A 
ENDROOT
BRANCH   5   7
ATOM      7  N   UNL     1       3.292   5.539  18.220  0.00  0.00    +0.000 N 
ATOM      8  N   UNL     1       4.616   5.718  18.019  0.00  0.00    +0.000 NA
ATOM      9  C   UNL     1       5.027   4.662  17.319  0.00  0.00    +0.000 A 
ATOM     10  C   UNL     1       6.454   4.523  16.941  0.00  0.00    +0.000 C 
ATOM     11  C   UNL     1       3.950   3.825  16.982  0.00  0.00    +0.000 A 
ATOM     12  C   UNL     1       2.832   4.428  17.524  0.00  0.00    +0.000 A 
ATOM     13  C   UNL     1       1.402   4.075  17.322  0.00  0.00    +0.000 C 
ENDBRANCH   5   7
BRANCH   4  14
ATOM     14  C   UNL     1       1.862   4.749  20.798  0.00  0.00    +0.000 A 
ATOM     15  N   UNL     1       0.975   3.780  20.633  0.00  0.00    +0.000 NA
ATOM     16  C   UNL     1       1.422   2.783  21.453  0.00  0.00    +0.000 A 
ATOM     17  N   UNL     1       2.500   3.080  22.177  0.00  0.00    +0.000 NA
ATOM     18  N   UNL     1       2.772   4.317  21.731  0.00  0.00    +0.000 N 
ATOM     19  H   UNL     1       3.608   4.791  22.050  0.00  0.00    +0.000 HD
ENDBRANCH   4  14
BRANCH   1  21
ATOM     20  C   UNL     1       0.474  10.740  19.198  0.00  0.00    +0.000 C 
ATOM     21  O   UNL     1       1.709  10.093  18.906  0.00  0.00    +0.000 OA
ENDBRANCH   1  21
TORSDOF 3
ENDMDL
