MODEL 1
REMARK VINA RESULT:      -6.8      0.000      0.000
REMARK  Name = 
REMARK  3 active torsions:
REMARK  status: ('A' for Active; 'I' for Inactive)
REMARK    1  A    between atoms: C_1  and  O_2
REMARK    2  A    between atoms: O_2  and  C_3
REMARK    3  A    between atoms: C_8  and  C_9
REMARK                            x       y       z     vdW  Elec       q    Type
REMARK                         _______ _______ _______ _____ _____    ______ ____
ROOT
ATOM      1  C   UNL     1       3.535   3.425  17.848  0.00  0.00    +0.000 C 
ATOM      2  O   UNL     1       2.834   3.233  16.858  0.00  0.00    +0.000 OA
ATOM      3  N   UNL     1       4.850   3.847  17.820  0.00  0.00    +0.000 N 
ATOM      4  C   UNL     1       5.556   4.165  16.645  0.00  0.00    +0.000 A 
ATOM      5  C   UNL     1       6.882   4.570  16.760  0.00  0.00    +0.000 A 
ATOM      6  C   UNL     1       7.591   4.909  15.604  0.00  0.00    +0.000 A 
ATOM      7  C   UNL     1       6.963   4.831  14.369  0.00  0.00    +0.000 A 
ATOM      8  C   UNL     1       5.647   4.415  14.341  0.00  0.00    +0.000 A 
ATOM      9  N   UNL     1       4.948   4.091  15.448  0.00  0.00    +0.000 NA
ATOM     10  H   UNL     1       5.330   3.937  18.706  0.00  0.00    +0.000 HD
ENDROOT
BRANCH   1  16
ATOM     11  C   UNL     1       3.543   2.640  20.326  0.00  0.00    +0.000 A 
ATOM     12  C   UNL     1       2.801   2.476  21.511  0.00  0.00    +0.000 A 
ATOM     13  C   UNL     1       1.457   2.854  21.586  0.00  0.00    +0.000 A 
ATOM     14  C   UNL     1       0.828   3.396  20.477  0.00  0.00    +0.000 A 
ATOM     15  C   UNL     1       1.546   3.551  19.293  0.00  0.00    +0.000 A 
ATOM     16  C   UNL     1       2.903   3.177  19.191  0.00  0.00    +0.000 A 
BRANCH  11  18
ATOM     17  C   UNL     1       5.268   1.151  21.022  0.00  0.00    +0.000 C 
ATOM     18  O   UNL     1       4.862   2.264  20.222  0.00  0.00    +0.000 OA
ENDBRANCH  11  18
ENDBRANCH   1  16
TORSDOF 2
ENDMDL
MODEL 2
REMARK VINA RESULT:      -6.8      1.704      6.240
REMARK  Name = 
REMARK  3 active torsions:
REMARK  status: ('A' for Active; 'I' for Inactive)
REMARK    1  A    between atoms: C_1  and  O_2
REMARK    2  A    between atoms: O_2  and  C_3
REMARK    3  A    between atoms: C_8  and  C_9
REMARK                            x       y       z     vdW  Elec       q    Type
REMARK                         _______ _______ _______ _____ _____    ______ ____
ROOT
ATOM      1  C   UNL     1       5.011   3.932  17.954  0.00  0.00    +0.000 C 
ATOM      2  O   UNL     1       5.696   3.808  18.965  0.00  0.00    +0.000 OA
ATOM      3  N   UNL     1       3.640   3.770  17.897  0.00  0.00    +0.000 N 
ATOM      4  C   UNL     1       2.829   3.489  19.012  0.00  0.00    +0.000 A 
ATOM      5  C   UNL     1       1.460   3.342  18.813  0.00  0.00    +0.000 A 
ATOM      6  C   UNL     1       0.637   3.082  19.913  0.00  0.00    +0.000 A 
ATOM      7  C   UNL     1       1.200   2.972  21.177  0.00  0.00    +0.000 A 
ATOM      8  C   UNL     1       2.567   3.126  21.288  0.00  0.00    +0.000 A 
ATOM      9  N   UNL     1       3.373   3.383  20.237  0.00  0.00    +0.000 NA
ATOM     10  H   UNL     1       3.195   3.868  16.994  0.00  0.00    +0.000 HD
ENDROOT
BRANCH   1  16
ATOM     11  C   UNL     1       7.007   4.875  16.581  0.00  0.00    +0.000 A 
ATOM     12  C   UNL     1       7.537   5.138  15.304  0.00  0.00    +0.000 A 
ATOM     13  C   UNL     1       6.834   4.806  14.142  0.00  0.00    +0.000 A 
ATOM     14  C   UNL     1       5.586   4.213  14.235  0.00  0.00    +0.000 A 
ATOM     15  C   UNL     1       5.041   3.959  15.492  0.00  0.00    +0.000 A 
ATOM     16  C   UNL     1       5.731   4.286  16.680  0.00  0.00    +0.000 A 
BRANCH  11  18
ATOM     17  C   UNL     1       7.623   6.578  18.130  0.00  0.00    +0.000 C 
ATOM     18  O   UNL     1       7.672   5.204  17.739  0.00  0.00    +0.000 OA
ENDBRANCH  11  18
ENDBRANCH   1  16
TORSDOF 2
ENDMDL
MODEL 3
REMARK VINA RESULT:      -6.7      1.564      2.767
REMARK  Name = 
REMARK  3 active torsions:
REMARK  status: ('A' for Active; 'I' for Inactive)
REMARK    1  A    between atoms: C_1  and  O_2
REMARK    2  A    between atoms: O_2  and  C_3
REMARK    3  A    between atoms: C_8  and  C_9
REMARK                            x       y       z     vdW  Elec       q    Type
REMARK                         _______ _______ _______ _____ _____    ______ ____
ROOT
ATOM      1  C   UNL     1       4.563   4.121  18.819  0.00  0.00    +0.000 C 
ATOM      2  O   UNL     1       5.655   4.316  19.347  0.00  0.00    +0.000 OA
ATOM      3  N   UNL     1       4.322   4.149  17.459  0.00  0.00    +0.000 N 
ATOM      4  C   UNL     1       5.315   4.355  16.483  0.00  0.00    +0.000 A 
ATOM      5  C   UNL     1       4.933   4.368  15.145  0.00  0.00    +0.000 A 
ATOM      6  C   UNL     1       5.909   4.550  14.162  0.00  0.00    +0.000 A 
ATOM      7  C   UNL     1       7.234   4.720  14.536  0.00  0.00    +0.000 A 
ATOM      8  C   UNL     1       7.529   4.700  15.885  0.00  0.00    +0.000 A 
ATOM      9  N   UNL     1       6.599   4.518  16.845  0.00  0.00    +0.000 NA
ATOM     10  H   UNL     1       3.370   4.005  17.151  0.00  0.00    +0.000 HD
ENDROOT
BRANCH   1  16
ATOM     11  C   UNL     1       2.197   4.560  19.802  0.00  0.00    +0.000 A 
ATOM     12  C   UNL     1       1.209   4.151  20.718  0.00  0.00    +0.000 A 
ATOM     13  C   UNL     1       1.394   3.035  21.539  0.00  0.00    +0.000 A 
ATOM     14  C   UNL     1       2.573   2.310  21.464  0.00  0.00    +0.000 A 
ATOM     15  C   UNL     1       3.566   2.710  20.572  0.00  0.00    +0.000 A 
ATOM     16  C   UNL     1       3.403   3.834  19.734  0.00  0.00    +0.000 A 
BRANCH  11  18
ATOM     17  C   UNL     1       2.366   6.926  19.580  0.00  0.00    +0.000 C 
ATOM     18  O   UNL     1       2.045   5.662  18.995  0.00  0.00    +0.000 OA
ENDBRANCH  11  18
ENDBRANCH   1  16
TORSDOF 2
ENDMDL
MODEL 4
REMARK VINA RESULT:      -6.7      1.637      6.070
REMARK  Name = 
REMARK  3 active torsions:
REMARK  status: ('A' for Active; 'I' for Inactive)
REMARK    1  A    between atoms: C_1  and  O_2
REMARK    2  A    between atoms: O_2  and  C_3
REMARK    3  A    between atoms: C_8  and  C_9
REMARK                            x       y       z     vdW  Elec       q    Type
REMARK                         _______ _______ _______ _____ _____    ______ ____
ROOT
ATOM      1  C   UNL     1       4.159   4.608  17.665  0.00  0.00    +0.000 C 
ATOM      2  O   UNL     1       3.249   5.419  17.517  0.00  0.00    +0.000 OA
ATOM      3  N   UNL     1       4.236   3.676  18.682  0.00  0.00    +0.000 N 
ATOM      4  C   UNL     1       3.247   3.494  19.666  0.00  0.00    +0.000 A 
ATOM      5  C   UNL     1       3.455   2.523  20.641  0.00  0.00    +0.000 A 
ATOM      6  C   UNL     1       2.473   2.315  21.614  0.00  0.00    +0.000 A 
ATOM      7  C   UNL     1       1.316   3.082  21.592  0.00  0.00    +0.000 A 
ATOM      8  C   UNL     1       1.190   4.028  20.595  0.00  0.00    +0.000 A 
ATOM      9  N   UNL     1       2.125   4.235  19.646  0.00  0.00    +0.000 NA
ATOM     10  H   UNL     1       5.056   3.084  18.712  0.00  0.00    +0.000 HD
ENDROOT
BRANCH   1  16
ATOM     11  C   UNL     1       6.646   4.813  16.935  0.00  0.00    +0.000 A 
ATOM     12  C   UNL     1       7.561   4.817  15.866  0.00  0.00    +0.000 A 
ATOM     13  C   UNL     1       7.140   4.633  14.545  0.00  0.00    +0.000 A 
ATOM     14  C   UNL     1       5.795   4.450  14.268  0.00  0.00    +0.000 A 
ATOM     15  C   UNL     1       4.875   4.457  15.314  0.00  0.00    +0.000 A 
ATOM     16  C   UNL     1       5.275   4.641  16.655  0.00  0.00    +0.000 A 
BRANCH  11  18
ATOM     17  C   UNL     1       7.652   6.257  18.540  0.00  0.00    +0.000 C 
ATOM     18  O   UNL     1       7.033   5.005  18.240  0.00  0.00    +0.000 OA
ENDBRANCH  11  18
ENDBRANCH   1  16
TORSDOF 2
ENDMDL
MODEL 5
REMARK VINA RESULT:      -6.7      2.610      3.480
REMARK  Name = 
REMARK  3 active torsions:
REMARK  status: ('A' for Active; 'I' for Inactive)
REMARK    1  A    between atoms: C_1  and  O_2
REMARK    2  A    between atoms: O_2  and  C_3
REMARK    3  A    between atoms: C_8  and  C_9
REMARK                            x       y       z     vdW  Elec       q    Type
REMARK                         _______ _______ _______ _____ _____    ______ ____
ROOT
ATOM      1  C   UNL     1       5.265   5.976  16.431  0.00  0.00    +0.000 C 
ATOM      2  O   UNL     1       6.218   6.751  16.399  0.00  0.00    +0.000 OA
ATOM      3  N   UNL     1       5.000   5.004  15.485  0.00  0.00    +0.000 N 
ATOM      4  C   UNL     1       5.822   4.733  14.376  0.00  0.00    +0.000 A 
ATOM      5  C   UNL     1       5.433   3.730  13.494  0.00  0.00    +0.000 A 
ATOM      6  C   UNL     1       6.248   3.434  12.398  0.00  0.00    +0.000 A 
ATOM      7  C   UNL     1       7.424   4.148  12.207  0.00  0.00    +0.000 A 
ATOM      8  C   UNL     1       7.735   5.131  13.125  0.00  0.00    +0.000 A 
ATOM      9  N   UNL     1       6.962   5.423  14.191  0.00  0.00    +0.000 NA
ATOM     10  H   UNL     1       4.163   4.449  15.608  0.00  0.00    +0.000 HD
ENDROOT
BRANCH   1  16
ATOM     11  C   UNL     1       4.161   5.184  18.647  0.00  0.00    +0.000 A 
ATOM     12  C   UNL     1       3.224   5.464  19.660  0.00  0.00    +0.000 A 
ATOM     13  C   UNL     1       2.469   6.640  19.648  0.00  0.00    +0.000 A 
ATOM     14  C   UNL     1       2.630   7.555  18.621  0.00  0.00    +0.000 A 
ATOM     15  C   UNL     1       3.543   7.286  17.603  0.00  0.00    +0.000 A 
ATOM     16  C   UNL     1       4.316   6.106  17.592  0.00  0.00    +0.000 A 
BRANCH  11  18
ATOM     17  C   UNL     1       4.490   2.991  19.518  0.00  0.00    +0.000 C 
ATOM     18  O   UNL     1       4.906   4.029  18.627  0.00  0.00    +0.000 OA
ENDBRANCH  11  18
ENDBRANCH   1  16
TORSDOF 2
ENDMDL
MODEL 6
REMARK VINA RESULT:      -6.5      4.024      6.566
REMARK  Name = 
REMARK  3 active torsions:
REMARK  status: ('A' for Active; 'I' for Inactive)
REMARK    1  A    between atoms: C_1  and  O_2
REMARK    2  A    between atoms: O_2  and  C_3
REMARK    3  A    between atoms: C_8  and  C_9
REMARK                            x       y       z     vdW  Elec       q    Type
REMARK                         _______ _______ _______ _____ _____    ______ ____
ROOT
ATOM      1  C   UNL     1       3.952   6.251  18.074  0.00  0.00    +0.000 C 
ATOM      2  O   UNL     1       3.834   5.724  19.177  0.00  0.00    +0.000 OA
ATOM      3  N   UNL     1       3.266   7.373  17.651  0.00  0.00    +0.000 N 
ATOM      4  C   UNL     1       2.368   8.101  18.454  0.00  0.00    +0.000 A 
ATOM      5  C   UNL     1       1.737   9.210  17.899  0.00  0.00    +0.000 A 
ATOM      6  C   UNL     1       0.858   9.957  18.688  0.00  0.00    +0.000 A 
ATOM      7  C   UNL     1       0.628   9.577  20.003  0.00  0.00    +0.000 A 
ATOM      8  C   UNL     1       1.290   8.461  20.475  0.00  0.00    +0.000 A 
ATOM      9  N   UNL     1       2.146   7.735  19.728  0.00  0.00    +0.000 NA
ATOM     10  H   UNL     1       3.430   7.691  16.705  0.00  0.00    +0.000 HD
ENDROOT
BRANCH   1  16
ATOM     11  C   UNL     1       6.106   6.196  16.619  0.00  0.00    +0.000 A 
ATOM     12  C   UNL     1       6.903   5.457  15.725  0.00  0.00    +0.000 A 
ATOM     13  C   UNL     1       6.554   4.159  15.341  0.00  0.00    +0.000 A 
ATOM     14  C   UNL     1       5.398   3.578  15.836  0.00  0.00    +0.000 A 
ATOM     15  C   UNL     1       4.591   4.303  16.711  0.00  0.00    +0.000 A 
ATOM     16  C   UNL     1       4.922   5.615  17.114  0.00  0.00    +0.000 A 
BRANCH  11  18
ATOM     17  C   UNL     1       7.686   7.658  17.640  0.00  0.00    +0.000 C 
ATOM     18  O   UNL     1       6.420   7.479  17.002  0.00  0.00    +0.000 OA
ENDBRANCH  11  18
ENDBRANCH   1  16
TORSDOF 2
ENDMDL
MODEL 7
REMARK VINA RESULT:      -6.5      4.528      6.885
REMARK  Name = 
REMARK  3 active torsions:
REMARK  status: ('A' for Active; 'I' for Inactive)
REMARK    1  A    between atoms: C_1  and  O_2
REMARK    2  A    between atoms: O_2  and  C_3
REMARK    3  A    between atoms: C_8  and  C_9
REMARK                            x       y       z     vdW  Elec       q    Type
REMARK                         _______ _______ _______ _____ _____    ______ ____
ROOT
ATOM      1  C   UNL     1       2.615   7.644  18.218  0.00  0.00    +0.000 C 
ATOM      2  O   UNL     1       2.403   8.585  17.458  0.00  0.00    +0.000 OA
ATOM      3  N   UNL     1       2.201   7.578  19.535  0.00  0.00    +0.000 N 
ATOM      4  C   UNL     1       1.429   8.567  20.173  0.00  0.00    +0.000 A 
ATOM      5  C   UNL     1       1.087   8.378  21.508  0.00  0.00    +0.000 A 
ATOM      6  C   UNL     1       0.305   9.340  22.152  0.00  0.00    +0.000 A 
ATOM      7  C   UNL     1      -0.112  10.464  21.451  0.00  0.00    +0.000 A 
ATOM      8  C   UNL     1       0.275  10.578  20.131  0.00  0.00    +0.000 A 
ATOM      9  N   UNL     1       1.025   9.655  19.495  0.00  0.00    +0.000 NA
ATOM     10  H   UNL     1       2.467   6.760  20.067  0.00  0.00    +0.000 HD
ENDROOT
BRANCH   1  16
ATOM     11  C   UNL     1       3.033   5.118  17.767  0.00  0.00    +0.000 A 
ATOM     12  C   UNL     1       3.873   4.150  17.186  0.00  0.00    +0.000 A 
ATOM     13  C   UNL     1       5.033   4.514  16.495  0.00  0.00    +0.000 A 
ATOM     14  C   UNL     1       5.379   5.850  16.379  0.00  0.00    +0.000 A 
ATOM     15  C   UNL     1       4.564   6.819  16.961  0.00  0.00    +0.000 A 
ATOM     16  C   UNL     1       3.389   6.478  17.664  0.00  0.00    +0.000 A 
BRANCH  11  18
ATOM     17  C   UNL     1       1.492   3.416  18.404  0.00  0.00    +0.000 C 
ATOM     18  O   UNL     1       1.894   4.786  18.463  0.00  0.00    +0.000 OA
ENDBRANCH  11  18
ENDBRANCH   1  16
TORSDOF 2
ENDMDL
MODEL 8
REMARK VINA RESULT:      -6.4      1.512      2.110
REMARK  Name = 
REMARK  3 active torsions:
REMARK  status: ('A' for Active; 'I' for Inactive)
REMARK    1  A    between atoms: C_1  and  O_2
REMARK    2  A    between atoms: O_2  and  C_3
REMARK    3  A    between atoms: C_8  and  C_9
REMARK                            x       y       z     vdW  Elec       q    Type
REMARK                         _______ _______ _______ _____ _____    ______ ____
ROOT
ATOM      1  C   UNL     1       3.517   3.748  17.730  0.00  0.00    +0.000 C 
ATOM      2  O   UNL     1       2.854   3.355  16.774  0.00  0.00    +0.000 OA
ATOM      3  N   UNL     1       4.810   4.229  17.656  0.00  0.00    +0.000 N 
ATOM      4  C   UNL     1       5.531   4.382  16.458  0.00  0.00    +0.000 A 
ATOM      5  C   UNL     1       6.832   4.871  16.527  0.00  0.00    +0.000 A 
ATOM      6  C   UNL     1       7.556   5.048  15.344  0.00  0.00    +0.000 A 
ATOM      7  C   UNL     1       6.967   4.730  14.128  0.00  0.00    +0.000 A 
ATOM      8  C   UNL     1       5.674   4.246  14.147  0.00  0.00    +0.000 A 
ATOM      9  N   UNL     1       4.961   4.076  15.279  0.00  0.00    +0.000 NA
ATOM     10  H   UNL     1       5.260   4.493  18.523  0.00  0.00    +0.000 HD
ENDROOT
BRANCH   1  16
ATOM     11  C   UNL     1       2.785   4.753  20.013  0.00  0.00    +0.000 A 
ATOM     12  C   UNL     1       2.129   4.533  21.239  0.00  0.00    +0.000 A 
ATOM     13  C   UNL     1       1.538   3.302  21.538  0.00  0.00    +0.000 A 
ATOM     14  C   UNL     1       1.598   2.265  20.621  0.00  0.00    +0.000 A 
ATOM     15  C   UNL     1       2.256   2.463  19.409  0.00  0.00    +0.000 A 
ATOM     16  C   UNL     1       2.861   3.696  19.084  0.00  0.00    +0.000 A 
BRANCH  11  18
ATOM     17  C   UNL     1       2.518   7.004  19.279  0.00  0.00    +0.000 C 
ATOM     18  O   UNL     1       3.386   5.950  19.701  0.00  0.00    +0.000 OA
ENDBRANCH  11  18
ENDBRANCH   1  16
TORSDOF 2
ENDMDL
MODEL 9
REMARK VINA RESULT:      -6.4      3.777      6.307
REMARK  Name = 
REMARK  3 active torsions:
REMARK  status: ('A' for Active; 'I' for Inactive)
REMARK    1  A    between atoms: C_1  and  O_2
REMARK    2  A    between atoms: O_2  and  C_3
REMARK    3  A    between atoms: C_8  and  C_9
REMARK                            x       y       z     vdW  Elec       q    Type
REMARK                         _______ _______ _______ _____ _____    ______ ____
ROOT
ATOM      1  C   UNL     1       3.792   6.250  18.355  0.00  0.00    +0.000 C 
ATOM      2  O   UNL     1       3.684   5.801  19.492  0.00  0.00    +0.000 OA
ATOM      3  N   UNL     1       3.096   7.336  17.859  0.00  0.00    +0.000 N 
ATOM      4  C   UNL     1       2.198   8.113  18.615  0.00  0.00    +0.000 A 
ATOM      5  C   UNL     1       1.556   9.177  17.989  0.00  0.00    +0.000 A 
ATOM      6  C   UNL     1       0.677   9.971  18.729  0.00  0.00    +0.000 A 
ATOM      7  C   UNL     1       0.458   9.682  20.069  0.00  0.00    +0.000 A 
ATOM      8  C   UNL     1       1.130   8.606  20.613  0.00  0.00    +0.000 A 
ATOM      9  N   UNL     1       1.987   7.835  19.913  0.00  0.00    +0.000 NA
ATOM     10  H   UNL     1       3.252   7.589  16.892  0.00  0.00    +0.000 HD
ENDROOT
BRANCH   1  16
ATOM     11  C   UNL     1       4.544   4.331  16.770  0.00  0.00    +0.000 A 
ATOM     12  C   UNL     1       5.559   3.821  15.939  0.00  0.00    +0.000 A 
ATOM     13  C   UNL     1       6.758   4.513  15.747  0.00  0.00    +0.000 A 
ATOM     14  C   UNL     1       6.968   5.724  16.386  0.00  0.00    +0.000 A 
ATOM     15  C   UNL     1       5.979   6.235  17.223  0.00  0.00    +0.000 A 
ATOM     16  C   UNL     1       4.760   5.555  17.435  0.00  0.00    +0.000 A 
BRANCH  11  18
ATOM     17  C   UNL     1       3.424   2.527  17.852  0.00  0.00    +0.000 C 
ATOM     18  O   UNL     1       3.361   3.663  16.988  0.00  0.00    +0.000 OA
ENDBRANCH  11  18
ENDBRANCH   1  16
TORSDOF 2
ENDMDL
