MODEL 1
REMARK VINA RESULT:      -6.8      0.000      0.000
REMARK  Name = 
REMARK  4 active torsions:
REMARK  status: ('A' for Active; 'I' for Inactive)
REMARK    1  A    between atoms: O_1  and  C_2
REMARK    2  A    between atoms: C_2  and  C_3
REMARK    3  A    between atoms: C_3  and  N_4
REMARK    4  A    between atoms: N_11  and  C_12
REMARK                            x       y       z     vdW  Elec       q    Type
REMARK                         _______ _______ _______ _____ _____    ______ ____
ROOT
ATOM      1  N   UNL     1       1.139  10.118  18.435  0.00  0.00    +0.000 NA
ATOM      2  C   UNL     1       1.463   9.117  17.381  0.00  0.00    +0.000 C 
ATOM      3  C   UNL     1       2.580   8.097  17.739  0.00  0.00    +0.000 C 
ATOM      4  N   UNL     1       2.258   7.480  19.018  0.00  0.00    +0.000 N 
ATOM      5  C   UNL     1       2.588   6.180  19.281  0.00  0.00    +0.000 A 
ATOM      6  N   UNL     1       3.379   5.500  18.450  0.00  0.00    +0.000 NA
ATOM      7  C   UNL     1       3.645   4.201  18.714  0.00  0.00    +0.000 A 
ATOM      8  N   UNL     1       4.494   3.481  17.824  0.00  0.00    +0.000 N 
ATOM      9  C   UNL     1       3.090   3.542  19.820  0.00  0.00    +0.000 A 
ATOM     10  C   UNL     1       3.322   2.191  20.205  0.00  0.00    +0.000 A 
ATOM     11  C   UNL     1       2.679   1.649  21.316  0.00  0.00    +0.000 A 
ATOM     12  C   UNL     1       1.806   2.435  22.056  0.00  0.00    +0.000 A 
ATOM     13  C   UNL     1       1.606   3.768  21.695  0.00  0.00    +0.000 A 
ATOM     14  C   UNL     1       2.250   4.330  20.604  0.00  0.00    +0.000 A 
ATOM     15  N   UNL     1       2.018   5.616  20.353  0.00  0.00    +0.000 NA
ATOM     16  C   UNL     1       1.934   8.370  20.130  0.00  0.00    +0.000 C 
ATOM     17  C   UNL     1       0.859   9.386  19.693  0.00  0.00    +0.000 C 
ATOM     18  H   UNL     1       3.993   2.677  17.467  0.00  0.00    +0.000 HD
ENDROOT
BRANCH   8  19
ATOM     19  C   UNL     1       5.318   4.089  16.847  0.00  0.00    +0.000 A 
ATOM     20  C   UNL     1       4.915   4.134  15.504  0.00  0.00    +0.000 A 
ATOM     21  C   UNL     1       5.743   4.677  14.523  0.00  0.00    +0.000 A 
ATOM     22  C   UNL     1       6.979   5.191  14.888  0.00  0.00    +0.000 A 
ATOM     23  F   UNL     1       7.792   5.688  13.947  0.00  0.00    +0.000 F 
ATOM     24  C   UNL     1       7.386   5.196  16.217  0.00  0.00    +0.000 A 
ATOM     25  C   UNL     1       6.551   4.656  17.201  0.00  0.00    +0.000 A 
ENDBRANCH   8  19
BRANCH   1  26
ATOM     26  C   UNL     1       2.220  11.111  18.550  0.00  0.00    +0.000 C 
BRANCH  26  27
ATOM     27  C   UNL     1       1.780  12.575  18.400  0.00  0.00    +0.000 C 
BRANCH  27  28
ATOM     28  O   UNL     1       2.460  13.164  17.293  0.00  0.00    +0.000 OA
ATOM     29  H   UNL     1       3.412  13.057  17.460  0.00  0.00    +0.000 HD
ENDBRANCH  27  28
ENDBRANCH  26  27
ENDBRANCH   1  26
TORSDOF 4
ENDMDL
MODEL 2
REMARK VINA RESULT:      -6.8      2.060      2.421
REMARK  Name = 
REMARK  4 active torsions:
REMARK  status: ('A' for Active; 'I' for Inactive)
REMARK    1  A    between atoms: O_1  and  C_2
REMARK    2  A    between atoms: C_2  and  C_3
REMARK    3  A    between atoms: C_3  and  N_4
REMARK    4  A    between atoms: N_11  and  C_12
REMARK                            x       y       z     vdW  Elec       q    Type
REMARK                         _______ _______ _______ _____ _____    ______ ____
ROOT
ATOM      1  N   UNL     1       0.253  10.459  19.371  0.00  0.00    +0.000 NA
ATOM      2  C   UNL     1       1.139   9.827  18.355  0.00  0.00    +0.000 C 
ATOM      3  C   UNL     1       2.286   8.940  18.917  0.00  0.00    +0.000 C 
ATOM      4  N   UNL     1       1.717   7.973  19.845  0.00  0.00    +0.000 N 
ATOM      5  C   UNL     1       2.245   6.718  19.973  0.00  0.00    +0.000 A 
ATOM      6  N   UNL     1       3.406   6.408  19.393  0.00  0.00    +0.000 NA
ATOM      7  C   UNL     1       3.874   5.145  19.498  0.00  0.00    +0.000 A 
ATOM      8  N   UNL     1       5.117   4.821  18.879  0.00  0.00    +0.000 N 
ATOM      9  C   UNL     1       3.161   4.144  20.173  0.00  0.00    +0.000 A 
ATOM     10  C   UNL     1       3.570   2.795  20.365  0.00  0.00    +0.000 A 
ATOM     11  C   UNL     1       2.747   1.890  21.033  0.00  0.00    +0.000 A 
ATOM     12  C   UNL     1       1.516   2.312  21.519  0.00  0.00    +0.000 A 
ATOM     13  C   UNL     1       1.132   3.644  21.356  0.00  0.00    +0.000 A 
ATOM     14  C   UNL     1       1.944   4.561  20.711  0.00  0.00    +0.000 A 
ATOM     15  N   UNL     1       1.507   5.815  20.628  0.00  0.00    +0.000 NA
ATOM     16  C   UNL     1       0.839   8.484  20.894  0.00  0.00    +0.000 C 
ATOM     17  C   UNL     1      -0.242   9.395  20.276  0.00  0.00    +0.000 C 
ATOM     18  H   UNL     1       4.971   4.067  18.220  0.00  0.00    +0.000 HD
ENDROOT
BRANCH   8  19
ATOM     19  C   UNL     1       6.045   5.783  18.413  0.00  0.00    +0.000 A 
ATOM     20  C   UNL     1       7.274   5.961  19.065  0.00  0.00    +0.000 A 
ATOM     21  C   UNL     1       8.170   6.945  18.653  0.00  0.00    +0.000 A 
ATOM     22  C   UNL     1       7.842   7.750  17.571  0.00  0.00    +0.000 A 
ATOM     23  F   UNL     1       8.686   8.717  17.187  0.00  0.00    +0.000 F 
ATOM     24  C   UNL     1       6.649   7.570  16.882  0.00  0.00    +0.000 A 
ATOM     25  C   UNL     1       5.753   6.577  17.294  0.00  0.00    +0.000 A 
ENDBRANCH   8  19
BRANCH   1  26
ATOM     26  C   UNL     1       0.963  11.548  20.064  0.00  0.00    +0.000 C 
BRANCH  26  27
ATOM     27  C   UNL     1       0.234  12.126  21.287  0.00  0.00    +0.000 C 
BRANCH  27  28
ATOM     28  O   UNL     1       0.879  13.329  21.699  0.00  0.00    +0.000 OA
ATOM     29  H   UNL     1       0.176  13.967  21.911  0.00  0.00    +0.000 HD
ENDBRANCH  27  28
ENDBRANCH  26  27
ENDBRANCH   1  26
TORSDOF 4
ENDMDL
MODEL 3
REMARK VINA RESULT:      -6.7      3.032      6.256
REMARK  Name = 
REMARK  4 active torsions:
REMARK  status: ('A' for Active; 'I' for Inactive)
REMARK    1  A    between atoms: O_1  and  C_2
REMARK    2  A    between atoms: C_2  and  C_3
REMARK    3  A    between atoms: C_3  and  N_4
REMARK    4  A    between atoms: N_11  and  C_12
REMARK                            x       y       z     vdW  Elec       q    Type
REMARK                         _______ _______ _______ _____ _____    ______ ____
ROOT
ATOM      1  N   UNL     1       7.508   5.451  15.687  0.00  0.00    +0.000 NA
ATOM      2  C   UNL     1       7.105   6.474  16.693  0.00  0.00    +0.000 C 
ATOM      3  C   UNL     1       5.599   6.482  17.080  0.00  0.00    +0.000 C 
ATOM      4  N   UNL     1       5.207   5.133  17.464  0.00  0.00    +0.000 N 
ATOM      5  C   UNL     1       4.266   4.916  18.432  0.00  0.00    +0.000 A 
ATOM      6  N   UNL     1       3.547   5.929  18.918  0.00  0.00    +0.000 NA
ATOM      7  C   UNL     1       2.661   5.688  19.909  0.00  0.00    +0.000 A 
ATOM      8  N   UNL     1       1.893   6.773  20.421  0.00  0.00    +0.000 N 
ATOM      9  C   UNL     1       2.498   4.409  20.461  0.00  0.00    +0.000 A 
ATOM     10  C   UNL     1       1.582   4.039  21.485  0.00  0.00    +0.000 A 
ATOM     11  C   UNL     1       1.543   2.732  21.967  0.00  0.00    +0.000 A 
ATOM     12  C   UNL     1       2.406   1.781  21.440  0.00  0.00    +0.000 A 
ATOM     13  C   UNL     1       3.282   2.139  20.414  0.00  0.00    +0.000 A 
ATOM     14  C   UNL     1       3.322   3.429  19.910  0.00  0.00    +0.000 A 
ATOM     15  N   UNL     1       4.169   3.671  18.913  0.00  0.00    +0.000 NA
ATOM     16  C   UNL     1       5.543   4.049  16.545  0.00  0.00    +0.000 C 
ATOM     17  C   UNL     1       7.035   4.129  16.161  0.00  0.00    +0.000 C 
ATOM     18  H   UNL     1       2.062   6.858  21.416  0.00  0.00    +0.000 HD
ENDROOT
BRANCH   8  19
ATOM     19  C   UNL     1       1.768   8.029  19.779  0.00  0.00    +0.000 A 
ATOM     20  C   UNL     1       1.190   9.117  20.450  0.00  0.00    +0.000 A 
ATOM     21  C   UNL     1       1.007  10.341  19.809  0.00  0.00    +0.000 A 
ATOM     22  C   UNL     1       1.416  10.483  18.490  0.00  0.00    +0.000 A 
ATOM     23  F   UNL     1       1.217  11.648  17.859  0.00  0.00    +0.000 F 
ATOM     24  C   UNL     1       2.027   9.434  17.815  0.00  0.00    +0.000 A 
ATOM     25  C   UNL     1       2.216   8.208  18.462  0.00  0.00    +0.000 A 
ENDBRANCH   8  19
BRANCH   1  26
ATOM     26  C   UNL     1       7.008   5.820  14.352  0.00  0.00    +0.000 C 
BRANCH  26  27
ATOM     27  C   UNL     1       7.849   5.300  13.175  0.00  0.00    +0.000 C 
BRANCH  27  28
ATOM     28  O   UNL     1       9.052   6.060  13.080  0.00  0.00    +0.000 OA
ATOM     29  H   UNL     1       9.680   5.672  13.713  0.00  0.00    +0.000 HD
ENDBRANCH  27  28
ENDBRANCH  26  27
ENDBRANCH   1  26
TORSDOF 4
ENDMDL
MODEL 4
REMARK VINA RESULT:      -6.5      9.224     10.814
REMARK  Name = 
REMARK  4 active torsions:
REMARK  status: ('A' for Active; 'I' for Inactive)
REMARK    1  A    between atoms: O_1  and  C_2
REMARK    2  A    between atoms: C_2  and  C_3
REMARK    3  A    between atoms: C_3  and  N_4
REMARK    4  A    between atoms: N_11  and  C_12
REMARK                            x       y       z     vdW  Elec       q    Type
REMARK                         _______ _______ _______ _____ _____    ______ ____
ROOT
ATOM      1  N   UNL     1       4.783  17.390  19.550  0.00  0.00    +0.000 NA
ATOM      2  C   UNL     1       5.503  17.159  20.834  0.00  0.00    +0.000 C 
ATOM      3  C   UNL     1       5.940  15.692  21.108  0.00  0.00    +0.000 C 
ATOM      4  N   UNL     1       6.678  15.199  19.954  0.00  0.00    +0.000 N 
ATOM      5  C   UNL     1       7.709  14.313  20.097  0.00  0.00    +0.000 A 
ATOM      6  N   UNL     1       7.943  13.730  21.275  0.00  0.00    +0.000 NA
ATOM      7  C   UNL     1       9.001  12.897  21.394  0.00  0.00    +0.000 A 
ATOM      8  N   UNL     1       9.244  12.275  22.653  0.00  0.00    +0.000 N 
ATOM      9  C   UNL     1       9.874  12.651  20.325  0.00  0.00    +0.000 A 
ATOM     10  C   UNL     1      10.997  11.777  20.333  0.00  0.00    +0.000 A 
ATOM     11  C   UNL     1      11.804  11.646  19.204  0.00  0.00    +0.000 A 
ATOM     12  C   UNL     1      11.507  12.374  18.060  0.00  0.00    +0.000 A 
ATOM     13  C   UNL     1      10.386  13.206  18.045  0.00  0.00    +0.000 A 
ATOM     14  C   UNL     1       9.562  13.335  19.151  0.00  0.00    +0.000 A 
ATOM     15  N   UNL     1       8.501  14.130  19.035  0.00  0.00    +0.000 NA
ATOM     16  C   UNL     1       6.060  15.363  18.641  0.00  0.00    +0.000 C 
ATOM     17  C   UNL     1       5.605  16.825  18.454  0.00  0.00    +0.000 C 
ATOM     18  H   UNL     1      10.174  12.521  22.969  0.00  0.00    +0.000 HD
ENDROOT
BRANCH   8  19
ATOM     19  C   UNL     1       8.303  12.228  23.709  0.00  0.00    +0.000 A 
ATOM     20  C   UNL     1       8.610  12.781  24.962  0.00  0.00    +0.000 A 
ATOM     21  C   UNL     1       7.715  12.688  26.026  0.00  0.00    +0.000 A 
ATOM     22  C   UNL     1       6.499  12.047  25.836  0.00  0.00    +0.000 A 
ATOM     23  F   UNL     1       5.647  11.929  26.863  0.00  0.00    +0.000 F 
ATOM     24  C   UNL     1       6.154  11.525  24.595  0.00  0.00    +0.000 A 
ATOM     25  C   UNL     1       7.050  11.626  23.526  0.00  0.00    +0.000 A 
ENDBRANCH   8  19
BRANCH   1  26
ATOM     26  C   UNL     1       3.420  16.835  19.620  0.00  0.00    +0.000 C 
BRANCH  26  27
ATOM     27  C   UNL     1       2.686  16.741  18.274  0.00  0.00    +0.000 C 
BRANCH  27  28
ATOM     28  O   UNL     1       2.126  18.011  17.949  0.00  0.00    +0.000 OA
ATOM     29  H   UNL     1       1.159  17.899  17.940  0.00  0.00    +0.000 HD
ENDBRANCH  27  28
ENDBRANCH  26  27
ENDBRANCH   1  26
TORSDOF 4
ENDMDL
MODEL 5
REMARK VINA RESULT:      -6.5      4.786      8.161
REMARK  Name = 
REMARK  4 active torsions:
REMARK  status: ('A' for Active; 'I' for Inactive)
REMARK    1  A    between atoms: O_1  and  C_2
REMARK    2  A    between atoms: C_2  and  C_3
REMARK    3  A    between atoms: C_3  and  N_4
REMARK    4  A    between atoms: N_11  and  C_12
REMARK                            x       y       z     vdW  Elec       q    Type
REMARK                         _______ _______ _______ _____ _____    ______ ____
ROOT
ATOM      1  N   UNL     1       4.259  15.943  18.574  0.00  0.00    +0.000 NA
ATOM      2  C   UNL     1       3.446  14.866  17.943  0.00  0.00    +0.000 C 
ATOM      3  C   UNL     1       3.039  13.692  18.879  0.00  0.00    +0.000 C 
ATOM      4  N   UNL     1       2.413  14.241  20.073  0.00  0.00    +0.000 N 
ATOM      5  C   UNL     1       1.405  13.576  20.714  0.00  0.00    +0.000 A 
ATOM      6  N   UNL     1       1.096  12.323  20.375  0.00  0.00    +0.000 NA
ATOM      7  C   UNL     1       0.061  11.713  20.995  0.00  0.00    +0.000 A 
ATOM      8  N   UNL     1      -0.261  10.374  20.632  0.00  0.00    +0.000 N 
ATOM      9  C   UNL     1      -0.714  12.370  21.962  0.00  0.00    +0.000 A 
ATOM     10  C   UNL     1      -1.804  11.817  22.691  0.00  0.00    +0.000 A 
ATOM     11  C   UNL     1      -2.513  12.593  23.607  0.00  0.00    +0.000 A 
ATOM     12  C   UNL     1      -2.150  13.918  23.810  0.00  0.00    +0.000 A 
ATOM     13  C   UNL     1      -1.060  14.447  23.116  0.00  0.00    +0.000 A 
ATOM     14  C   UNL     1      -0.333  13.686  22.216  0.00  0.00    +0.000 A 
ATOM     15  N   UNL     1       0.707  14.268  21.622  0.00  0.00    +0.000 NA
ATOM     16  C   UNL     1       3.129  15.299  20.781  0.00  0.00    +0.000 C 
ATOM     17  C   UNL     1       3.547  16.404  19.789  0.00  0.00    +0.000 C 
ATOM     18  H   UNL     1      -1.222  10.340  20.312  0.00  0.00    +0.000 HD
ENDROOT
BRANCH   8  19
ATOM     19  C   UNL     1       0.593   9.527  19.886  0.00  0.00    +0.000 A 
ATOM     20  C   UNL     1       1.260   8.461  20.510  0.00  0.00    +0.000 A 
ATOM     21  C   UNL     1       2.150   7.657  19.800  0.00  0.00    +0.000 A 
ATOM     22  C   UNL     1       2.366   7.911  18.452  0.00  0.00    +0.000 A 
ATOM     23  F   UNL     1       3.242   7.160  17.771  0.00  0.00    +0.000 F 
ATOM     24  C   UNL     1       1.689   8.935  17.801  0.00  0.00    +0.000 A 
ATOM     25  C   UNL     1       0.792   9.737  18.514  0.00  0.00    +0.000 A 
ENDBRANCH   8  19
BRANCH   1  26
ATOM     26  C   UNL     1       5.630  15.469  18.829  0.00  0.00    +0.000 C 
BRANCH  26  27
ATOM     27  C   UNL     1       6.268  14.671  17.681  0.00  0.00    +0.000 C 
BRANCH  27  28
ATOM     28  O   UNL     1       7.563  15.197  17.401  0.00  0.00    +0.000 OA
ATOM     29  H   UNL     1       7.437  16.116  17.108  0.00  0.00    +0.000 HD
ENDBRANCH  27  28
ENDBRANCH  26  27
ENDBRANCH   1  26
TORSDOF 4
ENDMDL
MODEL 6
REMARK VINA RESULT:      -6.5      8.053      9.910
REMARK  Name = 
REMARK  4 active torsions:
REMARK  status: ('A' for Active; 'I' for Inactive)
REMARK    1  A    between atoms: O_1  and  C_2
REMARK    2  A    between atoms: C_2  and  C_3
REMARK    3  A    between atoms: C_3  and  N_4
REMARK    4  A    between atoms: N_11  and  C_12
REMARK                            x       y       z     vdW  Elec       q    Type
REMARK                         _______ _______ _______ _____ _____    ______ ____
ROOT
ATOM      1  N   UNL     1      -3.180  10.032  16.704  0.00  0.00    +0.000 NA
ATOM      2  C   UNL     1      -1.790  10.212  17.209  0.00  0.00    +0.000 C 
ATOM      3  C   UNL     1      -1.475  11.598  17.839  0.00  0.00    +0.000 C 
ATOM      4  N   UNL     1      -2.482  11.892  18.850  0.00  0.00    +0.000 N 
ATOM      5  C   UNL     1      -2.168  12.599  19.977  0.00  0.00    +0.000 A 
ATOM      6  N   UNL     1      -0.983  13.201  20.093  0.00  0.00    +0.000 NA
ATOM      7  C   UNL     1      -0.687  13.850  21.241  0.00  0.00    +0.000 A 
ATOM      8  N   UNL     1       0.579  14.493  21.357  0.00  0.00    +0.000 N 
ATOM      9  C   UNL     1      -1.578  13.884  22.323  0.00  0.00    +0.000 A 
ATOM     10  C   UNL     1      -1.380  14.556  23.562  0.00  0.00    +0.000 A 
ATOM     11  C   UNL     1      -2.339  14.484  24.571  0.00  0.00    +0.000 A 
ATOM     12  C   UNL     1      -3.500  13.751  24.363  0.00  0.00    +0.000 A 
ATOM     13  C   UNL     1      -3.705  13.120  23.135  0.00  0.00    +0.000 A 
ATOM     14  C   UNL     1      -2.772  13.195  22.114  0.00  0.00    +0.000 A 
ATOM     15  N   UNL     1      -3.066  12.585  20.969  0.00  0.00    +0.000 NA
ATOM     16  C   UNL     1      -3.883  11.759  18.461  0.00  0.00    +0.000 C 
ATOM     17  C   UNL     1      -4.116  10.386  17.798  0.00  0.00    +0.000 C 
ATOM     18  H   UNL     1       1.071  14.113  22.156  0.00  0.00    +0.000 HD
ENDROOT
BRANCH   8  19
ATOM     19  C   UNL     1       1.437  14.759  20.263  0.00  0.00    +0.000 A 
ATOM     20  C   UNL     1       1.300  15.943  19.522  0.00  0.00    +0.000 A 
ATOM     21  C   UNL     1       2.099  16.188  18.407  0.00  0.00    +0.000 A 
ATOM     22  C   UNL     1       3.051  15.250  18.035  0.00  0.00    +0.000 A 
ATOM     23  F   UNL     1       3.802  15.466  16.947  0.00  0.00    +0.000 F 
ATOM     24  C   UNL     1       3.234  14.087  18.774  0.00  0.00    +0.000 A 
ATOM     25  C   UNL     1       2.436  13.846  19.897  0.00  0.00    +0.000 A 
ENDBRANCH   8  19
BRANCH   1  26
ATOM     26  C   UNL     1      -3.383  10.810  15.471  0.00  0.00    +0.000 C 
BRANCH  26  27
ATOM     27  C   UNL     1      -3.714   9.978  14.222  0.00  0.00    +0.000 C 
BRANCH  27  28
ATOM     28  O   UNL     1      -2.569   9.919  13.374  0.00  0.00    +0.000 OA
ATOM     29  H   UNL     1      -2.869   9.558  12.522  0.00  0.00    +0.000 HD
ENDBRANCH  27  28
ENDBRANCH  26  27
ENDBRANCH   1  26
TORSDOF 4
ENDMDL
MODEL 7
REMARK VINA RESULT:      -6.4      2.803      5.419
REMARK  Name = 
REMARK  4 active torsions:
REMARK  status: ('A' for Active; 'I' for Inactive)
REMARK    1  A    between atoms: O_1  and  C_2
REMARK    2  A    between atoms: C_2  and  C_3
REMARK    3  A    between atoms: C_3  and  N_4
REMARK    4  A    between atoms: N_11  and  C_12
REMARK                            x       y       z     vdW  Elec       q    Type
REMARK                         _______ _______ _______ _____ _____    ______ ____
ROOT
ATOM      1  N   UNL     1       1.105  10.367  19.571  0.00  0.00    +0.000 NA
ATOM      2  C   UNL     1       1.722   9.318  20.429  0.00  0.00    +0.000 C 
ATOM      3  C   UNL     1       1.760   7.886  19.823  0.00  0.00    +0.000 C 
ATOM      4  N   UNL     1       2.363   7.955  18.499  0.00  0.00    +0.000 N 
ATOM      5  C   UNL     1       3.127   6.930  18.014  0.00  0.00    +0.000 A 
ATOM      6  N   UNL     1       3.186   5.764  18.660  0.00  0.00    +0.000 NA
ATOM      7  C   UNL     1       3.990   4.789  18.179  0.00  0.00    +0.000 A 
ATOM      8  N   UNL     1       4.046   3.545  18.872  0.00  0.00    +0.000 N 
ATOM      9  C   UNL     1       4.785   4.979  17.040  0.00  0.00    +0.000 A 
ATOM     10  C   UNL     1       5.643   4.018  16.437  0.00  0.00    +0.000 A 
ATOM     11  C   UNL     1       6.405   4.349  15.317  0.00  0.00    +0.000 A 
ATOM     12  C   UNL     1       6.323   5.629  14.785  0.00  0.00    +0.000 A 
ATOM     13  C   UNL     1       5.456   6.559  15.360  0.00  0.00    +0.000 A 
ATOM     14  C   UNL     1       4.678   6.243  16.462  0.00  0.00    +0.000 A 
ATOM     15  N   UNL     1       3.860   7.185  16.925  0.00  0.00    +0.000 NA
ATOM     16  C   UNL     1       1.827   8.943  17.567  0.00  0.00    +0.000 C 
ATOM     17  C   UNL     1       1.769  10.327  18.247  0.00  0.00    +0.000 C 
ATOM     18  H   UNL     1       5.003   3.362  19.146  0.00  0.00    +0.000 HD
ENDROOT
BRANCH   8  19
ATOM     19  C   UNL     1       3.110   3.140  19.853  0.00  0.00    +0.000 A 
ATOM     20  C   UNL     1       1.738   3.368  19.664  0.00  0.00    +0.000 A 
ATOM     21  C   UNL     1       0.812   3.028  20.649  0.00  0.00    +0.000 A 
ATOM     22  C   UNL     1       1.257   2.444  21.826  0.00  0.00    +0.000 A 
ATOM     23  F   UNL     1       0.375   2.142  22.789  0.00  0.00    +0.000 F 
ATOM     24  C   UNL     1       2.606   2.172  22.023  0.00  0.00    +0.000 A 
ATOM     25  C   UNL     1       3.533   2.508  21.031  0.00  0.00    +0.000 A 
ENDBRANCH   8  19
BRANCH   1  26
ATOM     26  C   UNL     1      -0.356  10.187  19.512  0.00  0.00    +0.000 C 
BRANCH  26  27
ATOM     27  C   UNL     1      -1.087  11.114  18.528  0.00  0.00    +0.000 C 
BRANCH  27  28
ATOM     28  O   UNL     1      -1.829  12.089  19.257  0.00  0.00    +0.000 OA
ATOM     29  H   UNL     1      -1.896  12.875  18.687  0.00  0.00    +0.000 HD
ENDBRANCH  27  28
ENDBRANCH  26  27
ENDBRANCH   1  26
TORSDOF 4
ENDMDL
MODEL 8
REMARK VINA RESULT:      -6.4      9.235     10.807
REMARK  Name = 
REMARK  4 active torsions:
REMARK  status: ('A' for Active; 'I' for Inactive)
REMARK    1  A    between atoms: O_1  and  C_2
REMARK    2  A    between atoms: C_2  and  C_3
REMARK    3  A    between atoms: C_3  and  N_4
REMARK    4  A    between atoms: N_11  and  C_12
REMARK                            x       y       z     vdW  Elec       q    Type
REMARK                         _______ _______ _______ _____ _____    ______ ____
ROOT
ATOM      1  N   UNL     1       4.807  17.478  19.706  0.00  0.00    +0.000 NA
ATOM      2  C   UNL     1       5.530  17.235  20.985  0.00  0.00    +0.000 C 
ATOM      3  C   UNL     1       5.950  15.762  21.253  0.00  0.00    +0.000 C 
ATOM      4  N   UNL     1       6.677  15.264  20.094  0.00  0.00    +0.000 N 
ATOM      5  C   UNL     1       7.698  14.364  20.231  0.00  0.00    +0.000 A 
ATOM      6  N   UNL     1       7.930  13.776  21.405  0.00  0.00    +0.000 NA
ATOM      7  C   UNL     1       8.978  12.929  21.518  0.00  0.00    +0.000 A 
ATOM      8  N   UNL     1       9.219  12.301  22.774  0.00  0.00    +0.000 N 
ATOM      9  C   UNL     1       9.843  12.676  20.444  0.00  0.00    +0.000 A 
ATOM     10  C   UNL     1      10.956  11.788  20.445  0.00  0.00    +0.000 A 
ATOM     11  C   UNL     1      11.756  11.651  19.312  0.00  0.00    +0.000 A 
ATOM     12  C   UNL     1      11.463  12.386  18.171  0.00  0.00    +0.000 A 
ATOM     13  C   UNL     1      10.353  13.232  18.164  0.00  0.00    +0.000 A 
ATOM     14  C   UNL     1       9.535  13.367  19.274  0.00  0.00    +0.000 A 
ATOM     15  N   UNL     1       8.483  14.175  19.165  0.00  0.00    +0.000 NA
ATOM     16  C   UNL     1       6.055  15.439  18.785  0.00  0.00    +0.000 C 
ATOM     17  C   UNL     1       5.617  16.908  18.604  0.00  0.00    +0.000 C 
ATOM     18  H   UNL     1      10.153  12.535  23.086  0.00  0.00    +0.000 HD
ENDROOT
BRANCH   8  19
ATOM     19  C   UNL     1       8.282  12.262  23.834  0.00  0.00    +0.000 A 
ATOM     20  C   UNL     1       7.094  11.527  23.707  0.00  0.00    +0.000 A 
ATOM     21  C   UNL     1       6.136  11.528  24.719  0.00  0.00    +0.000 A 
ATOM     22  C   UNL     1       6.372  12.261  25.874  0.00  0.00    +0.000 A 
ATOM     23  F   UNL     1       5.443  12.290  26.839  0.00  0.00    +0.000 F 
ATOM     24  C   UNL     1       7.558  12.966  26.043  0.00  0.00    +0.000 A 
ATOM     25  C   UNL     1       8.520  12.958  25.028  0.00  0.00    +0.000 A 
ENDBRANCH   8  19
BRANCH   1  26
ATOM     26  C   UNL     1       3.438  16.940  19.780  0.00  0.00    +0.000 C 
BRANCH  26  27
ATOM     27  C   UNL     1       2.708  16.830  18.432  0.00  0.00    +0.000 C 
BRANCH  27  28
ATOM     28  O   UNL     1       2.401  15.463  18.170  0.00  0.00    +0.000 OA
ATOM     29  H   UNL     1       2.865  15.223  17.349  0.00  0.00    +0.000 HD
ENDBRANCH  27  28
ENDBRANCH  26  27
ENDBRANCH   1  26
TORSDOF 4
ENDMDL
MODEL 9
REMARK VINA RESULT:      -6.3      2.226      2.386
REMARK  Name = 
REMARK  4 active torsions:
REMARK  status: ('A' for Active; 'I' for Inactive)
REMARK    1  A    between atoms: O_1  and  C_2
REMARK    2  A    between atoms: C_2  and  C_3
REMARK    3  A    between atoms: C_3  and  N_4
REMARK    4  A    between atoms: N_11  and  C_12
REMARK                            x       y       z     vdW  Elec       q    Type
REMARK                         _______ _______ _______ _____ _____    ______ ____
ROOT
ATOM      1  N   UNL     1       0.092  10.378  19.552  0.00  0.00    +0.000 NA
ATOM      2  C   UNL     1       0.985   9.784  18.519  0.00  0.00    +0.000 C 
ATOM      3  C   UNL     1       2.150   8.907  19.057  0.00  0.00    +0.000 C 
ATOM      4  N   UNL     1       1.603   7.909  19.967  0.00  0.00    +0.000 N 
ATOM      5  C   UNL     1       2.154   6.662  20.065  0.00  0.00    +0.000 A 
ATOM      6  N   UNL     1       3.318   6.386  19.474  0.00  0.00    +0.000 NA
ATOM      7  C   UNL     1       3.810   5.129  19.550  0.00  0.00    +0.000 A 
ATOM      8  N   UNL     1       5.055   4.842  18.920  0.00  0.00    +0.000 N 
ATOM      9  C   UNL     1       3.117   4.102  20.207  0.00  0.00    +0.000 A 
ATOM     10  C   UNL     1       3.552   2.756  20.368  0.00  0.00    +0.000 A 
ATOM     11  C   UNL     1       2.748   1.823  21.020  0.00  0.00    +0.000 A 
ATOM     12  C   UNL     1       1.512   2.211  21.519  0.00  0.00    +0.000 A 
ATOM     13  C   UNL     1       1.103   3.539  21.387  0.00  0.00    +0.000 A 
ATOM     14  C   UNL     1       1.896   4.485  20.758  0.00  0.00    +0.000 A 
ATOM     15  N   UNL     1       1.435   5.732  20.704  0.00  0.00    +0.000 NA
ATOM     16  C   UNL     1       0.720   8.382  21.030  0.00  0.00    +0.000 C 
ATOM     17  C   UNL     1      -0.380   9.286  20.435  0.00  0.00    +0.000 C 
ATOM     18  H   UNL     1       4.921   4.099  18.245  0.00  0.00    +0.000 HD
ENDROOT
BRANCH   8  19
ATOM     19  C   UNL     1       5.964   5.830  18.471  0.00  0.00    +0.000 A 
ATOM     20  C   UNL     1       5.625   6.677  17.404  0.00  0.00    +0.000 A 
ATOM     21  C   UNL     1       6.533   7.613  16.915  0.00  0.00    +0.000 A 
ATOM     22  C   UNL     1       7.786   7.715  17.502  0.00  0.00    +0.000 A 
ATOM     23  F   UNL     1       8.674   8.593  17.017  0.00  0.00    +0.000 F 
ATOM     24  C   UNL     1       8.134   6.916  18.585  0.00  0.00    +0.000 A 
ATOM     25  C   UNL     1       7.218   5.981  19.080  0.00  0.00    +0.000 A 
ENDBRANCH   8  19
BRANCH   1  26
ATOM     26  C   UNL     1       0.784  11.465  20.266  0.00  0.00    +0.000 C 
BRANCH  26  27
ATOM     27  C   UNL     1      -0.109  12.317  21.180  0.00  0.00    +0.000 C 
BRANCH  27  28
ATOM     28  O   UNL     1      -0.003  11.845  22.521  0.00  0.00    +0.000 OA
ATOM     29  H   UNL     1       0.929  11.945  22.781  0.00  0.00    +0.000 HD
ENDBRANCH  27  28
ENDBRANCH  26  27
ENDBRANCH   1  26
TORSDOF 4
ENDMDL
