MODEL 1
REMARK VINA RESULT:      -8.5      0.000      0.000
REMARK  Name = 
REMARK  2 active torsions:
REMARK  status: ('A' for Active; 'I' for Inactive)
REMARK    1  A    between atoms: C_2  and  O_3
REMARK    2  A    between atoms: C_2  and  C_4
REMARK                            x       y       z     vdW  Elec       q    Type
REMARK                         _______ _______ _______ _____ _____    ______ ____
ROOT
ATOM      1  C   UNL     1       5.844   4.953  15.356  0.00  0.00    +0.000 A 
ATOM      2  C   UNL     1       5.526   6.288  15.638  0.00  0.00    +0.000 A 
ATOM      3  C   UNL     1       4.647   6.592  16.679  0.00  0.00    +0.000 A 
ATOM      4  C   UNL     1       4.096   5.557  17.441  0.00  0.00    +0.000 A 
ATOM      5  C   UNL     1       3.136   5.845  18.518  0.00  0.00    +0.000 A 
ATOM      6  O   UNL     1       2.806   6.992  18.790  0.00  0.00    +0.000 OA
ATOM      7  C   UNL     1       2.578   4.688  19.232  0.00  0.00    +0.000 A 
ATOM      8  C   UNL     1       1.605   4.858  20.222  0.00  0.00    +0.000 A 
ATOM      9  C   UNL     1       1.090   3.741  20.881  0.00  0.00    +0.000 A 
ATOM     10  C   UNL     1       1.554   2.464  20.558  0.00  0.00    +0.000 A 
ATOM     11  C   UNL     1       2.525   2.301  19.567  0.00  0.00    +0.000 A 
ATOM     12  C   UNL     1       3.032   3.414  18.895  0.00  0.00    +0.000 A 
ATOM     13  O   UNL     1       3.961   3.165  17.915  0.00  0.00    +0.000 OA
ATOM     14  C   UNL     1       4.438   4.230  17.186  0.00  0.00    +0.000 A 
ATOM     15  C   UNL     1       5.316   3.922  16.146  0.00  0.00    +0.000 A 
ENDROOT
BRANCH   1  17
ATOM     16  O   UNL     1       7.711   5.405  13.961  0.00  0.00    +0.000 OA
ATOM     17  C   UNL     1       6.776   4.676  14.236  0.00  0.00    +0.000 C 
BRANCH  17  18
ATOM     18  O   UNL     1       6.465   3.568  13.532  0.00  0.00    +0.000 OA
ATOM     19  H   UNL     1       5.853   2.949  13.971  0.00  0.00    +0.000 HD
ENDBRANCH  17  18
ENDBRANCH   1  17
TORSDOF 2
ENDMDL
MODEL 2
REMARK VINA RESULT:      -7.9      1.607      1.746
REMARK  Name = 
REMARK  2 active torsions:
REMARK  status: ('A' for Active; 'I' for Inactive)
REMARK    1  A    between atoms: C_2  and  O_3
REMARK    2  A    between atoms: C_2  and  C_4
REMARK                            x       y       z     vdW  Elec       q    Type
REMARK                         _______ _______ _______ _____ _____    ______ ____
ROOT
ATOM      1  C   UNL     1       6.400   4.436  15.056  0.00  0.00    +0.000 A 
ATOM      2  C   UNL     1       7.291   4.754  16.089  0.00  0.00    +0.000 A 
ATOM      3  C   UNL     1       6.851   4.763  17.414  0.00  0.00    +0.000 A 
ATOM      4  C   UNL     1       5.520   4.444  17.700  0.00  0.00    +0.000 A 
ATOM      5  C   UNL     1       5.017   4.486  19.082  0.00  0.00    +0.000 A 
ATOM      6  O   UNL     1       5.748   4.779  20.019  0.00  0.00    +0.000 OA
ATOM      7  C   UNL     1       3.593   4.179  19.276  0.00  0.00    +0.000 A 
ATOM      8  C   UNL     1       3.008   4.261  20.543  0.00  0.00    +0.000 A 
ATOM      9  C   UNL     1       1.653   3.968  20.698  0.00  0.00    +0.000 A 
ATOM     10  C   UNL     1       0.891   3.584  19.593  0.00  0.00    +0.000 A 
ATOM     11  C   UNL     1       1.481   3.504  18.329  0.00  0.00    +0.000 A 
ATOM     12  C   UNL     1       2.833   3.811  18.167  0.00  0.00    +0.000 A 
ATOM     13  O   UNL     1       3.328   3.737  16.888  0.00  0.00    +0.000 OA
ATOM     14  C   UNL     1       4.639   4.093  16.677  0.00  0.00    +0.000 A 
ATOM     15  C   UNL     1       5.076   4.083  15.353  0.00  0.00    +0.000 A 
ENDROOT
BRANCH   1  17
ATOM     16  O   UNL     1       7.622   5.333  13.229  0.00  0.00    +0.000 OA
ATOM     17  C   UNL     1       6.909   4.447  13.663  0.00  0.00    +0.000 C 
BRANCH  17  18
ATOM     18  O   UNL     1       6.476   3.409  12.917  0.00  0.00    +0.000 OA
ATOM     19  H   UNL     1       5.542   3.161  13.047  0.00  0.00    +0.000 HD
ENDBRANCH  17  18
ENDBRANCH   1  17
TORSDOF 2
ENDMDL
MODEL 3
REMARK VINA RESULT:      -7.4      2.006      3.430
REMARK  Name = 
REMARK  2 active torsions:
REMARK  status: ('A' for Active; 'I' for Inactive)
REMARK    1  A    between atoms: C_2  and  O_3
REMARK    2  A    between atoms: C_2  and  C_4
REMARK                            x       y       z     vdW  Elec       q    Type
REMARK                         _______ _______ _______ _____ _____    ______ ____
ROOT
ATOM      1  C   UNL     1       5.898   5.014  15.883  0.00  0.00    +0.000 A 
ATOM      2  C   UNL     1       5.816   4.084  16.928  0.00  0.00    +0.000 A 
ATOM      3  C   UNL     1       4.978   4.329  18.017  0.00  0.00    +0.000 A 
ATOM      4  C   UNL     1       4.218   5.502  18.053  0.00  0.00    +0.000 A 
ATOM      5  C   UNL     1       3.357   5.806  19.207  0.00  0.00    +0.000 A 
ATOM      6  O   UNL     1       3.266   5.038  20.155  0.00  0.00    +0.000 OA
ATOM      7  C   UNL     1       2.633   7.084  19.171  0.00  0.00    +0.000 A 
ATOM      8  C   UNL     1       1.847   7.492  20.253  0.00  0.00    +0.000 A 
ATOM      9  C   UNL     1       1.172   8.713  20.193  0.00  0.00    +0.000 A 
ATOM     10  C   UNL     1       1.277   9.514  19.054  0.00  0.00    +0.000 A 
ATOM     11  C   UNL     1       2.064   9.100  17.977  0.00  0.00    +0.000 A 
ATOM     12  C   UNL     1       2.752   7.887  18.038  0.00  0.00    +0.000 A 
ATOM     13  O   UNL     1       3.528   7.569  16.950  0.00  0.00    +0.000 OA
ATOM     14  C   UNL     1       4.271   6.412  16.998  0.00  0.00    +0.000 A 
ATOM     15  C   UNL     1       5.107   6.171  15.908  0.00  0.00    +0.000 A 
ENDROOT
BRANCH   1  17
ATOM     16  O   UNL     1       7.745   5.433  14.452  0.00  0.00    +0.000 OA
ATOM     17  C   UNL     1       6.808   4.716  14.750  0.00  0.00    +0.000 C 
BRANCH  17  18
ATOM     18  O   UNL     1       6.474   3.605  14.062  0.00  0.00    +0.000 OA
ATOM     19  H   UNL     1       5.978   3.757  13.236  0.00  0.00    +0.000 HD
ENDBRANCH  17  18
ENDBRANCH   1  17
TORSDOF 2
ENDMDL
MODEL 4
REMARK VINA RESULT:      -7.3      2.174      2.903
REMARK  Name = 
REMARK  2 active torsions:
REMARK  status: ('A' for Active; 'I' for Inactive)
REMARK    1  A    between atoms: C_2  and  O_3
REMARK    2  A    between atoms: C_2  and  C_4
REMARK                            x       y       z     vdW  Elec       q    Type
REMARK                         _______ _______ _______ _____ _____    ______ ____
ROOT
ATOM      1  C   UNL     1       6.434   6.217  17.701  0.00  0.00    +0.000 A 
ATOM      2  C   UNL     1       5.950   5.783  16.461  0.00  0.00    +0.000 A 
ATOM      3  C   UNL     1       4.789   5.009  16.395  0.00  0.00    +0.000 A 
ATOM      4  C   UNL     1       4.112   4.681  17.574  0.00  0.00    +0.000 A 
ATOM      5  C   UNL     1       2.910   3.833  17.539  0.00  0.00    +0.000 A 
ATOM      6  O   UNL     1       2.458   3.409  16.485  0.00  0.00    +0.000 OA
ATOM      7  C   UNL     1       2.296   3.506  18.834  0.00  0.00    +0.000 A 
ATOM      8  C   UNL     1       1.193   2.649  18.907  0.00  0.00    +0.000 A 
ATOM      9  C   UNL     1       0.632   2.353  20.150  0.00  0.00    +0.000 A 
ATOM     10  C   UNL     1       1.165   2.919  21.310  0.00  0.00    +0.000 A 
ATOM     11  C   UNL     1       2.268   3.773  21.230  0.00  0.00    +0.000 A 
ATOM     12  C   UNL     1       2.841   4.061  19.990  0.00  0.00    +0.000 A 
ATOM     13  O   UNL     1       3.940   4.885  20.001  0.00  0.00    +0.000 OA
ATOM     14  C   UNL     1       4.572   5.141  18.807  0.00  0.00    +0.000 A 
ATOM     15  C   UNL     1       5.731   5.914  18.876  0.00  0.00    +0.000 A 
ENDROOT
BRANCH   1  17
ATOM     16  O   UNL     1       8.067   7.659  16.758  0.00  0.00    +0.000 OA
ATOM     17  C   UNL     1       7.674   7.030  17.724  0.00  0.00    +0.000 C 
BRANCH  17  18
ATOM     18  O   UNL     1       8.341   6.972  18.894  0.00  0.00    +0.000 OA
ATOM     19  H   UNL     1       8.621   6.081  19.174  0.00  0.00    +0.000 HD
ENDBRANCH  17  18
ENDBRANCH   1  17
TORSDOF 2
ENDMDL
MODEL 5
REMARK VINA RESULT:      -7.1      3.280      5.293
REMARK  Name = 
REMARK  2 active torsions:
REMARK  status: ('A' for Active; 'I' for Inactive)
REMARK    1  A    between atoms: C_2  and  O_3
REMARK    2  A    between atoms: C_2  and  C_4
REMARK                            x       y       z     vdW  Elec       q    Type
REMARK                         _______ _______ _______ _____ _____    ______ ____
ROOT
ATOM      1  C   UNL     1       3.634   4.785  19.043  0.00  0.00    +0.000 A 
ATOM      2  C   UNL     1       3.901   5.460  17.845  0.00  0.00    +0.000 A 
ATOM      3  C   UNL     1       3.378   6.737  17.632  0.00  0.00    +0.000 A 
ATOM      4  C   UNL     1       2.596   7.337  18.623  0.00  0.00    +0.000 A 
ATOM      5  C   UNL     1       1.998   8.664  18.409  0.00  0.00    +0.000 A 
ATOM      6  O   UNL     1       2.181   9.288  17.373  0.00  0.00    +0.000 OA
ATOM      7  C   UNL     1       1.156   9.191  19.493  0.00  0.00    +0.000 A 
ATOM      8  C   UNL     1       0.488  10.411  19.352  0.00  0.00    +0.000 A 
ATOM      9  C   UNL     1      -0.309  10.885  20.395  0.00  0.00    +0.000 A 
ATOM     10  C   UNL     1      -0.428  10.147  21.575  0.00  0.00    +0.000 A 
ATOM     11  C   UNL     1       0.242   8.928  21.708  0.00  0.00    +0.000 A 
ATOM     12  C   UNL     1       1.028   8.443  20.662  0.00  0.00    +0.000 A 
ATOM     13  O   UNL     1       1.627   7.223  20.862  0.00  0.00    +0.000 OA
ATOM     14  C   UNL     1       2.358   6.681  19.831  0.00  0.00    +0.000 A 
ATOM     15  C   UNL     1       2.879   5.406  20.047  0.00  0.00    +0.000 A 
ENDROOT
BRANCH   1  17
ATOM     16  O   UNL     1       3.531   2.471  19.563  0.00  0.00    +0.000 OA
ATOM     17  C   UNL     1       4.203   3.427  19.223  0.00  0.00    +0.000 C 
BRANCH  17  18
ATOM     18  O   UNL     1       5.535   3.364  19.016  0.00  0.00    +0.000 OA
ATOM     19  H   UNL     1       6.080   3.890  19.630  0.00  0.00    +0.000 HD
ENDBRANCH  17  18
ENDBRANCH   1  17
TORSDOF 2
ENDMDL
MODEL 6
REMARK VINA RESULT:      -7.1      1.859      5.901
REMARK  Name = 
REMARK  2 active torsions:
REMARK  status: ('A' for Active; 'I' for Inactive)
REMARK    1  A    between atoms: C_2  and  O_3
REMARK    2  A    between atoms: C_2  and  C_4
REMARK                            x       y       z     vdW  Elec       q    Type
REMARK                         _______ _______ _______ _____ _____    ______ ____
ROOT
ATOM      1  C   UNL     1       2.573   3.679  20.453  0.00  0.00    +0.000 A 
ATOM      2  C   UNL     1       2.320   5.057  20.476  0.00  0.00    +0.000 A 
ATOM      3  C   UNL     1       2.817   5.876  19.461  0.00  0.00    +0.000 A 
ATOM      4  C   UNL     1       3.560   5.311  18.420  0.00  0.00    +0.000 A 
ATOM      5  C   UNL     1       4.132   6.154  17.359  0.00  0.00    +0.000 A 
ATOM      6  O   UNL     1       3.960   7.366  17.344  0.00  0.00    +0.000 OA
ATOM      7  C   UNL     1       4.934   5.472  16.334  0.00  0.00    +0.000 A 
ATOM      8  C   UNL     1       5.576   6.198  15.327  0.00  0.00    +0.000 A 
ATOM      9  C   UNL     1       6.335   5.525  14.368  0.00  0.00    +0.000 A 
ATOM     10  C   UNL     1       6.442   4.134  14.413  0.00  0.00    +0.000 A 
ATOM     11  C   UNL     1       5.799   3.414  15.423  0.00  0.00    +0.000 A 
ATOM     12  C   UNL     1       5.051   4.085  16.392  0.00  0.00    +0.000 A 
ATOM     13  O   UNL     1       4.476   3.307  17.367  0.00  0.00    +0.000 OA
ATOM     14  C   UNL     1       3.783   3.935  18.376  0.00  0.00    +0.000 A 
ATOM     15  C   UNL     1       3.288   3.114  19.388  0.00  0.00    +0.000 A 
ENDROOT
BRANCH   1  17
ATOM     16  O   UNL     1       2.744   2.247  22.338  0.00  0.00    +0.000 OA
ATOM     17  C   UNL     1       2.031   2.849  21.556  0.00  0.00    +0.000 C 
BRANCH  17  18
ATOM     18  O   UNL     1       0.684   2.793  21.584  0.00  0.00    +0.000 OA
ATOM     19  H   UNL     1       0.304   2.128  22.188  0.00  0.00    +0.000 HD
ENDBRANCH  17  18
ENDBRANCH   1  17
TORSDOF 2
ENDMDL
MODEL 7
REMARK VINA RESULT:      -7.0      2.226      6.428
REMARK  Name = 
REMARK  2 active torsions:
REMARK  status: ('A' for Active; 'I' for Inactive)
REMARK    1  A    between atoms: C_2  and  O_3
REMARK    2  A    between atoms: C_2  and  C_4
REMARK                            x       y       z     vdW  Elec       q    Type
REMARK                         _______ _______ _______ _____ _____    ______ ____
ROOT
ATOM      1  C   UNL     1       1.608   7.055  20.603  0.00  0.00    +0.000 A 
ATOM      2  C   UNL     1       1.488   5.712  20.986  0.00  0.00    +0.000 A 
ATOM      3  C   UNL     1       2.148   4.718  20.261  0.00  0.00    +0.000 A 
ATOM      4  C   UNL     1       2.934   5.073  19.160  0.00  0.00    +0.000 A 
ATOM      5  C   UNL     1       3.607   4.044  18.353  0.00  0.00    +0.000 A 
ATOM      6  O   UNL     1       3.518   2.855  18.630  0.00  0.00    +0.000 OA
ATOM      7  C   UNL     1       4.373   4.513  17.190  0.00  0.00    +0.000 A 
ATOM      8  C   UNL     1       4.988   3.605  16.323  0.00  0.00    +0.000 A 
ATOM      9  C   UNL     1       5.706   4.079  15.224  0.00  0.00    +0.000 A 
ATOM     10  C   UNL     1       5.814   5.453  15.000  0.00  0.00    +0.000 A 
ATOM     11  C   UNL     1       5.196   6.355  15.869  0.00  0.00    +0.000 A 
ATOM     12  C   UNL     1       4.465   5.885  16.962  0.00  0.00    +0.000 A 
ATOM     13  O   UNL     1       3.864   6.836  17.749  0.00  0.00    +0.000 OA
ATOM     14  C   UNL     1       3.082   6.412  18.799  0.00  0.00    +0.000 A 
ATOM     15  C   UNL     1       2.425   7.407  19.521  0.00  0.00    +0.000 A 
ENDROOT
BRANCH   1  17
ATOM     16  O   UNL     1      -0.320   8.245  21.313  0.00  0.00    +0.000 OA
ATOM     17  C   UNL     1       0.883   8.076  21.397  0.00  0.00    +0.000 C 
BRANCH  17  18
ATOM     18  O   UNL     1       1.684   8.822  22.186  0.00  0.00    +0.000 OA
ATOM     19  H   UNL     1       1.230   9.488  22.735  0.00  0.00    +0.000 HD
ENDBRANCH  17  18
ENDBRANCH   1  17
TORSDOF 2
ENDMDL
MODEL 8
REMARK VINA RESULT:      -7.0      1.904      6.199
REMARK  Name = 
REMARK  2 active torsions:
REMARK  status: ('A' for Active; 'I' for Inactive)
REMARK    1  A    between atoms: C_2  and  O_3
REMARK    2  A    between atoms: C_2  and  C_4
REMARK                            x       y       z     vdW  Elec       q    Type
REMARK                         _______ _______ _______ _____ _____    ______ ____
ROOT
ATOM      1  C   UNL     1       3.988   3.997  18.829  0.00  0.00    +0.000 A 
ATOM      2  C   UNL     1       4.902   4.979  19.232  0.00  0.00    +0.000 A 
ATOM      3  C   UNL     1       5.819   5.499  18.315  0.00  0.00    +0.000 A 
ATOM      4  C   UNL     1       5.810   5.039  16.995  0.00  0.00    +0.000 A 
ATOM      5  C   UNL     1       6.791   5.538  16.019  0.00  0.00    +0.000 A 
ATOM      6  O   UNL     1       7.625   6.379  16.323  0.00  0.00    +0.000 OA
ATOM      7  C   UNL     1       6.731   4.960  14.668  0.00  0.00    +0.000 A 
ATOM      8  C   UNL     1       7.665   5.319  13.693  0.00  0.00    +0.000 A 
ATOM      9  C   UNL     1       7.586   4.752  12.420  0.00  0.00    +0.000 A 
ATOM     10  C   UNL     1       6.572   3.839  12.124  0.00  0.00    +0.000 A 
ATOM     11  C   UNL     1       5.641   3.484  13.103  0.00  0.00    +0.000 A 
ATOM     12  C   UNL     1       5.725   4.038  14.382  0.00  0.00    +0.000 A 
ATOM     13  O   UNL     1       4.791   3.613  15.294  0.00  0.00    +0.000 OA
ATOM     14  C   UNL     1       4.879   4.087  16.583  0.00  0.00    +0.000 A 
ATOM     15  C   UNL     1       3.962   3.566  17.496  0.00  0.00    +0.000 A 
ENDROOT
BRANCH   1  17
ATOM     16  O   UNL     1       3.363   2.661  20.689  0.00  0.00    +0.000 OA
ATOM     17  C   UNL     1       3.038   3.469  19.838  0.00  0.00    +0.000 C 
BRANCH  17  18
ATOM     18  O   UNL     1       1.780   3.934  19.697  0.00  0.00    +0.000 OA
ATOM     19  H   UNL     1       1.481   4.551  20.390  0.00  0.00    +0.000 HD
ENDBRANCH  17  18
ENDBRANCH   1  17
TORSDOF 2
ENDMDL
MODEL 9
REMARK VINA RESULT:      -6.8      3.961      7.430
REMARK  Name = 
REMARK  2 active torsions:
REMARK  status: ('A' for Active; 'I' for Inactive)
REMARK    1  A    between atoms: C_2  and  O_3
REMARK    2  A    between atoms: C_2  and  C_4
REMARK                            x       y       z     vdW  Elec       q    Type
REMARK                         _______ _______ _______ _____ _____    ______ ____
ROOT
ATOM      1  C   UNL     1       0.179   9.662  21.712  0.00  0.00    +0.000 A 
ATOM      2  C   UNL     1       0.131  10.467  20.567  0.00  0.00    +0.000 A 
ATOM      3  C   UNL     1       0.785  10.064  19.400  0.00  0.00    +0.000 A 
ATOM      4  C   UNL     1       1.479   8.850  19.384  0.00  0.00    +0.000 A 
ATOM      5  C   UNL     1       2.212   8.419  18.183  0.00  0.00    +0.000 A 
ATOM      6  O   UNL     1       2.221   9.095  17.163  0.00  0.00    +0.000 OA
ATOM      7  C   UNL     1       2.947   7.150  18.278  0.00  0.00    +0.000 A 
ATOM      8  C   UNL     1       3.730   6.694  17.214  0.00  0.00    +0.000 A 
ATOM      9  C   UNL     1       4.421   5.487  17.333  0.00  0.00    +0.000 A 
ATOM     10  C   UNL     1       4.320   4.738  18.507  0.00  0.00    +0.000 A 
ATOM     11  C   UNL     1       3.537   5.200  19.567  0.00  0.00    +0.000 A 
ATOM     12  C   UNL     1       2.856   6.413  19.458  0.00  0.00    +0.000 A 
ATOM     13  O   UNL     1       2.133   6.810  20.556  0.00  0.00    +0.000 OA
ATOM     14  C   UNL     1       1.499   8.030  20.512  0.00  0.00    +0.000 A 
ATOM     15  C   UNL     1       0.847   8.430  21.678  0.00  0.00    +0.000 A 
ENDROOT
BRANCH   1  17
ATOM     16  O   UNL     1      -1.355  11.021  22.908  0.00  0.00    +0.000 OA
ATOM     17  C   UNL     1      -0.523  10.133  22.930  0.00  0.00    +0.000 C 
BRANCH  17  18
ATOM     18  O   UNL     1      -0.124   9.517  24.061  0.00  0.00    +0.000 OA
ATOM     19  H   UNL     1       0.594   8.867  23.953  0.00  0.00    +0.000 HD
ENDBRANCH  17  18
ENDBRANCH   1  17
TORSDOF 2
ENDMDL
