MODEL 1
REMARK VINA RESULT:      -8.7      0.000      0.000
REMARK  Name = 
REMARK  9 active torsions:
REMARK  status: ('A' for Active; 'I' for Inactive)
REMARK    1  A    between atoms: C_1  and  C_2
REMARK    2  A    between atoms: C_2  and  O_3
REMARK    3  A    between atoms: O_3  and  C_4
REMARK    4  A    between atoms: C_9  and  N_10
REMARK    5  A    between atoms: N_13  and  C_14
REMARK    6  A    between atoms: C_14  and  C_15
REMARK    7  A    between atoms: C_15  and  N_16
REMARK    8  A    between atoms: C_18  and  C_19
REMARK    9  A    between atoms: C_22  and  C_23
REMARK                            x       y       z     vdW  Elec       q    Type
REMARK                         _______ _______ _______ _____ _____    ______ ____
ROOT
ATOM      1  N   UNL     1       0.073   9.565  21.216  0.00  0.00    +0.000 N 
ATOM      2  N   UNL     1       0.060  10.127  19.954  0.00  0.00    +0.000 NA
ATOM      3  C   UNL     1      -0.469  11.319  19.884  0.00  0.00    +0.000 A 
ATOM      4  C   UNL     1      -1.494  11.774  20.827  0.00  0.00    +0.000 A 
ATOM      5  C   UNL     1      -2.574  12.602  20.512  0.00  0.00    +0.000 A 
ATOM      6  C   UNL     1      -3.361  13.110  21.553  0.00  0.00    +0.000 A 
ATOM      7  C   UNL     1      -3.062  12.788  22.870  0.00  0.00    +0.000 A 
ATOM      8  C   UNL     1      -2.012  11.902  23.172  0.00  0.00    +0.000 A 
ATOM      9  C   UNL     1      -1.248  11.375  22.138  0.00  0.00    +0.000 A 
ATOM     10  C   UNL     1      -0.216  10.327  22.354  0.00  0.00    +0.000 A 
ATOM     11  O   UNL     1       0.243  10.136  23.475  0.00  0.00    +0.000 OA
ENDROOT
BRANCH   3  12
ATOM     12  C   UNL     1       0.383  12.357  19.250  0.00  0.00    +0.000 A 
ATOM     13  C   UNL     1       0.217  13.728  19.397  0.00  0.00    +0.000 A 
ATOM     14  C   UNL     1       1.242  14.582  18.983  0.00  0.00    +0.000 A 
ATOM     15  C   UNL     1       2.421  14.069  18.418  0.00  0.00    +0.000 A 
ATOM     16  C   UNL     1       3.511  14.966  17.930  0.00  0.00    +0.000 C 
ATOM     17  C   UNL     1       2.589  12.692  18.294  0.00  0.00    +0.000 A 
ATOM     18  C   UNL     1       1.574  11.845  18.703  0.00  0.00    +0.000 A 
ENDBRANCH   3  12
BRANCH   1  19
ATOM     19  C   UNL     1       0.724   8.265  21.319  0.00  0.00    +0.000 C 
BRANCH  19  20
ATOM     20  C   UNL     1       1.989   8.026  20.456  0.00  0.00    +0.000 C 
BRANCH  20  24
ATOM     21  N   UNL     1       4.165   6.178  17.924  0.00  0.00    +0.000 N 
ATOM     22  C   UNL     1       3.554   7.480  17.644  0.00  0.00    +0.000 C 
ATOM     23  C   UNL     1       2.055   7.443  18.040  0.00  0.00    +0.000 C 
ATOM     24  N   UNL     1       1.738   6.996  19.419  0.00  0.00    +0.000 NA
ATOM     25  C   UNL     1       2.452   5.720  19.663  0.00  0.00    +0.000 C 
ATOM     26  C   UNL     1       3.963   5.714  19.311  0.00  0.00    +0.000 C 
BRANCH  21  32
ATOM     27  C   UNL     1       6.242   6.109  16.533  0.00  0.00    +0.000 A 
ATOM     28  C   UNL     1       7.072   5.365  15.665  0.00  0.00    +0.000 A 
ATOM     29  C   UNL     1       6.691   4.112  15.202  0.00  0.00    +0.000 A 
ATOM     30  C   UNL     1       5.498   3.569  15.639  0.00  0.00    +0.000 A 
ATOM     31  C   UNL     1       4.705   4.269  16.555  0.00  0.00    +0.000 A 
ATOM     32  C   UNL     1       5.044   5.548  17.049  0.00  0.00    +0.000 A 
BRANCH  27  33
ATOM     33  O   UNL     1       6.613   7.381  16.917  0.00  0.00    +0.000 OA
BRANCH  33  35
ATOM     34  C   UNL     1       8.183   8.870  17.975  0.00  0.00    +0.000 C 
ATOM     35  C   UNL     1       7.716   7.435  17.829  0.00  0.00    +0.000 C 
ENDBRANCH  33  35
ENDBRANCH  27  33
ENDBRANCH  21  32
ENDBRANCH  20  24
ENDBRANCH  19  20
ENDBRANCH   1  19
TORSDOF 7
ENDMDL
MODEL 2
REMARK VINA RESULT:      -8.3      4.464      8.664
REMARK  Name = 
REMARK  9 active torsions:
REMARK  status: ('A' for Active; 'I' for Inactive)
REMARK    1  A    between atoms: C_1  and  C_2
REMARK    2  A    between atoms: C_2  and  O_3
REMARK    3  A    between atoms: O_3  and  C_4
REMARK    4  A    between atoms: C_9  and  N_10
REMARK    5  A    between atoms: N_13  and  C_14
REMARK    6  A    between atoms: C_14  and  C_15
REMARK    7  A    between atoms: C_15  and  N_16
REMARK    8  A    between atoms: C_18  and  C_19
REMARK    9  A    between atoms: C_22  and  C_23
REMARK                            x       y       z     vdW  Elec       q    Type
REMARK                         _______ _______ _______ _____ _____    ______ ____
ROOT
ATOM      1  N   UNL     1       8.856  10.541  18.563  0.00  0.00    +0.000 N 
ATOM      2  N   UNL     1       9.295  10.461  19.871  0.00  0.00    +0.000 NA
ATOM      3  C   UNL     1       9.922  11.517  20.310  0.00  0.00    +0.000 A 
ATOM      4  C   UNL     1      10.654  12.419  19.416  0.00  0.00    +0.000 A 
ATOM      5  C   UNL     1      11.846  13.077  19.726  0.00  0.00    +0.000 A 
ATOM      6  C   UNL     1      12.327  14.055  18.847  0.00  0.00    +0.000 A 
ATOM      7  C   UNL     1      11.620  14.355  17.690  0.00  0.00    +0.000 A 
ATOM      8  C   UNL     1      10.456  13.641  17.354  0.00  0.00    +0.000 A 
ATOM      9  C   UNL     1       9.993  12.652  18.212  0.00  0.00    +0.000 A 
ATOM     10  C   UNL     1       8.857  11.756  17.869  0.00  0.00    +0.000 A 
ATOM     11  O   UNL     1       8.068  12.073  16.985  0.00  0.00    +0.000 OA
ENDROOT
BRANCH   3  12
ATOM     12  C   UNL     1       9.392  12.093  21.573  0.00  0.00    +0.000 A 
ATOM     13  C   UNL     1       9.148  13.441  21.797  0.00  0.00    +0.000 A 
ATOM     14  C   UNL     1       8.395  13.816  22.913  0.00  0.00    +0.000 A 
ATOM     15  C   UNL     1       7.896  12.850  23.801  0.00  0.00    +0.000 A 
ATOM     16  C   UNL     1       7.124  13.231  25.022  0.00  0.00    +0.000 C 
ATOM     17  C   UNL     1       8.127  11.498  23.556  0.00  0.00    +0.000 A 
ATOM     18  C   UNL     1       8.873  11.125  22.453  0.00  0.00    +0.000 A 
ENDBRANCH   3  12
BRANCH   1  19
ATOM     19  C   UNL     1       8.094   9.394  18.083  0.00  0.00    +0.000 C 
BRANCH  19  20
ATOM     20  C   UNL     1       8.320   8.036  18.793  0.00  0.00    +0.000 C 
BRANCH  20  24
ATOM     21  N   UNL     1       5.317   5.740  18.268  0.00  0.00    +0.000 N 
ATOM     22  C   UNL     1       6.366   5.462  19.253  0.00  0.00    +0.000 C 
ATOM     23  C   UNL     1       7.757   5.623  18.586  0.00  0.00    +0.000 C 
ATOM     24  N   UNL     1       8.017   6.903  17.884  0.00  0.00    +0.000 NA
ATOM     25  C   UNL     1       6.882   7.163  16.967  0.00  0.00    +0.000 C 
ATOM     26  C   UNL     1       5.468   7.045  17.593  0.00  0.00    +0.000 C 
BRANCH  21  32
ATOM     27  C   UNL     1       2.864   5.348  18.557  0.00  0.00    +0.000 A 
ATOM     28  C   UNL     1       1.762   4.486  18.360  0.00  0.00    +0.000 A 
ATOM     29  C   UNL     1       1.933   3.202  17.861  0.00  0.00    +0.000 A 
ATOM     30  C   UNL     1       3.202   2.781  17.509  0.00  0.00    +0.000 A 
ATOM     31  C   UNL     1       4.288   3.655  17.635  0.00  0.00    +0.000 A 
ATOM     32  C   UNL     1       4.168   4.966  18.144  0.00  0.00    +0.000 A 
BRANCH  27  33
ATOM     33  O   UNL     1       2.672   6.591  19.125  0.00  0.00    +0.000 OA
BRANCH  33  35
ATOM     34  C   UNL     1       1.518   7.994  20.706  0.00  0.00    +0.000 C 
ATOM     35  C   UNL     1       1.942   6.581  20.357  0.00  0.00    +0.000 C 
ENDBRANCH  33  35
ENDBRANCH  27  33
ENDBRANCH  21  32
ENDBRANCH  20  24
ENDBRANCH  19  20
ENDBRANCH   1  19
TORSDOF 7
ENDMDL
MODEL 3
REMARK VINA RESULT:      -8.3      6.074      8.651
REMARK  Name = 
REMARK  9 active torsions:
REMARK  status: ('A' for Active; 'I' for Inactive)
REMARK    1  A    between atoms: C_1  and  C_2
REMARK    2  A    between atoms: C_2  and  O_3
REMARK    3  A    between atoms: O_3  and  C_4
REMARK    4  A    between atoms: C_9  and  N_10
REMARK    5  A    between atoms: N_13  and  C_14
REMARK    6  A    between atoms: C_14  and  C_15
REMARK    7  A    between atoms: C_15  and  N_16
REMARK    8  A    between atoms: C_18  and  C_19
REMARK    9  A    between atoms: C_22  and  C_23
REMARK                            x       y       z     vdW  Elec       q    Type
REMARK                         _______ _______ _______ _____ _____    ______ ____
ROOT
ATOM      1  N   UNL     1       8.974  10.762  18.557  0.00  0.00    +0.000 N 
ATOM      2  N   UNL     1       9.397  10.659  19.868  0.00  0.00    +0.000 NA
ATOM      3  C   UNL     1       9.985  11.721  20.346  0.00  0.00    +0.000 A 
ATOM      4  C   UNL     1      10.702  12.669  19.488  0.00  0.00    +0.000 A 
ATOM      5  C   UNL     1      11.870  13.352  19.835  0.00  0.00    +0.000 A 
ATOM      6  C   UNL     1      12.333  14.369  18.990  0.00  0.00    +0.000 A 
ATOM      7  C   UNL     1      11.634  14.680  17.831  0.00  0.00    +0.000 A 
ATOM      8  C   UNL     1      10.496  13.942  17.459  0.00  0.00    +0.000 A 
ATOM      9  C   UNL     1      10.052  12.915  18.282  0.00  0.00    +0.000 A 
ATOM     10  C   UNL     1       8.948  11.996  17.897  0.00  0.00    +0.000 A 
ATOM     11  O   UNL     1       8.163  12.314  17.010  0.00  0.00    +0.000 OA
ENDROOT
BRANCH   3  12
ATOM     12  C   UNL     1       9.421  12.244  21.616  0.00  0.00    +0.000 A 
ATOM     13  C   UNL     1       9.265  13.588  21.929  0.00  0.00    +0.000 A 
ATOM     14  C   UNL     1       8.473  13.941  23.024  0.00  0.00    +0.000 A 
ATOM     15  C   UNL     1       7.846  12.956  23.805  0.00  0.00    +0.000 A 
ATOM     16  C   UNL     1       7.029  13.309  25.004  0.00  0.00    +0.000 C 
ATOM     17  C   UNL     1       7.989  11.611  23.471  0.00  0.00    +0.000 A 
ATOM     18  C   UNL     1       8.775  11.260  22.387  0.00  0.00    +0.000 A 
ENDBRANCH   3  12
BRANCH   1  19
ATOM     19  C   UNL     1       8.253   9.608  18.034  0.00  0.00    +0.000 C 
BRANCH  19  20
ATOM     20  C   UNL     1       8.413   8.263  18.787  0.00  0.00    +0.000 C 
BRANCH  20  24
ATOM     21  N   UNL     1       5.491   5.902  18.109  0.00  0.00    +0.000 N 
ATOM     22  C   UNL     1       6.482   5.657  19.161  0.00  0.00    +0.000 C 
ATOM     23  C   UNL     1       7.908   5.837  18.579  0.00  0.00    +0.000 C 
ATOM     24  N   UNL     1       8.188   7.113  17.876  0.00  0.00    +0.000 NA
ATOM     25  C   UNL     1       7.107   7.340  16.888  0.00  0.00    +0.000 C 
ATOM     26  C   UNL     1       5.659   7.201  17.427  0.00  0.00    +0.000 C 
BRANCH  21  32
ATOM     27  C   UNL     1       4.271   4.001  17.037  0.00  0.00    +0.000 A 
ATOM     28  C   UNL     1       3.080   3.246  16.949  0.00  0.00    +0.000 A 
ATOM     29  C   UNL     1       1.936   3.623  17.641  0.00  0.00    +0.000 A 
ATOM     30  C   UNL     1       1.983   4.731  18.465  0.00  0.00    +0.000 A 
ATOM     31  C   UNL     1       3.180   5.442  18.612  0.00  0.00    +0.000 A 
ATOM     32  C   UNL     1       4.367   5.105  17.925  0.00  0.00    +0.000 A 
BRANCH  27  33
ATOM     33  O   UNL     1       5.368   3.645  16.280  0.00  0.00    +0.000 OA
BRANCH  33  35
ATOM     34  C   UNL     1       5.369   3.825  13.878  0.00  0.00    +0.000 C 
ATOM     35  C   UNL     1       5.656   4.529  15.190  0.00  0.00    +0.000 C 
ENDBRANCH  33  35
ENDBRANCH  27  33
ENDBRANCH  21  32
ENDBRANCH  20  24
ENDBRANCH  19  20
ENDBRANCH   1  19
TORSDOF 7
ENDMDL
MODEL 4
REMARK VINA RESULT:      -8.1      1.299      2.316
REMARK  Name = 
REMARK  9 active torsions:
REMARK  status: ('A' for Active; 'I' for Inactive)
REMARK    1  A    between atoms: C_1  and  C_2
REMARK    2  A    between atoms: C_2  and  O_3
REMARK    3  A    between atoms: O_3  and  C_4
REMARK    4  A    between atoms: C_9  and  N_10
REMARK    5  A    between atoms: N_13  and  C_14
REMARK    6  A    between atoms: C_14  and  C_15
REMARK    7  A    between atoms: C_15  and  N_16
REMARK    8  A    between atoms: C_18  and  C_19
REMARK    9  A    between atoms: C_22  and  C_23
REMARK                            x       y       z     vdW  Elec       q    Type
REMARK                         _______ _______ _______ _____ _____    ______ ____
ROOT
ATOM      1  N   UNL     1       0.014   9.714  21.413  0.00  0.00    +0.000 N 
ATOM      2  N   UNL     1       0.164  10.408  20.228  0.00  0.00    +0.000 NA
ATOM      3  C   UNL     1      -0.347  11.609  20.221  0.00  0.00    +0.000 A 
ATOM      4  C   UNL     1      -1.483  11.978  21.070  0.00  0.00    +0.000 A 
ATOM      5  C   UNL     1      -2.511  12.853  20.712  0.00  0.00    +0.000 A 
ATOM      6  C   UNL     1      -3.423  13.261  21.694  0.00  0.00    +0.000 A 
ATOM      7  C   UNL     1      -3.296  12.795  22.995  0.00  0.00    +0.000 A 
ATOM      8  C   UNL     1      -2.297  11.863  23.330  0.00  0.00    +0.000 A 
ATOM      9  C   UNL     1      -1.409  11.437  22.351  0.00  0.00    +0.000 A 
ATOM     10  C   UNL     1      -0.416  10.354  22.581  0.00  0.00    +0.000 A 
ATOM     11  O   UNL     1      -0.105  10.036  23.724  0.00  0.00    +0.000 OA
ENDROOT
BRANCH   3  12
ATOM     12  C   UNL     1       0.583  12.694  19.817  0.00  0.00    +0.000 A 
ATOM     13  C   UNL     1       0.520  13.398  18.621  0.00  0.00    +0.000 A 
ATOM     14  C   UNL     1       1.269  14.569  18.486  0.00  0.00    +0.000 A 
ATOM     15  C   UNL     1       2.080  15.030  19.535  0.00  0.00    +0.000 A 
ATOM     16  C   UNL     1       2.920  16.257  19.396  0.00  0.00    +0.000 C 
ATOM     17  C   UNL     1       2.119  14.331  20.739  0.00  0.00    +0.000 A 
ATOM     18  C   UNL     1       1.379  13.170  20.875  0.00  0.00    +0.000 A 
ENDBRANCH   3  12
BRANCH   1  19
ATOM     19  C   UNL     1       0.642   8.399  21.456  0.00  0.00    +0.000 C 
BRANCH  19  20
ATOM     20  C   UNL     1       1.891   8.171  20.568  0.00  0.00    +0.000 C 
BRANCH  20  24
ATOM     21  N   UNL     1       4.055   6.229  18.096  0.00  0.00    +0.000 N 
ATOM     22  C   UNL     1       3.496   7.550  17.795  0.00  0.00    +0.000 C 
ATOM     23  C   UNL     1       1.988   7.568  18.158  0.00  0.00    +0.000 C 
ATOM     24  N   UNL     1       1.627   7.143  19.532  0.00  0.00    +0.000 NA
ATOM     25  C   UNL     1       2.289   5.845  19.800  0.00  0.00    +0.000 C 
ATOM     26  C   UNL     1       3.806   5.783  19.481  0.00  0.00    +0.000 C 
BRANCH  21  32
ATOM     27  C   UNL     1       4.704   4.290  16.657  0.00  0.00    +0.000 A 
ATOM     28  C   UNL     1       5.658   3.718  15.786  0.00  0.00    +0.000 A 
ATOM     29  C   UNL     1       6.887   4.325  15.564  0.00  0.00    +0.000 A 
ATOM     30  C   UNL     1       7.158   5.535  16.174  0.00  0.00    +0.000 A 
ATOM     31  C   UNL     1       6.190   6.143  16.982  0.00  0.00    +0.000 A 
ATOM     32  C   UNL     1       4.930   5.562  17.245  0.00  0.00    +0.000 A 
BRANCH  27  33
ATOM     33  O   UNL     1       3.523   3.626  16.915  0.00  0.00    +0.000 OA
BRANCH  33  35
ATOM     34  C   UNL     1       2.715   2.302  18.758  0.00  0.00    +0.000 C 
ATOM     35  C   UNL     1       3.676   2.370  17.588  0.00  0.00    +0.000 C 
ENDBRANCH  33  35
ENDBRANCH  27  33
ENDBRANCH  21  32
ENDBRANCH  20  24
ENDBRANCH  19  20
ENDBRANCH   1  19
TORSDOF 7
ENDMDL
MODEL 5
REMARK VINA RESULT:      -7.9      1.865     10.031
REMARK  Name = 
REMARK  9 active torsions:
REMARK  status: ('A' for Active; 'I' for Inactive)
REMARK    1  A    between atoms: C_1  and  C_2
REMARK    2  A    between atoms: C_2  and  O_3
REMARK    3  A    between atoms: O_3  and  C_4
REMARK    4  A    between atoms: C_9  and  N_10
REMARK    5  A    between atoms: N_13  and  C_14
REMARK    6  A    between atoms: C_14  and  C_15
REMARK    7  A    between atoms: C_15  and  N_16
REMARK    8  A    between atoms: C_18  and  C_19
REMARK    9  A    between atoms: C_22  and  C_23
REMARK                            x       y       z     vdW  Elec       q    Type
REMARK                         _______ _______ _______ _____ _____    ______ ____
ROOT
ATOM      1  N   UNL     1       3.611   7.355  17.517  0.00  0.00    +0.000 N 
ATOM      2  N   UNL     1       2.701   6.320  17.617  0.00  0.00    +0.000 NA
ATOM      3  C   UNL     1       3.210   5.123  17.509  0.00  0.00    +0.000 A 
ATOM      4  C   UNL     1       4.436   4.861  16.749  0.00  0.00    +0.000 A 
ATOM      5  C   UNL     1       4.688   3.718  15.987  0.00  0.00    +0.000 A 
ATOM      6  C   UNL     1       5.977   3.519  15.475  0.00  0.00    +0.000 A 
ATOM      7  C   UNL     1       6.975   4.451  15.727  0.00  0.00    +0.000 A 
ATOM      8  C   UNL     1       6.693   5.630  16.440  0.00  0.00    +0.000 A 
ATOM      9  C   UNL     1       5.409   5.841  16.925  0.00  0.00    +0.000 A 
ATOM     10  C   UNL     1       4.990   7.118  17.563  0.00  0.00    +0.000 A 
ATOM     11  O   UNL     1       5.833   7.895  17.998  0.00  0.00    +0.000 OA
ENDROOT
BRANCH   3  12
ATOM     12  C   UNL     1       2.884   4.190  18.618  0.00  0.00    +0.000 A 
ATOM     13  C   UNL     1       3.810   3.615  19.478  0.00  0.00    +0.000 A 
ATOM     14  C   UNL     1       3.355   2.986  20.639  0.00  0.00    +0.000 A 
ATOM     15  C   UNL     1       1.984   2.928  20.935  0.00  0.00    +0.000 A 
ATOM     16  C   UNL     1       1.473   2.225  22.150  0.00  0.00    +0.000 C 
ATOM     17  C   UNL     1       1.063   3.527  20.079  0.00  0.00    +0.000 A 
ATOM     18  C   UNL     1       1.512   4.149  18.927  0.00  0.00    +0.000 A 
ENDBRANCH   3  12
BRANCH   1  19
ATOM     19  C   UNL     1       3.066   8.694  17.705  0.00  0.00    +0.000 C 
BRANCH  19  20
ATOM     20  C   UNL     1       1.624   8.808  18.262  0.00  0.00    +0.000 C 
BRANCH  20  24
ATOM     21  N   UNL     1      -0.376  11.487  20.103  0.00  0.00    +0.000 N 
ATOM     22  C   UNL     1      -1.000  10.310  19.492  0.00  0.00    +0.000 C 
ATOM     23  C   UNL     1      -0.468  10.135  18.046  0.00  0.00    +0.000 C 
ATOM     24  N   UNL     1       1.005  10.100  17.876  0.00  0.00    +0.000 NA
ATOM     25  C   UNL     1       1.577  11.269  18.585  0.00  0.00    +0.000 C 
ATOM     26  C   UNL     1       1.099  11.471  20.046  0.00  0.00    +0.000 C 
BRANCH  21  32
ATOM     27  C   UNL     1      -1.085  12.485  22.283  0.00  0.00    +0.000 A 
ATOM     28  C   UNL     1      -1.827  13.484  22.953  0.00  0.00    +0.000 A 
ATOM     29  C   UNL     1      -2.659  14.351  22.257  0.00  0.00    +0.000 A 
ATOM     30  C   UNL     1      -2.723  14.260  20.879  0.00  0.00    +0.000 A 
ATOM     31  C   UNL     1      -1.938  13.319  20.204  0.00  0.00    +0.000 A 
ATOM     32  C   UNL     1      -1.083  12.411  20.865  0.00  0.00    +0.000 A 
BRANCH  27  33
ATOM     33  O   UNL     1      -0.326  11.590  23.008  0.00  0.00    +0.000 OA
BRANCH  33  35
ATOM     34  C   UNL     1       0.020   9.208  22.951  0.00  0.00    +0.000 C 
ATOM     35  C   UNL     1      -0.956  10.327  23.251  0.00  0.00    +0.000 C 
ENDBRANCH  33  35
ENDBRANCH  27  33
ENDBRANCH  21  32
ENDBRANCH  20  24
ENDBRANCH  19  20
ENDBRANCH   1  19
TORSDOF 7
ENDMDL
MODEL 6
REMARK VINA RESULT:      -7.8      1.287      3.702
REMARK  Name = 
REMARK  9 active torsions:
REMARK  status: ('A' for Active; 'I' for Inactive)
REMARK    1  A    between atoms: C_1  and  C_2
REMARK    2  A    between atoms: C_2  and  O_3
REMARK    3  A    between atoms: O_3  and  C_4
REMARK    4  A    between atoms: C_9  and  N_10
REMARK    5  A    between atoms: N_13  and  C_14
REMARK    6  A    between atoms: C_14  and  C_15
REMARK    7  A    between atoms: C_15  and  N_16
REMARK    8  A    between atoms: C_18  and  C_19
REMARK    9  A    between atoms: C_22  and  C_23
REMARK                            x       y       z     vdW  Elec       q    Type
REMARK                         _______ _______ _______ _____ _____    ______ ____
ROOT
ATOM      1  N   UNL     1       0.553  10.098  20.888  0.00  0.00    +0.000 N 
ATOM      2  N   UNL     1       0.220  10.772  22.047  0.00  0.00    +0.000 NA
ATOM      3  C   UNL     1       0.072  12.062  21.916  0.00  0.00    +0.000 A 
ATOM      4  C   UNL     1       0.773  12.826  20.879  0.00  0.00    +0.000 A 
ATOM      5  C   UNL     1       1.272  14.122  21.026  0.00  0.00    +0.000 A 
ATOM      6  C   UNL     1       1.745  14.796  19.893  0.00  0.00    +0.000 A 
ATOM      7  C   UNL     1       1.713  14.174  18.652  0.00  0.00    +0.000 A 
ATOM      8  C   UNL     1       1.269  12.845  18.526  0.00  0.00    +0.000 A 
ATOM      9  C   UNL     1       0.826  12.166  19.654  0.00  0.00    +0.000 A 
ATOM     10  C   UNL     1       0.474  10.721  19.637  0.00  0.00    +0.000 A 
ATOM     11  O   UNL     1       0.228  10.160  18.575  0.00  0.00    +0.000 OA
ENDROOT
BRANCH   3  12
ATOM     12  C   UNL     1      -1.216  12.609  22.411  0.00  0.00    +0.000 A 
ATOM     13  C   UNL     1      -1.352  13.519  23.452  0.00  0.00    +0.000 A 
ATOM     14  C   UNL     1      -2.579  14.162  23.631  0.00  0.00    +0.000 A 
ATOM     15  C   UNL     1      -3.664  13.892  22.783  0.00  0.00    +0.000 A 
ATOM     16  C   UNL     1      -4.997  14.536  22.983  0.00  0.00    +0.000 C 
ATOM     17  C   UNL     1      -3.513  12.994  21.728  0.00  0.00    +0.000 A 
ATOM     18  C   UNL     1      -2.298  12.356  21.548  0.00  0.00    +0.000 A 
ENDBRANCH   3  12
BRANCH   1  19
ATOM     19  C   UNL     1       0.652   8.649  21.008  0.00  0.00    +0.000 C 
BRANCH  19  20
ATOM     20  C   UNL     1       1.985   7.984  20.579  0.00  0.00    +0.000 C 
BRANCH  20  24
ATOM     21  N   UNL     1       4.156   6.178  18.012  0.00  0.00    +0.000 N 
ATOM     22  C   UNL     1       3.468   7.440  17.723  0.00  0.00    +0.000 C 
ATOM     23  C   UNL     1       1.989   7.339  18.178  0.00  0.00    +0.000 C 
ATOM     24  N   UNL     1       1.748   6.914  19.579  0.00  0.00    +0.000 NA
ATOM     25  C   UNL     1       2.534   5.683  19.828  0.00  0.00    +0.000 C 
ATOM     26  C   UNL     1       4.029   5.743  19.417  0.00  0.00    +0.000 C 
BRANCH  21  32
ATOM     27  C   UNL     1       6.226   6.143  16.611  0.00  0.00    +0.000 A 
ATOM     28  C   UNL     1       7.054   5.420  15.723  0.00  0.00    +0.000 A 
ATOM     29  C   UNL     1       6.674   4.177  15.235  0.00  0.00    +0.000 A 
ATOM     30  C   UNL     1       5.484   3.621  15.666  0.00  0.00    +0.000 A 
ATOM     31  C   UNL     1       4.693   4.301  16.600  0.00  0.00    +0.000 A 
ATOM     32  C   UNL     1       5.032   5.569  17.120  0.00  0.00    +0.000 A 
BRANCH  27  33
ATOM     33  O   UNL     1       6.596   7.408  17.020  0.00  0.00    +0.000 OA
BRANCH  33  35
ATOM     34  C   UNL     1       8.209   8.910  17.992  0.00  0.00    +0.000 C 
ATOM     35  C   UNL     1       7.814   7.463  17.772  0.00  0.00    +0.000 C 
ENDBRANCH  33  35
ENDBRANCH  27  33
ENDBRANCH  21  32
ENDBRANCH  20  24
ENDBRANCH  19  20
ENDBRANCH   1  19
TORSDOF 7
ENDMDL
MODEL 7
REMARK VINA RESULT:      -7.8      1.662      4.385
REMARK  Name = 
REMARK  9 active torsions:
REMARK  status: ('A' for Active; 'I' for Inactive)
REMARK    1  A    between atoms: C_1  and  C_2
REMARK    2  A    between atoms: C_2  and  O_3
REMARK    3  A    between atoms: O_3  and  C_4
REMARK    4  A    between atoms: C_9  and  N_10
REMARK    5  A    between atoms: N_13  and  C_14
REMARK    6  A    between atoms: C_14  and  C_15
REMARK    7  A    between atoms: C_15  and  N_16
REMARK    8  A    between atoms: C_18  and  C_19
REMARK    9  A    between atoms: C_22  and  C_23
REMARK                            x       y       z     vdW  Elec       q    Type
REMARK                         _______ _______ _______ _____ _____    ______ ____
ROOT
ATOM      1  N   UNL     1       0.574   9.635  20.783  0.00  0.00    +0.000 N 
ATOM      2  N   UNL     1       0.041  10.346  21.840  0.00  0.00    +0.000 NA
ATOM      3  C   UNL     1      -0.035  11.636  21.659  0.00  0.00    +0.000 A 
ATOM      4  C   UNL     1       0.881  12.354  20.767  0.00  0.00    +0.000 A 
ATOM      5  C   UNL     1       1.385  13.638  20.986  0.00  0.00    +0.000 A 
ATOM      6  C   UNL     1       2.094  14.270  19.956  0.00  0.00    +0.000 A 
ATOM      7  C   UNL     1       2.287  13.618  18.745  0.00  0.00    +0.000 A 
ATOM      8  C   UNL     1       1.832  12.301  18.559  0.00  0.00    +0.000 A 
ATOM      9  C   UNL     1       1.153  11.663  19.589  0.00  0.00    +0.000 A 
ATOM     10  C   UNL     1       0.764  10.229  19.529  0.00  0.00    +0.000 A 
ATOM     11  O   UNL     1       0.713   9.649  18.451  0.00  0.00    +0.000 OA
ENDROOT
BRANCH   3  12
ATOM     12  C   UNL     1      -1.377  12.233  21.879  0.00  0.00    +0.000 A 
ATOM     13  C   UNL     1      -2.214  12.712  20.880  0.00  0.00    +0.000 A 
ATOM     14  C   UNL     1      -3.548  12.986  21.190  0.00  0.00    +0.000 A 
ATOM     15  C   UNL     1      -4.040  12.790  22.490  0.00  0.00    +0.000 A 
ATOM     16  C   UNL     1      -5.452  13.116  22.852  0.00  0.00    +0.000 C 
ATOM     17  C   UNL     1      -3.199  12.288  23.481  0.00  0.00    +0.000 A 
ATOM     18  C   UNL     1      -1.877  12.017  23.176  0.00  0.00    +0.000 A 
ENDBRANCH   3  12
BRANCH   1  19
ATOM     19  C   UNL     1       0.599   8.187  20.946  0.00  0.00    +0.000 C 
BRANCH  19  20
ATOM     20  C   UNL     1       1.968   7.475  20.813  0.00  0.00    +0.000 C 
BRANCH  20  24
ATOM     21  N   UNL     1       4.180   5.891  18.136  0.00  0.00    +0.000 N 
ATOM     22  C   UNL     1       3.203   6.942  17.839  0.00  0.00    +0.000 C 
ATOM     23  C   UNL     1       1.844   6.585  18.494  0.00  0.00    +0.000 C 
ATOM     24  N   UNL     1       1.862   6.276  19.945  0.00  0.00    +0.000 NA
ATOM     25  C   UNL     1       2.924   5.271  20.187  0.00  0.00    +0.000 C 
ATOM     26  C   UNL     1       4.313   5.595  19.576  0.00  0.00    +0.000 C 
BRANCH  21  32
ATOM     27  C   UNL     1       4.866   4.206  16.420  0.00  0.00    +0.000 A 
ATOM     28  C   UNL     1       5.824   3.798  15.466  0.00  0.00    +0.000 A 
ATOM     29  C   UNL     1       7.032   4.469  15.325  0.00  0.00    +0.000 A 
ATOM     30  C   UNL     1       7.276   5.583  16.105  0.00  0.00    +0.000 A 
ATOM     31  C   UNL     1       6.302   6.035  17.003  0.00  0.00    +0.000 A 
ATOM     32  C   UNL     1       5.062   5.384  17.188  0.00  0.00    +0.000 A 
BRANCH  27  33
ATOM     33  O   UNL     1       3.708   3.475  16.587  0.00  0.00    +0.000 OA
BRANCH  33  35
ATOM     34  C   UNL     1       2.339   2.206  18.108  0.00  0.00    +0.000 C 
ATOM     35  C   UNL     1       3.750   2.521  17.655  0.00  0.00    +0.000 C 
ENDBRANCH  33  35
ENDBRANCH  27  33
ENDBRANCH  21  32
ENDBRANCH  20  24
ENDBRANCH  19  20
ENDBRANCH   1  19
TORSDOF 7
ENDMDL
MODEL 8
REMARK VINA RESULT:      -7.8      0.975      1.221
REMARK  Name = 
REMARK  9 active torsions:
REMARK  status: ('A' for Active; 'I' for Inactive)
REMARK    1  A    between atoms: C_1  and  C_2
REMARK    2  A    between atoms: C_2  and  O_3
REMARK    3  A    between atoms: O_3  and  C_4
REMARK    4  A    between atoms: C_9  and  N_10
REMARK    5  A    between atoms: N_13  and  C_14
REMARK    6  A    between atoms: C_14  and  C_15
REMARK    7  A    between atoms: C_15  and  N_16
REMARK    8  A    between atoms: C_18  and  C_19
REMARK    9  A    between atoms: C_22  and  C_23
REMARK                            x       y       z     vdW  Elec       q    Type
REMARK                         _______ _______ _______ _____ _____    ______ ____
ROOT
ATOM      1  N   UNL     1       1.156   9.238  20.195  0.00  0.00    +0.000 N 
ATOM      2  N   UNL     1       0.845  10.049  19.121  0.00  0.00    +0.000 NA
ATOM      3  C   UNL     1       0.206  11.147  19.423  0.00  0.00    +0.000 A 
ATOM      4  C   UNL     1      -0.652  11.250  20.608  0.00  0.00    +0.000 A 
ATOM      5  C   UNL     1      -1.844  11.974  20.685  0.00  0.00    +0.000 A 
ATOM      6  C   UNL     1      -2.454  12.139  21.935  0.00  0.00    +0.000 A 
ATOM      7  C   UNL     1      -1.874  11.586  23.068  0.00  0.00    +0.000 A 
ATOM      8  C   UNL     1      -0.709  10.804  22.970  0.00  0.00    +0.000 A 
ATOM      9  C   UNL     1      -0.118  10.616  21.727  0.00  0.00    +0.000 A 
ATOM     10  C   UNL     1       1.028   9.693  21.512  0.00  0.00    +0.000 A 
ATOM     11  O   UNL     1       1.713   9.331  22.462  0.00  0.00    +0.000 OA
ENDROOT
BRANCH   3  12
ATOM     12  C   UNL     1       0.818  12.401  18.916  0.00  0.00    +0.000 A 
ATOM     13  C   UNL     1       0.305  13.677  19.106  0.00  0.00    +0.000 A 
ATOM     14  C   UNL     1       1.113  14.780  18.824  0.00  0.00    +0.000 A 
ATOM     15  C   UNL     1       2.423  14.610  18.348  0.00  0.00    +0.000 A 
ATOM     16  C   UNL     1       3.290  15.775  18.001  0.00  0.00    +0.000 C 
ATOM     17  C   UNL     1       2.939  13.326  18.182  0.00  0.00    +0.000 A 
ATOM     18  C   UNL     1       2.139  12.232  18.460  0.00  0.00    +0.000 A 
ENDBRANCH   3  12
BRANCH   1  19
ATOM     19  C   UNL     1       1.931   8.044  19.878  0.00  0.00    +0.000 C 
BRANCH  19  20
ATOM     20  C   UNL     1       1.660   6.771  20.719  0.00  0.00    +0.000 C 
BRANCH  20  24
ATOM     21  N   UNL     1       4.116   5.568  18.056  0.00  0.00    +0.000 N 
ATOM     22  C   UNL     1       2.949   6.398  17.743  0.00  0.00    +0.000 C 
ATOM     23  C   UNL     1       1.692   5.801  18.429  0.00  0.00    +0.000 C 
ATOM     24  N   UNL     1       1.785   5.548  19.888  0.00  0.00    +0.000 NA
ATOM     25  C   UNL     1       3.025   4.779  20.143  0.00  0.00    +0.000 C 
ATOM     26  C   UNL     1       4.317   5.351  19.503  0.00  0.00    +0.000 C 
BRANCH  21  32
ATOM     27  C   UNL     1       6.293   5.900  16.872  0.00  0.00    +0.000 A 
ATOM     28  C   UNL     1       7.203   5.435  15.896  0.00  0.00    +0.000 A 
ATOM     29  C   UNL     1       6.886   4.367  15.066  0.00  0.00    +0.000 A 
ATOM     30  C   UNL     1       5.676   3.722  15.235  0.00  0.00    +0.000 A 
ATOM     31  C   UNL     1       4.800   4.131  16.247  0.00  0.00    +0.000 A 
ATOM     32  C   UNL     1       5.072   5.215  17.110  0.00  0.00    +0.000 A 
BRANCH  27  33
ATOM     33  O   UNL     1       6.605   7.009  17.630  0.00  0.00    +0.000 OA
BRANCH  33  35
ATOM     34  C   UNL     1       7.909   5.879  19.310  0.00  0.00    +0.000 C 
ATOM     35  C   UNL     1       7.894   6.966  18.254  0.00  0.00    +0.000 C 
ENDBRANCH  33  35
ENDBRANCH  27  33
ENDBRANCH  21  32
ENDBRANCH  20  24
ENDBRANCH  19  20
ENDBRANCH   1  19
TORSDOF 7
ENDMDL
MODEL 9
REMARK VINA RESULT:      -7.7      4.231      7.020
REMARK  Name = 
REMARK  9 active torsions:
REMARK  status: ('A' for Active; 'I' for Inactive)
REMARK    1  A    between atoms: C_1  and  C_2
REMARK    2  A    between atoms: C_2  and  O_3
REMARK    3  A    between atoms: O_3  and  C_4
REMARK    4  A    between atoms: C_9  and  N_10
REMARK    5  A    between atoms: N_13  and  C_14
REMARK    6  A    between atoms: C_14  and  C_15
REMARK    7  A    between atoms: C_15  and  N_16
REMARK    8  A    between atoms: C_18  and  C_19
REMARK    9  A    between atoms: C_22  and  C_23
REMARK                            x       y       z     vdW  Elec       q    Type
REMARK                         _______ _______ _______ _____ _____    ______ ____
ROOT
ATOM      1  N   UNL     1       1.534  13.461  19.763  0.00  0.00    +0.000 N 
ATOM      2  N   UNL     1       1.174  12.180  19.391  0.00  0.00    +0.000 NA
ATOM      3  C   UNL     1       0.060  11.744  19.912  0.00  0.00    +0.000 A 
ATOM      4  C   UNL     1      -0.440  12.228  21.203  0.00  0.00    +0.000 A 
ATOM      5  C   UNL     1      -1.109  11.455  22.154  0.00  0.00    +0.000 A 
ATOM      6  C   UNL     1      -1.698  12.096  23.252  0.00  0.00    +0.000 A 
ATOM      7  C   UNL     1      -1.609  13.475  23.380  0.00  0.00    +0.000 A 
ATOM      8  C   UNL     1      -0.877  14.237  22.451  0.00  0.00    +0.000 A 
ATOM      9  C   UNL     1      -0.269  13.599  21.377  0.00  0.00    +0.000 A 
ATOM     10  C   UNL     1       0.637  14.303  20.431  0.00  0.00    +0.000 A 
ATOM     11  O   UNL     1       0.612  15.526  20.349  0.00  0.00    +0.000 OA
ENDROOT
BRANCH   3  12
ATOM     12  C   UNL     1      -0.942  11.236  18.941  0.00  0.00    +0.000 A 
ATOM     13  C   UNL     1      -2.088  11.914  18.545  0.00  0.00    +0.000 A 
ATOM     14  C   UNL     1      -2.792  11.456  17.429  0.00  0.00    +0.000 A 
ATOM     15  C   UNL     1      -2.358  10.326  16.718  0.00  0.00    +0.000 A 
ATOM     16  C   UNL     1      -3.119   9.795  15.548  0.00  0.00    +0.000 C 
ATOM     17  C   UNL     1      -1.195   9.665  17.109  0.00  0.00    +0.000 A 
ATOM     18  C   UNL     1      -0.497  10.116  18.215  0.00  0.00    +0.000 A 
ENDBRANCH   3  12
BRANCH   1  19
ATOM     19  C   UNL     1       2.739  13.985  19.133  0.00  0.00    +0.000 C 
BRANCH  19  20
ATOM     20  C   UNL     1       3.852  14.535  20.061  0.00  0.00    +0.000 C 
BRANCH  20  24
ATOM     21  N   UNL     1       7.370  14.843  18.615  0.00  0.00    +0.000 N 
ATOM     22  C   UNL     1       7.067  15.097  20.026  0.00  0.00    +0.000 C 
ATOM     23  C   UNL     1       5.835  16.033  20.129  0.00  0.00    +0.000 C 
ATOM     24  N   UNL     1       4.616  15.617  19.393  0.00  0.00    +0.000 NA
ATOM     25  C   UNL     1       5.007  15.297  18.001  0.00  0.00    +0.000 C 
ATOM     26  C   UNL     1       6.217  14.339  17.842  0.00  0.00    +0.000 C 
BRANCH  21  32
ATOM     27  C   UNL     1       9.563  13.751  18.112  0.00  0.00    +0.000 A 
ATOM     28  C   UNL     1      10.850  13.866  17.541  0.00  0.00    +0.000 A 
ATOM     29  C   UNL     1      11.316  15.081  17.055  0.00  0.00    +0.000 A 
ATOM     30  C   UNL     1      10.483  16.183  17.091  0.00  0.00    +0.000 A 
ATOM     31  C   UNL     1       9.181  16.059  17.590  0.00  0.00    +0.000 A 
ATOM     32  C   UNL     1       8.664  14.849  18.103  0.00  0.00    +0.000 A 
BRANCH  27  33
ATOM     33  O   UNL     1       9.156  12.549  18.654  0.00  0.00    +0.000 OA
BRANCH  33  35
ATOM     34  C   UNL     1       9.039  10.145  18.568  0.00  0.00    +0.000 C 
ATOM     35  C   UNL     1       9.716  11.389  18.028  0.00  0.00    +0.000 C 
ENDBRANCH  33  35
ENDBRANCH  27  33
ENDBRANCH  21  32
ENDBRANCH  20  24
ENDBRANCH  19  20
ENDBRANCH   1  19
TORSDOF 7
ENDMDL
