MODEL 1
REMARK VINA RESULT:      -6.6      0.000      0.000
REMARK  Name = 
REMARK  8 active torsions:
REMARK  status: ('A' for Active; 'I' for Inactive)
REMARK    1  A    between atoms: C_1  and  O_2
REMARK    2  A    between atoms: O_2  and  C_3
REMARK    3  A    between atoms: C_7  and  O_8
REMARK    4  A    between atoms: O_8  and  C_9
REMARK    5  A    between atoms: C_9  and  C_10
REMARK    6  A    between atoms: C_9  and  C_11
REMARK    7  A    between atoms: C_11  and  N_12
REMARK    8  A    between atoms: C_13  and  C_14
REMARK                            x       y       z     vdW  Elec       q    Type
REMARK                         _______ _______ _______ _____ _____    ______ ____
ROOT
ATOM      1  O   UNL     1       6.024   5.217  19.249  0.00  0.00    +0.000 OA
ENDROOT
BRANCH   1   6
ATOM      2  C   UNL     1       2.790   3.468  18.744  0.00  0.00    +0.000 A 
ATOM      3  C   UNL     1       2.055   4.532  18.217  0.00  0.00    +0.000 A 
ATOM      4  C   UNL     1       2.634   5.792  18.091  0.00  0.00    +0.000 A 
ATOM      5  C   UNL     1       3.964   5.986  18.466  0.00  0.00    +0.000 A 
ATOM      6  C   UNL     1       4.707   4.932  19.004  0.00  0.00    +0.000 A 
ATOM      7  C   UNL     1       4.106   3.682  19.166  0.00  0.00    +0.000 A 
BRANCH   2   9
ATOM      8  C   UNL     1       0.705   2.322  18.849  0.00  0.00    +0.000 C 
ATOM      9  O   UNL     1       2.125   2.271  18.774  0.00  0.00    +0.000 OA
ENDBRANCH   2   9
ENDBRANCH   1   6
BRANCH   1  10
ATOM     10  C   UNL     1       6.817   5.749  18.172  0.00  0.00    +0.000 C 
ATOM     11  C   UNL     1       7.946   6.631  18.719  0.00  0.00    +0.000 C 
BRANCH  10  12
ATOM     12  C   UNL     1       7.473   4.546  17.461  0.00  0.00    +0.000 C 
BRANCH  12  13
ATOM     13  N   UNL     1       6.722   4.071  16.313  0.00  0.00    +0.000 N 
ATOM     14  C   UNL     1       6.902   4.595  15.056  0.00  0.00    +0.000 C 
ATOM     15  C   UNL     1       6.028   3.974  13.998  0.00  0.00    +0.000 C 
ATOM     16  O   UNL     1       7.716   5.475  14.801  0.00  0.00    +0.000 OA
ATOM     17  H   UNL     1       5.912   3.493  16.498  0.00  0.00    +0.000 HD
ENDBRANCH  12  13
ENDBRANCH  10  12
ENDBRANCH   1  10
TORSDOF 5
ENDMDL
MODEL 2
REMARK VINA RESULT:      -6.5      1.363      1.543
REMARK  Name = 
REMARK  8 active torsions:
REMARK  status: ('A' for Active; 'I' for Inactive)
REMARK    1  A    between atoms: C_1  and  O_2
REMARK    2  A    between atoms: O_2  and  C_3
REMARK    3  A    between atoms: C_7  and  O_8
REMARK    4  A    between atoms: O_8  and  C_9
REMARK    5  A    between atoms: C_9  and  C_10
REMARK    6  A    between atoms: C_9  and  C_11
REMARK    7  A    between atoms: C_11  and  N_12
REMARK    8  A    between atoms: C_13  and  C_14
REMARK                            x       y       z     vdW  Elec       q    Type
REMARK                         _______ _______ _______ _____ _____    ______ ____
ROOT
ATOM      1  O   UNL     1       5.635   3.883  18.614  0.00  0.00    +0.000 OA
ENDROOT
BRANCH   1   6
ATOM      2  C   UNL     1       2.086   3.839  19.699  0.00  0.00    +0.000 A 
ATOM      3  C   UNL     1       1.484   3.711  18.445  0.00  0.00    +0.000 A 
ATOM      4  C   UNL     1       2.262   3.691  17.291  0.00  0.00    +0.000 A 
ATOM      5  C   UNL     1       3.651   3.770  17.389  0.00  0.00    +0.000 A 
ATOM      6  C   UNL     1       4.266   3.908  18.636  0.00  0.00    +0.000 A 
ATOM      7  C   UNL     1       3.476   3.970  19.785  0.00  0.00    +0.000 A 
BRANCH   2   9
ATOM      8  C   UNL     1       1.399   2.756  21.706  0.00  0.00    +0.000 C 
ATOM      9  O   UNL     1       1.218   3.801  20.758  0.00  0.00    +0.000 OA
ENDBRANCH   2   9
ENDBRANCH   1   6
BRANCH   1  10
ATOM     10  C   UNL     1       6.334   5.090  18.259  0.00  0.00    +0.000 C 
ATOM     11  C   UNL     1       7.167   5.598  19.441  0.00  0.00    +0.000 C 
BRANCH  10  12
ATOM     12  C   UNL     1       7.314   4.722  17.125  0.00  0.00    +0.000 C 
BRANCH  12  13
ATOM     13  N   UNL     1       6.667   4.134  15.966  0.00  0.00    +0.000 N 
ATOM     14  C   UNL     1       6.916   4.576  14.689  0.00  0.00    +0.000 C 
ATOM     15  C   UNL     1       6.145   3.843  13.622  0.00  0.00    +0.000 C 
ATOM     16  O   UNL     1       7.711   5.471  14.426  0.00  0.00    +0.000 OA
ATOM     17  H   UNL     1       5.869   3.536  16.137  0.00  0.00    +0.000 HD
ENDBRANCH  12  13
ENDBRANCH  10  12
ENDBRANCH   1  10
TORSDOF 5
ENDMDL
MODEL 3
REMARK VINA RESULT:      -6.3      1.856      3.150
REMARK  Name = 
REMARK  8 active torsions:
REMARK  status: ('A' for Active; 'I' for Inactive)
REMARK    1  A    between atoms: C_1  and  O_2
REMARK    2  A    between atoms: O_2  and  C_3
REMARK    3  A    between atoms: C_7  and  O_8
REMARK    4  A    between atoms: O_8  and  C_9
REMARK    5  A    between atoms: C_9  and  C_10
REMARK    6  A    between atoms: C_9  and  C_11
REMARK    7  A    between atoms: C_11  and  N_12
REMARK    8  A    between atoms: C_13  and  C_14
REMARK                            x       y       z     vdW  Elec       q    Type
REMARK                         _______ _______ _______ _____ _____    ______ ____
ROOT
ATOM      1  O   UNL     1       4.820   4.872  17.093  0.00  0.00    +0.000 OA
ENDROOT
BRANCH   1   6
ATOM      2  C   UNL     1       3.077   3.089  19.842  0.00  0.00    +0.000 A 
ATOM      3  C   UNL     1       2.265   2.255  19.071  0.00  0.00    +0.000 A 
ATOM      4  C   UNL     1       2.285   2.343  17.681  0.00  0.00    +0.000 A 
ATOM      5  C   UNL     1       3.144   3.247  17.056  0.00  0.00    +0.000 A 
ATOM      6  C   UNL     1       3.955   4.094  17.815  0.00  0.00    +0.000 A 
ATOM      7  C   UNL     1       3.896   4.029  19.209  0.00  0.00    +0.000 A 
BRANCH   2   9
ATOM      8  C   UNL     1       1.704   2.655  21.740  0.00  0.00    +0.000 C 
ATOM      9  O   UNL     1       2.999   2.876  21.193  0.00  0.00    +0.000 OA
ENDBRANCH   2   9
ENDBRANCH   1   6
BRANCH   1  10
ATOM     10  C   UNL     1       5.784   4.215  16.250  0.00  0.00    +0.000 C 
ATOM     11  C   UNL     1       5.620   4.664  14.793  0.00  0.00    +0.000 C 
BRANCH  10  12
ATOM     12  C   UNL     1       7.179   4.676  16.722  0.00  0.00    +0.000 C 
BRANCH  12  13
ATOM     13  N   UNL     1       7.348   6.118  16.711  0.00  0.00    +0.000 N 
ATOM     14  C   UNL     1       7.666   6.824  17.846  0.00  0.00    +0.000 C 
ATOM     15  C   UNL     1       7.794   8.309  17.632  0.00  0.00    +0.000 C 
ATOM     16  O   UNL     1       7.855   6.300  18.937  0.00  0.00    +0.000 OA
ATOM     17  H   UNL     1       7.017   6.616  15.894  0.00  0.00    +0.000 HD
ENDBRANCH  12  13
ENDBRANCH  10  12
ENDBRANCH   1  10
TORSDOF 5
ENDMDL
MODEL 4
REMARK VINA RESULT:      -6.3      1.570      2.872
REMARK  Name = 
REMARK  8 active torsions:
REMARK  status: ('A' for Active; 'I' for Inactive)
REMARK    1  A    between atoms: C_1  and  O_2
REMARK    2  A    between atoms: O_2  and  C_3
REMARK    3  A    between atoms: C_7  and  O_8
REMARK    4  A    between atoms: O_8  and  C_9
REMARK    5  A    between atoms: C_9  and  C_10
REMARK    6  A    between atoms: C_9  and  C_11
REMARK    7  A    between atoms: C_11  and  N_12
REMARK    8  A    between atoms: C_13  and  C_14
REMARK                            x       y       z     vdW  Elec       q    Type
REMARK                         _______ _______ _______ _____ _____    ______ ____
ROOT
ATOM      1  O   UNL     1       4.844   5.462  16.214  0.00  0.00    +0.000 OA
ENDROOT
BRANCH   1   6
ATOM      2  C   UNL     1       2.603   4.108  18.845  0.00  0.00    +0.000 A 
ATOM      3  C   UNL     1       2.240   5.311  19.452  0.00  0.00    +0.000 A 
ATOM      4  C   UNL     1       2.781   6.515  19.007  0.00  0.00    +0.000 A 
ATOM      5  C   UNL     1       3.666   6.521  17.929  0.00  0.00    +0.000 A 
ATOM      6  C   UNL     1       4.045   5.323  17.317  0.00  0.00    +0.000 A 
ATOM      7  C   UNL     1       3.531   4.117  17.798  0.00  0.00    +0.000 A 
BRANCH   2   9
ATOM      8  C   UNL     1       1.036   3.207  20.396  0.00  0.00    +0.000 C 
ATOM      9  O   UNL     1       1.970   3.000  19.344  0.00  0.00    +0.000 OA
ENDBRANCH   2   9
ENDBRANCH   1   6
BRANCH   1  10
ATOM     10  C   UNL     1       5.691   4.359  15.844  0.00  0.00    +0.000 C 
ATOM     11  C   UNL     1       5.766   4.225  14.318  0.00  0.00    +0.000 C 
BRANCH  10  12
ATOM     12  C   UNL     1       7.111   4.695  16.349  0.00  0.00    +0.000 C 
BRANCH  12  13
ATOM     13  N   UNL     1       7.358   6.120  16.476  0.00  0.00    +0.000 N 
ATOM     14  C   UNL     1       7.559   6.720  17.696  0.00  0.00    +0.000 C 
ATOM     15  C   UNL     1       7.796   8.205  17.621  0.00  0.00    +0.000 C 
ATOM     16  O   UNL     1       7.570   6.106  18.757  0.00  0.00    +0.000 OA
ATOM     17  H   UNL     1       7.168   6.696  15.666  0.00  0.00    +0.000 HD
ENDBRANCH  12  13
ENDBRANCH  10  12
ENDBRANCH   1  10
TORSDOF 5
ENDMDL
MODEL 5
REMARK VINA RESULT:      -6.1      1.738      2.338
REMARK  Name = 
REMARK  8 active torsions:
REMARK  status: ('A' for Active; 'I' for Inactive)
REMARK    1  A    between atoms: C_1  and  O_2
REMARK    2  A    between atoms: O_2  and  C_3
REMARK    3  A    between atoms: C_7  and  O_8
REMARK    4  A    between atoms: O_8  and  C_9
REMARK    5  A    between atoms: C_9  and  C_10
REMARK    6  A    between atoms: C_9  and  C_11
REMARK    7  A    between atoms: C_11  and  N_12
REMARK    8  A    between atoms: C_13  and  C_14
REMARK                            x       y       z     vdW  Elec       q    Type
REMARK                         _______ _______ _______ _____ _____    ______ ____
ROOT
ATOM      1  O   UNL     1       4.053   5.390  17.064  0.00  0.00    +0.000 OA
ENDROOT
BRANCH   1   6
ATOM      2  C   UNL     1       1.789   3.611  19.405  0.00  0.00    +0.000 A 
ATOM      3  C   UNL     1       1.960   2.313  18.918  0.00  0.00    +0.000 A 
ATOM      4  C   UNL     1       2.773   2.079  17.812  0.00  0.00    +0.000 A 
ATOM      5  C   UNL     1       3.444   3.141  17.206  0.00  0.00    +0.000 A 
ATOM      6  C   UNL     1       3.275   4.446  17.678  0.00  0.00    +0.000 A 
ATOM      7  C   UNL     1       2.424   4.677  18.760  0.00  0.00    +0.000 A 
BRANCH   2   9
ATOM      8  C   UNL     1       1.330   2.860  21.618  0.00  0.00    +0.000 C 
ATOM      9  O   UNL     1       1.002   3.705  20.522  0.00  0.00    +0.000 OA
ENDBRANCH   2   9
ENDBRANCH   1   6
BRANCH   1  10
ATOM     10  C   UNL     1       5.009   6.110  17.864  0.00  0.00    +0.000 C 
ATOM     11  C   UNL     1       5.686   5.172  18.870  0.00  0.00    +0.000 C 
BRANCH  10  12
ATOM     12  C   UNL     1       6.101   6.624  16.903  0.00  0.00    +0.000 C 
BRANCH  12  13
ATOM     13  N   UNL     1       6.082   5.977  15.603  0.00  0.00    +0.000 N 
ATOM     14  C   UNL     1       6.946   4.957  15.284  0.00  0.00    +0.000 C 
ATOM     15  C   UNL     1       6.773   4.418  13.888  0.00  0.00    +0.000 C 
ATOM     16  O   UNL     1       7.772   4.501  16.065  0.00  0.00    +0.000 OA
ATOM     17  H   UNL     1       5.563   6.436  14.866  0.00  0.00    +0.000 HD
ENDBRANCH  12  13
ENDBRANCH  10  12
ENDBRANCH   1  10
TORSDOF 5
ENDMDL
MODEL 6
REMARK VINA RESULT:      -6.1      1.682      2.067
REMARK  Name = 
REMARK  8 active torsions:
REMARK  status: ('A' for Active; 'I' for Inactive)
REMARK    1  A    between atoms: C_1  and  O_2
REMARK    2  A    between atoms: O_2  and  C_3
REMARK    3  A    between atoms: C_7  and  O_8
REMARK    4  A    between atoms: O_8  and  C_9
REMARK    5  A    between atoms: C_9  and  C_10
REMARK    6  A    between atoms: C_9  and  C_11
REMARK    7  A    between atoms: C_11  and  N_12
REMARK    8  A    between atoms: C_13  and  C_14
REMARK                            x       y       z     vdW  Elec       q    Type
REMARK                         _______ _______ _______ _____ _____    ______ ____
ROOT
ATOM      1  O   UNL     1       5.653   4.365  17.639  0.00  0.00    +0.000 OA
ENDROOT
BRANCH   1   6
ATOM      2  C   UNL     1       3.212   2.886  20.011  0.00  0.00    +0.000 A 
ATOM      3  C   UNL     1       2.430   2.179  19.095  0.00  0.00    +0.000 A 
ATOM      4  C   UNL     1       2.704   2.253  17.732  0.00  0.00    +0.000 A 
ATOM      5  C   UNL     1       3.784   3.013  17.282  0.00  0.00    +0.000 A 
ATOM      6  C   UNL     1       4.569   3.733  18.187  0.00  0.00    +0.000 A 
ATOM      7  C   UNL     1       4.260   3.687  19.548  0.00  0.00    +0.000 A 
BRANCH   2   9
ATOM      8  C   UNL     1       1.482   2.717  21.640  0.00  0.00    +0.000 C 
ATOM      9  O   UNL     1       2.869   2.697  21.324  0.00  0.00    +0.000 OA
ENDBRANCH   2   9
ENDBRANCH   1   6
BRANCH   1  10
ATOM     10  C   UNL     1       5.749   5.795  17.777  0.00  0.00    +0.000 C 
ATOM     11  C   UNL     1       7.125   6.192  18.323  0.00  0.00    +0.000 C 
BRANCH  10  12
ATOM     12  C   UNL     1       5.623   6.391  16.359  0.00  0.00    +0.000 C 
BRANCH  12  13
ATOM     13  N   UNL     1       5.482   5.389  15.319  0.00  0.00    +0.000 N 
ATOM     14  C   UNL     1       6.559   4.925  14.602  0.00  0.00    +0.000 C 
ATOM     15  C   UNL     1       6.209   3.891  13.565  0.00  0.00    +0.000 C 
ATOM     16  O   UNL     1       7.711   5.295  14.797  0.00  0.00    +0.000 OA
ATOM     17  H   UNL     1       4.546   5.196  14.987  0.00  0.00    +0.000 HD
ENDBRANCH  12  13
ENDBRANCH  10  12
ENDBRANCH   1  10
TORSDOF 5
ENDMDL
MODEL 7
REMARK VINA RESULT:      -6.1      1.432      2.834
REMARK  Name = 
REMARK  8 active torsions:
REMARK  status: ('A' for Active; 'I' for Inactive)
REMARK    1  A    between atoms: C_1  and  O_2
REMARK    2  A    between atoms: O_2  and  C_3
REMARK    3  A    between atoms: C_7  and  O_8
REMARK    4  A    between atoms: O_8  and  C_9
REMARK    5  A    between atoms: C_9  and  C_10
REMARK    6  A    between atoms: C_9  and  C_11
REMARK    7  A    between atoms: C_11  and  N_12
REMARK    8  A    between atoms: C_13  and  C_14
REMARK                            x       y       z     vdW  Elec       q    Type
REMARK                         _______ _______ _______ _____ _____    ______ ____
ROOT
ATOM      1  O   UNL     1       5.008   5.223  15.931  0.00  0.00    +0.000 OA
ENDROOT
BRANCH   1   6
ATOM      2  C   UNL     1       2.641   3.439  18.164  0.00  0.00    +0.000 A 
ATOM      3  C   UNL     1       2.148   4.539  18.869  0.00  0.00    +0.000 A 
ATOM      4  C   UNL     1       2.644   5.815  18.619  0.00  0.00    +0.000 A 
ATOM      5  C   UNL     1       3.618   6.001  17.637  0.00  0.00    +0.000 A 
ATOM      6  C   UNL     1       4.127   4.908  16.930  0.00  0.00    +0.000 A 
ATOM      7  C   UNL     1       3.654   3.626  17.218  0.00  0.00    +0.000 A 
BRANCH   2   9
ATOM      8  C   UNL     1       0.673   2.288  18.852  0.00  0.00    +0.000 C 
ATOM      9  O   UNL     1       2.042   2.246  18.470  0.00  0.00    +0.000 OA
ENDBRANCH   2   9
ENDBRANCH   1   6
BRANCH   1  10
ATOM     10  C   UNL     1       5.932   4.210  15.493  0.00  0.00    +0.000 C 
ATOM     11  C   UNL     1       5.863   4.039  13.971  0.00  0.00    +0.000 C 
BRANCH  10  12
ATOM     12  C   UNL     1       7.349   4.717  15.837  0.00  0.00    +0.000 C 
BRANCH  12  13
ATOM     13  N   UNL     1       7.626   4.741  17.262  0.00  0.00    +0.000 N 
ATOM     14  C   UNL     1       7.582   5.904  17.994  0.00  0.00    +0.000 C 
ATOM     15  C   UNL     1       7.903   5.724  19.454  0.00  0.00    +0.000 C 
ATOM     16  O   UNL     1       7.286   6.992  17.516  0.00  0.00    +0.000 OA
ATOM     17  H   UNL     1       8.060   3.919  17.662  0.00  0.00    +0.000 HD
ENDBRANCH  12  13
ENDBRANCH  10  12
ENDBRANCH   1  10
TORSDOF 5
ENDMDL
MODEL 8
REMARK VINA RESULT:      -6.0      2.415      5.923
REMARK  Name = 
REMARK  8 active torsions:
REMARK  status: ('A' for Active; 'I' for Inactive)
REMARK    1  A    between atoms: C_1  and  O_2
REMARK    2  A    between atoms: O_2  and  C_3
REMARK    3  A    between atoms: C_7  and  O_8
REMARK    4  A    between atoms: O_8  and  C_9
REMARK    5  A    between atoms: C_9  and  C_10
REMARK    6  A    between atoms: C_9  and  C_11
REMARK    7  A    between atoms: C_11  and  N_12
REMARK    8  A    between atoms: C_13  and  C_14
REMARK                            x       y       z     vdW  Elec       q    Type
REMARK                         _______ _______ _______ _____ _____    ______ ____
ROOT
ATOM      1  O   UNL     1       3.481   5.759  18.438  0.00  0.00    +0.000 OA
ENDROOT
BRANCH   1   6
ATOM      2  C   UNL     1       6.743   5.573  16.679  0.00  0.00    +0.000 A 
ATOM      3  C   UNL     1       7.565   5.346  17.785  0.00  0.00    +0.000 A 
ATOM      4  C   UNL     1       7.025   5.310  19.067  0.00  0.00    +0.000 A 
ATOM      5  C   UNL     1       5.651   5.471  19.246  0.00  0.00    +0.000 A 
ATOM      6  C   UNL     1       4.818   5.709  18.150  0.00  0.00    +0.000 A 
ATOM      7  C   UNL     1       5.375   5.786  16.872  0.00  0.00    +0.000 A 
BRANCH   2   9
ATOM      8  C   UNL     1       6.790   4.763  14.440  0.00  0.00    +0.000 C 
ATOM      9  O   UNL     1       7.386   5.542  15.470  0.00  0.00    +0.000 OA
ENDBRANCH   2   9
ENDBRANCH   1   6
BRANCH   1  10
ATOM     10  C   UNL     1       2.970   6.930  19.101  0.00  0.00    +0.000 C 
ATOM     11  C   UNL     1       2.201   7.816  18.114  0.00  0.00    +0.000 C 
BRANCH  10  12
ATOM     12  C   UNL     1       1.963   6.440  20.163  0.00  0.00    +0.000 C 
BRANCH  12  13
ATOM     13  N   UNL     1       2.397   5.247  20.867  0.00  0.00    +0.000 N 
ATOM     14  C   UNL     1       1.675   4.078  20.836  0.00  0.00    +0.000 C 
ATOM     15  C   UNL     1       2.286   2.955  21.631  0.00  0.00    +0.000 C 
ATOM     16  O   UNL     1       0.635   3.943  20.202  0.00  0.00    +0.000 OA
ATOM     17  H   UNL     1       3.132   5.357  21.554  0.00  0.00    +0.000 HD
ENDBRANCH  12  13
ENDBRANCH  10  12
ENDBRANCH   1  10
TORSDOF 5
ENDMDL
MODEL 9
REMARK VINA RESULT:      -6.0      1.959      2.419
REMARK  Name = 
REMARK  8 active torsions:
REMARK  status: ('A' for Active; 'I' for Inactive)
REMARK    1  A    between atoms: C_1  and  O_2
REMARK    2  A    between atoms: O_2  and  C_3
REMARK    3  A    between atoms: C_7  and  O_8
REMARK    4  A    between atoms: O_8  and  C_9
REMARK    5  A    between atoms: C_9  and  C_10
REMARK    6  A    between atoms: C_9  and  C_11
REMARK    7  A    between atoms: C_11  and  N_12
REMARK    8  A    between atoms: C_13  and  C_14
REMARK                            x       y       z     vdW  Elec       q    Type
REMARK                         _______ _______ _______ _____ _____    ______ ____
ROOT
ATOM      1  O   UNL     1       5.143   4.105  16.237  0.00  0.00    +0.000 OA
ENDROOT
BRANCH   1   6
ATOM      2  C   UNL     1       2.192   4.562  18.441  0.00  0.00    +0.000 A 
ATOM      3  C   UNL     1       2.266   5.946  18.607  0.00  0.00    +0.000 A 
ATOM      4  C   UNL     1       3.306   6.669  18.029  0.00  0.00    +0.000 A 
ATOM      5  C   UNL     1       4.263   6.012  17.256  0.00  0.00    +0.000 A 
ATOM      6  C   UNL     1       4.207   4.625  17.090  0.00  0.00    +0.000 A 
ATOM      7  C   UNL     1       3.184   3.902  17.708  0.00  0.00    +0.000 A 
BRANCH   2   9
ATOM      8  C   UNL     1       1.156   3.743  20.424  0.00  0.00    +0.000 C 
ATOM      9  O   UNL     1       1.100   3.972  19.021  0.00  0.00    +0.000 OA
ENDBRANCH   2   9
ENDBRANCH   1   6
BRANCH   1  10
ATOM     10  C   UNL     1       6.320   4.884  15.960  0.00  0.00    +0.000 C 
ATOM     11  C   UNL     1       7.451   4.517  16.928  0.00  0.00    +0.000 C 
BRANCH  10  12
ATOM     12  C   UNL     1       6.786   4.502  14.539  0.00  0.00    +0.000 C 
BRANCH  12  13
ATOM     13  N   UNL     1       5.717   4.006  13.691  0.00  0.00    +0.000 N 
ATOM     14  C   UNL     1       5.945   3.572  12.407  0.00  0.00    +0.000 C 
ATOM     15  C   UNL     1       4.709   3.099  11.689  0.00  0.00    +0.000 C 
ATOM     16  O   UNL     1       7.056   3.546  11.890  0.00  0.00    +0.000 OA
ATOM     17  H   UNL     1       4.768   4.185  13.993  0.00  0.00    +0.000 HD
ENDBRANCH  12  13
ENDBRANCH  10  12
ENDBRANCH   1  10
TORSDOF 5
ENDMDL
