MODEL 1
REMARK VINA RESULT:      -8.0      0.000      0.000
REMARK  Name = 
REMARK  6 active torsions:
REMARK  status: ('A' for Active; 'I' for Inactive)
REMARK    1  A    between atoms: C_2  and  C_3
REMARK    2  A    between atoms: C_3  and  O_4
REMARK    3  A    between atoms: O_4  and  C_5
REMARK    4  A    between atoms: N_12  and  C_13
REMARK    5  A    between atoms: C_13  and  C_14
REMARK    6  A    between atoms: C_14  and  C_15
REMARK                            x       y       z     vdW  Elec       q    Type
REMARK                         _______ _______ _______ _____ _____    ______ ____
ROOT
ATOM      1  O   UNL     1       8.094   6.921  18.761  0.00  0.00    +0.000 OA
ATOM      2  C   UNL     1       7.844   7.700  17.845  0.00  0.00    +0.000 C 
ATOM      3  N   UNL     1       7.174   7.319  16.699  0.00  0.00    +0.000 N 
ATOM      4  H   UNL     1       7.118   7.972  15.926  0.00  0.00    +0.000 HD
ENDROOT
BRANCH   2   5
ATOM      5  C   UNL     1       8.188   9.193  17.917  0.00  0.00    +0.000 C 
BRANCH   5   6
ATOM      6  O   UNL     1       9.038   9.535  18.995  0.00  0.00    +0.000 OA
BRANCH   6   7
ATOM      7  C   UNL     1       9.591  10.790  19.040  0.00  0.00    +0.000 A 
ATOM      8  C   UNL     1      10.210  11.139  17.826  0.00  0.00    +0.000 A 
ATOM      9  C   UNL     1      10.829  12.381  17.640  0.00  0.00    +0.000 A 
ATOM     10  C   UNL     1      10.836  13.309  18.673  0.00  0.00    +0.000 A 
ATOM     11  C   UNL     1      10.231  12.986  19.885  0.00  0.00    +0.000 A 
ATOM     12  C   UNL     1       9.619  11.737  20.086  0.00  0.00    +0.000 A 
ATOM     13 CL   UNL     1       8.949  11.534  21.666  0.00  0.00    +0.000 Cl
ENDBRANCH   6   7
ENDBRANCH   5   6
ENDBRANCH   2   5
BRANCH   3  14
ATOM     14  C   UNL     1       6.700   5.956  16.519  0.00  0.00    +0.000 C 
BRANCH  14  15
ATOM     15  C   UNL     1       5.218   5.912  16.140  0.00  0.00    +0.000 C 
BRANCH  15  16
ATOM     16  C   UNL     1       4.411   5.027  17.057  0.00  0.00    +0.000 A 
ATOM     17  C   UNL     1       4.451   3.630  16.922  0.00  0.00    +0.000 A 
ATOM     18  C   UNL     1       3.684   2.814  17.757  0.00  0.00    +0.000 A 
ATOM     19  C   UNL     1       2.865   3.386  18.728  0.00  0.00    +0.000 A 
ATOM     20  C   UNL     1       2.832   4.774  18.883  0.00  0.00    +0.000 A 
ATOM     21  C   UNL     1       3.592   5.590  18.046  0.00  0.00    +0.000 A 
ATOM     22  O   UNL     1       2.066   5.407  19.829  0.00  0.00    +0.000 OA
ATOM     23  C   UNL     1       1.604   4.492  20.829  0.00  0.00    +0.000 C 
ATOM     24  C   UNL     1       1.082   3.212  20.198  0.00  0.00    +0.000 C 
ATOM     25  O   UNL     1       2.125   2.524  19.497  0.00  0.00    +0.000 OA
ENDBRANCH  15  16
ENDBRANCH  14  15
ENDBRANCH   3  14
TORSDOF 6
ENDMDL
MODEL 2
REMARK VINA RESULT:      -8.0      2.688      9.731
REMARK  Name = 
REMARK  6 active torsions:
REMARK  status: ('A' for Active; 'I' for Inactive)
REMARK    1  A    between atoms: C_2  and  C_3
REMARK    2  A    between atoms: C_3  and  O_4
REMARK    3  A    between atoms: O_4  and  C_5
REMARK    4  A    between atoms: N_12  and  C_13
REMARK    5  A    between atoms: C_13  and  C_14
REMARK    6  A    between atoms: C_14  and  C_15
REMARK                            x       y       z     vdW  Elec       q    Type
REMARK                         _______ _______ _______ _____ _____    ______ ____
ROOT
ATOM      1  O   UNL     1       7.473   5.560  19.970  0.00  0.00    +0.000 OA
ATOM      2  C   UNL     1       7.148   5.684  18.792  0.00  0.00    +0.000 C 
ATOM      3  N   UNL     1       7.530   6.763  18.019  0.00  0.00    +0.000 N 
ATOM      4  H   UNL     1       7.119   6.874  17.100  0.00  0.00    +0.000 HD
ENDROOT
BRANCH   2   5
ATOM      5  C   UNL     1       6.344   4.614  18.043  0.00  0.00    +0.000 C 
BRANCH   5   6
ATOM      6  O   UNL     1       5.195   5.113  17.387  0.00  0.00    +0.000 OA
BRANCH   6   7
ATOM      7  C   UNL     1       3.975   4.539  17.641  0.00  0.00    +0.000 A 
ATOM      8  C   UNL     1       4.023   3.135  17.556  0.00  0.00    +0.000 A 
ATOM      9  C   UNL     1       2.896   2.340  17.791  0.00  0.00    +0.000 A 
ATOM     10  C   UNL     1       1.687   2.938  18.125  0.00  0.00    +0.000 A 
ATOM     11  C   UNL     1       1.615   4.325  18.215  0.00  0.00    +0.000 A 
ATOM     12  C   UNL     1       2.737   5.133  17.967  0.00  0.00    +0.000 A 
ATOM     13 CL   UNL     1       2.424   6.827  18.111  0.00  0.00    +0.000 Cl
ENDBRANCH   6   7
ENDBRANCH   5   6
ENDBRANCH   2   5
BRANCH   3  14
ATOM     14  C   UNL     1       8.371   7.819  18.559  0.00  0.00    +0.000 C 
BRANCH  14  15
ATOM     15  C   UNL     1       8.119   9.159  17.866  0.00  0.00    +0.000 C 
BRANCH  15  16
ATOM     16  C   UNL     1       8.888  10.293  18.499  0.00  0.00    +0.000 A 
ATOM     17  C   UNL     1       9.348  10.197  19.821  0.00  0.00    +0.000 A 
ATOM     18  C   UNL     1      10.039  11.258  20.411  0.00  0.00    +0.000 A 
ATOM     19  C   UNL     1      10.270  12.427  19.688  0.00  0.00    +0.000 A 
ATOM     20  C   UNL     1       9.833  12.526  18.365  0.00  0.00    +0.000 A 
ATOM     21  C   UNL     1       9.137  11.470  17.777  0.00  0.00    +0.000 A 
ATOM     22  O   UNL     1      10.040  13.635  17.586  0.00  0.00    +0.000 OA
ATOM     23  C   UNL     1      11.032  14.498  18.154  0.00  0.00    +0.000 C 
ATOM     24  C   UNL     1      10.807  14.680  19.646  0.00  0.00    +0.000 C 
ATOM     25  O   UNL     1      10.937  13.433  20.339  0.00  0.00    +0.000 OA
ENDBRANCH  15  16
ENDBRANCH  14  15
ENDBRANCH   3  14
TORSDOF 6
ENDMDL
MODEL 3
REMARK VINA RESULT:      -7.8      1.346      2.212
REMARK  Name = 
REMARK  6 active torsions:
REMARK  status: ('A' for Active; 'I' for Inactive)
REMARK    1  A    between atoms: C_2  and  C_3
REMARK    2  A    between atoms: C_3  and  O_4
REMARK    3  A    between atoms: O_4  and  C_5
REMARK    4  A    between atoms: N_12  and  C_13
REMARK    5  A    between atoms: C_13  and  C_14
REMARK    6  A    between atoms: C_14  and  C_15
REMARK                            x       y       z     vdW  Elec       q    Type
REMARK                         _______ _______ _______ _____ _____    ______ ____
ROOT
ATOM      1  O   UNL     1       8.317   6.991  18.899  0.00  0.00    +0.000 OA
ATOM      2  C   UNL     1       8.042   7.837  18.052  0.00  0.00    +0.000 C 
ATOM      3  N   UNL     1       7.330   7.546  16.904  0.00  0.00    +0.000 N 
ATOM      4  H   UNL     1       7.254   8.254  16.184  0.00  0.00    +0.000 HD
ENDROOT
BRANCH   2   5
ATOM      5  C   UNL     1       8.403   9.318  18.220  0.00  0.00    +0.000 C 
BRANCH   5   6
ATOM      6  O   UNL     1       9.421   9.556  19.174  0.00  0.00    +0.000 OA
BRANCH   6   7
ATOM      7  C   UNL     1       9.645  10.838  19.609  0.00  0.00    +0.000 A 
ATOM      8  C   UNL     1       9.183  11.039  20.922  0.00  0.00    +0.000 A 
ATOM      9  C   UNL     1       9.319  12.270  21.576  0.00  0.00    +0.000 A 
ATOM     10  C   UNL     1       9.932  13.332  20.924  0.00  0.00    +0.000 A 
ATOM     11  C   UNL     1      10.396  13.158  19.623  0.00  0.00    +0.000 A 
ATOM     12  C   UNL     1      10.251  11.931  18.954  0.00  0.00    +0.000 A 
ATOM     13 CL   UNL     1      10.876  11.937  17.342  0.00  0.00    +0.000 Cl
ENDBRANCH   6   7
ENDBRANCH   5   6
ENDBRANCH   2   5
BRANCH   3  14
ATOM     14  C   UNL     1       6.837   6.203  16.642  0.00  0.00    +0.000 C 
BRANCH  14  15
ATOM     15  C   UNL     1       5.441   6.219  16.018  0.00  0.00    +0.000 C 
BRANCH  15  16
ATOM     16  C   UNL     1       4.372   5.752  16.974  0.00  0.00    +0.000 A 
ATOM     17  C   UNL     1       3.768   6.650  17.868  0.00  0.00    +0.000 A 
ATOM     18  C   UNL     1       2.795   6.209  18.768  0.00  0.00    +0.000 A 
ATOM     19  C   UNL     1       2.422   4.867  18.789  0.00  0.00    +0.000 A 
ATOM     20  C   UNL     1       3.003   3.969  17.891  0.00  0.00    +0.000 A 
ATOM     21  C   UNL     1       3.979   4.406  16.996  0.00  0.00    +0.000 A 
ATOM     22  O   UNL     1       2.673   2.639  17.839  0.00  0.00    +0.000 OA
ATOM     23  C   UNL     1       1.454   2.372  18.541  0.00  0.00    +0.000 C 
ATOM     24  C   UNL     1       1.432   3.082  19.885  0.00  0.00    +0.000 C 
ATOM     25  O   UNL     1       1.476   4.503  19.713  0.00  0.00    +0.000 OA
ENDBRANCH  15  16
ENDBRANCH  14  15
ENDBRANCH   3  14
TORSDOF 6
ENDMDL
MODEL 4
REMARK VINA RESULT:      -7.7      1.478      1.984
REMARK  Name = 
REMARK  6 active torsions:
REMARK  status: ('A' for Active; 'I' for Inactive)
REMARK    1  A    between atoms: C_2  and  C_3
REMARK    2  A    between atoms: C_3  and  O_4
REMARK    3  A    between atoms: O_4  and  C_5
REMARK    4  A    between atoms: N_12  and  C_13
REMARK    5  A    between atoms: C_13  and  C_14
REMARK    6  A    between atoms: C_14  and  C_15
REMARK                            x       y       z     vdW  Elec       q    Type
REMARK                         _______ _______ _______ _____ _____    ______ ____
ROOT
ATOM      1  O   UNL     1       8.236   7.052  18.721  0.00  0.00    +0.000 OA
ATOM      2  C   UNL     1       7.779   7.742  17.813  0.00  0.00    +0.000 C 
ATOM      3  N   UNL     1       7.157   7.204  16.703  0.00  0.00    +0.000 N 
ATOM      4  H   UNL     1       6.924   7.815  15.930  0.00  0.00    +0.000 HD
ENDROOT
BRANCH   2   5
ATOM      5  C   UNL     1       7.789   9.275  17.859  0.00  0.00    +0.000 C 
BRANCH   5   6
ATOM      6  O   UNL     1       9.085   9.839  17.908  0.00  0.00    +0.000 OA
BRANCH   6   7
ATOM      7  C   UNL     1       9.285  11.000  18.612  0.00  0.00    +0.000 A 
ATOM      8  C   UNL     1      10.095  10.799  19.744  0.00  0.00    +0.000 A 
ATOM      9  C   UNL     1      10.442  11.849  20.603  0.00  0.00    +0.000 A 
ATOM     10  C   UNL     1       9.986  13.134  20.340  0.00  0.00    +0.000 A 
ATOM     11  C   UNL     1       9.181  13.357  19.226  0.00  0.00    +0.000 A 
ATOM     12  C   UNL     1       8.816  12.308  18.366  0.00  0.00    +0.000 A 
ATOM     13 CL   UNL     1       7.797  12.799  17.059  0.00  0.00    +0.000 Cl
ENDBRANCH   6   7
ENDBRANCH   5   6
ENDBRANCH   2   5
BRANCH   3  14
ATOM     14  C   UNL     1       6.987   5.767  16.555  0.00  0.00    +0.000 C 
BRANCH  14  15
ATOM     15  C   UNL     1       5.583   5.406  16.066  0.00  0.00    +0.000 C 
BRANCH  15  16
ATOM     16  C   UNL     1       4.675   4.963  17.186  0.00  0.00    +0.000 A 
ATOM     17  C   UNL     1       4.799   5.515  18.470  0.00  0.00    +0.000 A 
ATOM     18  C   UNL     1       3.971   5.085  19.511  0.00  0.00    +0.000 A 
ATOM     19  C   UNL     1       3.019   4.095  19.279  0.00  0.00    +0.000 A 
ATOM     20  C   UNL     1       2.874   3.552  18.001  0.00  0.00    +0.000 A 
ATOM     21  C   UNL     1       3.704   3.975  16.963  0.00  0.00    +0.000 A 
ATOM     22  O   UNL     1       1.947   2.590  17.693  0.00  0.00    +0.000 OA
ATOM     23  C   UNL     1       0.949   2.476  18.713  0.00  0.00    +0.000 C 
ATOM     24  C   UNL     1       1.580   2.473  20.096  0.00  0.00    +0.000 C 
ATOM     25  O   UNL     1       2.256   3.709  20.352  0.00  0.00    +0.000 OA
ENDBRANCH  15  16
ENDBRANCH  14  15
ENDBRANCH   3  14
TORSDOF 6
ENDMDL
MODEL 5
REMARK VINA RESULT:      -7.7      1.565      1.958
REMARK  Name = 
REMARK  6 active torsions:
REMARK  status: ('A' for Active; 'I' for Inactive)
REMARK    1  A    between atoms: C_2  and  C_3
REMARK    2  A    between atoms: C_3  and  O_4
REMARK    3  A    between atoms: O_4  and  C_5
REMARK    4  A    between atoms: N_12  and  C_13
REMARK    5  A    between atoms: C_13  and  C_14
REMARK    6  A    between atoms: C_14  and  C_15
REMARK                            x       y       z     vdW  Elec       q    Type
REMARK                         _______ _______ _______ _____ _____    ______ ____
ROOT
ATOM      1  O   UNL     1       7.226   8.106  16.925  0.00  0.00    +0.000 OA
ATOM      2  C   UNL     1       7.949   8.319  17.895  0.00  0.00    +0.000 C 
ATOM      3  N   UNL     1       8.345   7.323  18.766  0.00  0.00    +0.000 N 
ATOM      4  H   UNL     1       8.827   7.584  19.618  0.00  0.00    +0.000 HD
ENDROOT
BRANCH   2   5
ATOM      5  C   UNL     1       8.542   9.701  18.192  0.00  0.00    +0.000 C 
BRANCH   5   6
ATOM      6  O   UNL     1       9.222   9.781  19.430  0.00  0.00    +0.000 OA
BRANCH   6   7
ATOM      7  C   UNL     1       9.787  10.972  19.809  0.00  0.00    +0.000 A 
ATOM      8  C   UNL     1      10.762  11.409  18.893  0.00  0.00    +0.000 A 
ATOM      9  C   UNL     1      11.460  12.610  19.071  0.00  0.00    +0.000 A 
ATOM     10  C   UNL     1      11.191  13.407  20.176  0.00  0.00    +0.000 A 
ATOM     11  C   UNL     1      10.230  12.994  21.097  0.00  0.00    +0.000 A 
ATOM     12  C   UNL     1       9.535  11.785  20.934  0.00  0.00    +0.000 A 
ATOM     13 CL   UNL     1       8.405  11.453  22.200  0.00  0.00    +0.000 Cl
ENDBRANCH   6   7
ENDBRANCH   5   6
ENDBRANCH   2   5
BRANCH   3  14
ATOM     14  C   UNL     1       7.940   5.940  18.569  0.00  0.00    +0.000 C 
BRANCH  14  15
ATOM     15  C   UNL     1       6.910   5.493  19.608  0.00  0.00    +0.000 C 
BRANCH  15  16
ATOM     16  C   UNL     1       5.667   4.914  18.980  0.00  0.00    +0.000 A 
ATOM     17  C   UNL     1       5.354   5.174  17.637  0.00  0.00    +0.000 A 
ATOM     18  C   UNL     1       4.189   4.654  17.066  0.00  0.00    +0.000 A 
ATOM     19  C   UNL     1       3.324   3.877  17.833  0.00  0.00    +0.000 A 
ATOM     20  C   UNL     1       3.636   3.596  19.165  0.00  0.00    +0.000 A 
ATOM     21  C   UNL     1       4.794   4.120  19.739  0.00  0.00    +0.000 A 
ATOM     22  O   UNL     1       2.844   2.823  19.975  0.00  0.00    +0.000 OA
ATOM     23  C   UNL     1       1.887   2.076  19.217  0.00  0.00    +0.000 C 
ATOM     24  C   UNL     1       1.228   2.948  18.160  0.00  0.00    +0.000 C 
ATOM     25  O   UNL     1       2.191   3.419  17.211  0.00  0.00    +0.000 OA
ENDBRANCH  15  16
ENDBRANCH  14  15
ENDBRANCH   3  14
TORSDOF 6
ENDMDL
MODEL 6
REMARK VINA RESULT:      -7.7      2.776      9.834
REMARK  Name = 
REMARK  6 active torsions:
REMARK  status: ('A' for Active; 'I' for Inactive)
REMARK    1  A    between atoms: C_2  and  C_3
REMARK    2  A    between atoms: C_3  and  O_4
REMARK    3  A    between atoms: O_4  and  C_5
REMARK    4  A    between atoms: N_12  and  C_13
REMARK    5  A    between atoms: C_13  and  C_14
REMARK    6  A    between atoms: C_14  and  C_15
REMARK                            x       y       z     vdW  Elec       q    Type
REMARK                         _______ _______ _______ _____ _____    ______ ____
ROOT
ATOM      1  O   UNL     1       7.656   5.447  20.027  0.00  0.00    +0.000 OA
ATOM      2  C   UNL     1       6.951   5.661  19.044  0.00  0.00    +0.000 C 
ATOM      3  N   UNL     1       7.167   6.721  18.184  0.00  0.00    +0.000 N 
ATOM      4  H   UNL     1       6.473   6.921  17.474  0.00  0.00    +0.000 HD
ENDROOT
BRANCH   2   5
ATOM      5  C   UNL     1       5.805   4.730  18.634  0.00  0.00    +0.000 C 
BRANCH   5   6
ATOM      6  O   UNL     1       4.737   4.690  19.562  0.00  0.00    +0.000 OA
BRANCH   6   7
ATOM      7  C   UNL     1       3.641   3.912  19.289  0.00  0.00    +0.000 A 
ATOM      8  C   UNL     1       3.598   3.512  17.941  0.00  0.00    +0.000 A 
ATOM      9  C   UNL     1       2.573   2.699  17.442  0.00  0.00    +0.000 A 
ATOM     10  C   UNL     1       1.564   2.262  18.290  0.00  0.00    +0.000 A 
ATOM     11  C   UNL     1       1.584   2.646  19.628  0.00  0.00    +0.000 A 
ATOM     12  C   UNL     1       2.601   3.472  20.136  0.00  0.00    +0.000 A 
ATOM     13 CL   UNL     1       2.424   3.845  21.815  0.00  0.00    +0.000 Cl
ENDBRANCH   6   7
ENDBRANCH   5   6
ENDBRANCH   2   5
BRANCH   3  14
ATOM     14  C   UNL     1       8.272   7.645  18.385  0.00  0.00    +0.000 C 
BRANCH  14  15
ATOM     15  C   UNL     1       8.001   9.007  17.746  0.00  0.00    +0.000 C 
BRANCH  15  16
ATOM     16  C   UNL     1       8.752  10.127  18.424  0.00  0.00    +0.000 A 
ATOM     17  C   UNL     1       9.245   9.971  19.728  0.00  0.00    +0.000 A 
ATOM     18  C   UNL     1       9.921  11.018  20.361  0.00  0.00    +0.000 A 
ATOM     19  C   UNL     1      10.101  12.231  19.700  0.00  0.00    +0.000 A 
ATOM     20  C   UNL     1       9.631  12.390  18.395  0.00  0.00    +0.000 A 
ATOM     21  C   UNL     1       8.951  11.348  17.764  0.00  0.00    +0.000 A 
ATOM     22  O   UNL     1       9.789  13.546  17.674  0.00  0.00    +0.000 OA
ATOM     23  C   UNL     1      10.768  14.405  18.267  0.00  0.00    +0.000 C 
ATOM     24  C   UNL     1      10.574  14.498  19.772  0.00  0.00    +0.000 C 
ATOM     25  O   UNL     1      10.755  13.219  20.391  0.00  0.00    +0.000 OA
ENDBRANCH  15  16
ENDBRANCH  14  15
ENDBRANCH   3  14
TORSDOF 6
ENDMDL
MODEL 7
REMARK VINA RESULT:      -7.6      4.221      6.888
REMARK  Name = 
REMARK  6 active torsions:
REMARK  status: ('A' for Active; 'I' for Inactive)
REMARK    1  A    between atoms: C_2  and  C_3
REMARK    2  A    between atoms: C_3  and  O_4
REMARK    3  A    between atoms: O_4  and  C_5
REMARK    4  A    between atoms: N_12  and  C_13
REMARK    5  A    between atoms: C_13  and  C_14
REMARK    6  A    between atoms: C_14  and  C_15
REMARK                            x       y       z     vdW  Elec       q    Type
REMARK                         _______ _______ _______ _____ _____    ______ ____
ROOT
ATOM      1  O   UNL     1       2.441   3.534  21.676  0.00  0.00    +0.000 OA
ATOM      2  C   UNL     1       1.964   4.143  20.722  0.00  0.00    +0.000 C 
ATOM      3  N   UNL     1       1.724   3.550  19.497  0.00  0.00    +0.000 N 
ATOM      4  H   UNL     1       1.458   4.137  18.716  0.00  0.00    +0.000 HD
ENDROOT
BRANCH   2   5
ATOM      5  C   UNL     1       1.519   5.608  20.821  0.00  0.00    +0.000 C 
BRANCH   5   6
ATOM      6  O   UNL     1       2.452   6.528  20.288  0.00  0.00    +0.000 OA
BRANCH   6   7
ATOM      7  C   UNL     1       2.000   7.716  19.771  0.00  0.00    +0.000 A 
ATOM      8  C   UNL     1       2.325   7.859  18.410  0.00  0.00    +0.000 A 
ATOM      9  C   UNL     1       1.951   8.989  17.673  0.00  0.00    +0.000 A 
ATOM     10  C   UNL     1       1.233  10.006  18.287  0.00  0.00    +0.000 A 
ATOM     11  C   UNL     1       0.900   9.888  19.635  0.00  0.00    +0.000 A 
ATOM     12  C   UNL     1       1.283   8.764  20.386  0.00  0.00    +0.000 A 
ATOM     13 CL   UNL     1       0.788   8.830  22.041  0.00  0.00    +0.000 Cl
ENDBRANCH   6   7
ENDBRANCH   5   6
ENDBRANCH   2   5
BRANCH   3  14
ATOM     14  C   UNL     1       2.008   2.142  19.271  0.00  0.00    +0.000 C 
BRANCH  14  15
ATOM     15  C   UNL     1       3.138   1.943  18.260  0.00  0.00    +0.000 C 
BRANCH  15  16
ATOM     16  C   UNL     1       3.930   3.205  18.019  0.00  0.00    +0.000 A 
ATOM     17  C   UNL     1       3.466   4.181  17.125  0.00  0.00    +0.000 A 
ATOM     18  C   UNL     1       4.214   5.338  16.887  0.00  0.00    +0.000 A 
ATOM     19  C   UNL     1       5.433   5.524  17.533  0.00  0.00    +0.000 A 
ATOM     20  C   UNL     1       5.895   4.567  18.440  0.00  0.00    +0.000 A 
ATOM     21  C   UNL     1       5.153   3.409  18.673  0.00  0.00    +0.000 A 
ATOM     22  O   UNL     1       7.075   4.690  19.128  0.00  0.00    +0.000 OA
ATOM     23  C   UNL     1       7.575   6.031  19.076  0.00  0.00    +0.000 C 
ATOM     24  C   UNL     1       7.484   6.593  17.667  0.00  0.00    +0.000 C 
ATOM     25  O   UNL     1       6.121   6.673  17.235  0.00  0.00    +0.000 OA
ENDBRANCH  15  16
ENDBRANCH  14  15
ENDBRANCH   3  14
TORSDOF 6
ENDMDL
MODEL 8
REMARK VINA RESULT:      -7.5      2.892      9.630
REMARK  Name = 
REMARK  6 active torsions:
REMARK  status: ('A' for Active; 'I' for Inactive)
REMARK    1  A    between atoms: C_2  and  C_3
REMARK    2  A    between atoms: C_3  and  O_4
REMARK    3  A    between atoms: O_4  and  C_5
REMARK    4  A    between atoms: N_12  and  C_13
REMARK    5  A    between atoms: C_13  and  C_14
REMARK    6  A    between atoms: C_14  and  C_15
REMARK                            x       y       z     vdW  Elec       q    Type
REMARK                         _______ _______ _______ _____ _____    ______ ____
ROOT
ATOM      1  O   UNL     1       8.139   4.617  17.521  0.00  0.00    +0.000 OA
ATOM      2  C   UNL     1       7.064   5.130  17.820  0.00  0.00    +0.000 C 
ATOM      3  N   UNL     1       6.951   6.438  18.250  0.00  0.00    +0.000 N 
ATOM      4  H   UNL     1       6.060   6.758  18.609  0.00  0.00    +0.000 HD
ENDROOT
BRANCH   2   5
ATOM      5  C   UNL     1       5.730   4.387  17.678  0.00  0.00    +0.000 C 
BRANCH   5   6
ATOM      6  O   UNL     1       4.774   4.729  18.663  0.00  0.00    +0.000 OA
BRANCH   6   7
ATOM      7  C   UNL     1       3.622   3.990  18.763  0.00  0.00    +0.000 A 
ATOM      8  C   UNL     1       2.583   4.522  17.978  0.00  0.00    +0.000 A 
ATOM      9  C   UNL     1       1.319   3.921  17.916  0.00  0.00    +0.000 A 
ATOM     10  C   UNL     1       1.070   2.764  18.642  0.00  0.00    +0.000 A 
ATOM     11  C   UNL     1       2.082   2.220  19.428  0.00  0.00    +0.000 A 
ATOM     12  C   UNL     1       3.349   2.823  19.507  0.00  0.00    +0.000 A 
ATOM     13 CL   UNL     1       4.450   1.998  20.554  0.00  0.00    +0.000 Cl
ENDBRANCH   6   7
ENDBRANCH   5   6
ENDBRANCH   2   5
BRANCH   3  14
ATOM     14  C   UNL     1       8.116   7.303  18.351  0.00  0.00    +0.000 C 
BRANCH  14  15
ATOM     15  C   UNL     1       7.932   8.603  17.567  0.00  0.00    +0.000 C 
BRANCH  15  16
ATOM     16  C   UNL     1       8.541   9.794  18.264  0.00  0.00    +0.000 A 
ATOM     17  C   UNL     1       9.077   9.670  19.555  0.00  0.00    +0.000 A 
ATOM     18  C   UNL     1       9.620  10.780  20.208  0.00  0.00    +0.000 A 
ATOM     19  C   UNL     1       9.625  12.023  19.580  0.00  0.00    +0.000 A 
ATOM     20  C   UNL     1       9.111  12.154  18.287  0.00  0.00    +0.000 A 
ATOM     21  C   UNL     1       8.563  11.048  17.637  0.00  0.00    +0.000 A 
ATOM     22  O   UNL     1       9.100  13.339  17.598  0.00  0.00    +0.000 OA
ATOM     23  C   UNL     1       9.969  14.305  18.200  0.00  0.00    +0.000 C 
ATOM     24  C   UNL     1       9.793  14.330  19.710  0.00  0.00    +0.000 C 
ATOM     25  O   UNL     1      10.155  13.071  20.288  0.00  0.00    +0.000 OA
ENDBRANCH  15  16
ENDBRANCH  14  15
ENDBRANCH   3  14
TORSDOF 6
ENDMDL
MODEL 9
REMARK VINA RESULT:      -7.4      3.041      9.346
REMARK  Name = 
REMARK  6 active torsions:
REMARK  status: ('A' for Active; 'I' for Inactive)
REMARK    1  A    between atoms: C_2  and  C_3
REMARK    2  A    between atoms: C_3  and  O_4
REMARK    3  A    between atoms: O_4  and  C_5
REMARK    4  A    between atoms: N_12  and  C_13
REMARK    5  A    between atoms: C_13  and  C_14
REMARK    6  A    between atoms: C_14  and  C_15
REMARK                            x       y       z     vdW  Elec       q    Type
REMARK                         _______ _______ _______ _____ _____    ______ ____
ROOT
ATOM      1  O   UNL     1       7.497   6.033  15.955  0.00  0.00    +0.000 OA
ATOM      2  C   UNL     1       6.866   5.813  16.986  0.00  0.00    +0.000 C 
ATOM      3  N   UNL     1       7.136   6.453  18.181  0.00  0.00    +0.000 N 
ATOM      4  H   UNL     1       6.673   6.130  19.022  0.00  0.00    +0.000 HD
ENDROOT
BRANCH   2   5
ATOM      5  C   UNL     1       5.667   4.859  17.030  0.00  0.00    +0.000 C 
BRANCH   5   6
ATOM      6  O   UNL     1       4.412   5.508  16.947  0.00  0.00    +0.000 OA
BRANCH   6   7
ATOM      7  C   UNL     1       3.506   5.348  17.965  0.00  0.00    +0.000 A 
ATOM      8  C   UNL     1       3.357   6.520  18.729  0.00  0.00    +0.000 A 
ATOM      9  C   UNL     1       2.473   6.591  19.812  0.00  0.00    +0.000 A 
ATOM     10  C   UNL     1       1.709   5.481  20.152  0.00  0.00    +0.000 A 
ATOM     11  C   UNL     1       1.840   4.310  19.411  0.00  0.00    +0.000 A 
ATOM     12  C   UNL     1       2.735   4.225  18.331  0.00  0.00    +0.000 A 
ATOM     13 CL   UNL     1       2.758   2.676  17.564  0.00  0.00    +0.000 Cl
ENDBRANCH   6   7
ENDBRANCH   5   6
ENDBRANCH   2   5
BRANCH   3  14
ATOM     14  C   UNL     1       8.186   7.454  18.282  0.00  0.00    +0.000 C 
BRANCH  14  15
ATOM     15  C   UNL     1       7.720   8.821  17.778  0.00  0.00    +0.000 C 
BRANCH  15  16
ATOM     16  C   UNL     1       8.530   9.958  18.352  0.00  0.00    +0.000 A 
ATOM     17  C   UNL     1       9.152   9.834  19.603  0.00  0.00    +0.000 A 
ATOM     18  C   UNL     1       9.882  10.897  20.142  0.00  0.00    +0.000 A 
ATOM     19  C   UNL     1       9.990  12.094  19.438  0.00  0.00    +0.000 A 
ATOM     20  C   UNL     1       9.391  12.222  18.183  0.00  0.00    +0.000 A 
ATOM     21  C   UNL     1       8.656  11.164  17.647  0.00  0.00    +0.000 A 
ATOM     22  O   UNL     1       9.471  13.361  17.424  0.00  0.00    +0.000 OA
ATOM     23  C   UNL     1      10.501  14.236  17.896  0.00  0.00    +0.000 C 
ATOM     24  C   UNL     1      10.456  14.363  19.410  0.00  0.00    +0.000 C 
ATOM     25  O   UNL     1      10.704  13.100  20.038  0.00  0.00    +0.000 OA
ENDBRANCH  15  16
ENDBRANCH  14  15
ENDBRANCH   3  14
TORSDOF 6
ENDMDL
