MODEL 1
REMARK VINA RESULT:      -7.0      0.000      0.000
REMARK  Name = 
REMARK  1 active torsions:
REMARK  status: ('A' for Active; 'I' for Inactive)
REMARK    1  A    between atoms: C_8  and  C_9
REMARK                            x       y       z     vdW  Elec       q    Type
REMARK                         _______ _______ _______ _____ _____    ______ ____
ROOT
ATOM      1  O   UNL     1       8.037   4.799  18.609  0.00  0.00    +0.000 OA
ATOM      2  C   UNL     1       7.327   4.592  17.645  0.00  0.00    +0.000 C 
ATOM      3  N   UNL     1       7.671   4.609  16.319  0.00  0.00    +0.000 N 
ATOM      4  C   UNL     1       6.595   4.313  15.523  0.00  0.00    +0.000 C 
ATOM      5  S   UNL     1       6.604   4.238  13.877  0.00  0.00    +0.000 S 
ATOM      6  N   UNL     1       5.502   4.088  16.337  0.00  0.00    +0.000 N 
ATOM      7  C   UNL     1       5.872   4.236  17.646  0.00  0.00    +0.000 C 
ATOM      8  C   UNL     1       5.117   4.087  18.737  0.00  0.00    +0.000 C 
ATOM      9  H   UNL     1       8.601   4.810  15.989  0.00  0.00    +0.000 HD
ATOM     10  H   UNL     1       4.574   3.846  16.016  0.00  0.00    +0.000 HD
ENDROOT
BRANCH   8  11
ATOM     11  C   UNL     1       3.715   3.678  18.699  0.00  0.00    +0.000 A 
ATOM     12  C   UNL     1       3.359   2.391  19.120  0.00  0.00    +0.000 A 
ATOM     13  C   UNL     1       2.026   1.979  19.070  0.00  0.00    +0.000 A 
ATOM     14  C   UNL     1       1.044   2.849  18.600  0.00  0.00    +0.000 A 
ATOM     15  C   UNL     1       1.394   4.133  18.180  0.00  0.00    +0.000 A 
ATOM     16  C   UNL     1       2.726   4.548  18.229  0.00  0.00    +0.000 A 
ENDBRANCH   8  11
TORSDOF 1
ENDMDL
MODEL 2
REMARK VINA RESULT:      -6.9      1.371      1.887
REMARK  Name = 
REMARK  1 active torsions:
REMARK  status: ('A' for Active; 'I' for Inactive)
REMARK    1  A    between atoms: C_8  and  C_9
REMARK                            x       y       z     vdW  Elec       q    Type
REMARK                         _______ _______ _______ _____ _____    ______ ____
ROOT
ATOM      1  O   UNL     1       7.560   6.322  16.642  0.00  0.00    +0.000 OA
ATOM      2  C   UNL     1       6.937   5.563  15.925  0.00  0.00    +0.000 C 
ATOM      3  N   UNL     1       7.232   5.168  14.648  0.00  0.00    +0.000 N 
ATOM      4  C   UNL     1       6.295   4.289  14.170  0.00  0.00    +0.000 C 
ATOM      5  S   UNL     1       6.298   3.592  12.677  0.00  0.00    +0.000 S 
ATOM      6  N   UNL     1       5.348   4.087  15.155  0.00  0.00    +0.000 N 
ATOM      7  C   UNL     1       5.674   4.828  16.258  0.00  0.00    +0.000 C 
ATOM      8  C   UNL     1       5.028   4.898  17.424  0.00  0.00    +0.000 C 
ATOM      9  H   UNL     1       8.042   5.487  14.141  0.00  0.00    +0.000 HD
ATOM     10  H   UNL     1       4.542   3.481  15.076  0.00  0.00    +0.000 HD
ENDROOT
BRANCH   8  11
ATOM     11  C   UNL     1       3.832   4.117  17.732  0.00  0.00    +0.000 A 
ATOM     12  C   UNL     1       2.579   4.742  17.733  0.00  0.00    +0.000 A 
ATOM     13  C   UNL     1       1.430   4.014  18.045  0.00  0.00    +0.000 A 
ATOM     14  C   UNL     1       1.527   2.659  18.356  0.00  0.00    +0.000 A 
ATOM     15  C   UNL     1       2.773   2.030  18.355  0.00  0.00    +0.000 A 
ATOM     16  C   UNL     1       3.924   2.756  18.044  0.00  0.00    +0.000 A 
ENDBRANCH   8  11
TORSDOF 1
ENDMDL
MODEL 3
REMARK VINA RESULT:      -6.9      0.724      1.362
REMARK  Name = 
REMARK  1 active torsions:
REMARK  status: ('A' for Active; 'I' for Inactive)
REMARK    1  A    between atoms: C_8  and  C_9
REMARK                            x       y       z     vdW  Elec       q    Type
REMARK                         _______ _______ _______ _____ _____    ______ ____
ROOT
ATOM      1  O   UNL     1       7.979   4.986  18.827  0.00  0.00    +0.000 OA
ATOM      2  C   UNL     1       7.213   4.689  17.931  0.00  0.00    +0.000 C 
ATOM      3  N   UNL     1       7.466   4.621  16.587  0.00  0.00    +0.000 N 
ATOM      4  C   UNL     1       6.350   4.237  15.890  0.00  0.00    +0.000 C 
ATOM      5  S   UNL     1       6.250   4.044  14.257  0.00  0.00    +0.000 S 
ATOM      6  N   UNL     1       5.323   4.038  16.792  0.00  0.00    +0.000 N 
ATOM      7  C   UNL     1       5.774   4.291  18.058  0.00  0.00    +0.000 C 
ATOM      8  C   UNL     1       5.101   4.199  19.207  0.00  0.00    +0.000 C 
ATOM      9  H   UNL     1       8.364   4.826  16.179  0.00  0.00    +0.000 HD
ATOM     10  H   UNL     1       4.384   3.746  16.554  0.00  0.00    +0.000 HD
ENDROOT
BRANCH   8  11
ATOM     11  C   UNL     1       3.714   3.746  19.295  0.00  0.00    +0.000 A 
ATOM     12  C   UNL     1       2.714   4.651  19.671  0.00  0.00    +0.000 A 
ATOM     13  C   UNL     1       1.388   4.228  19.779  0.00  0.00    +0.000 A 
ATOM     14  C   UNL     1       1.056   2.901  19.512  0.00  0.00    +0.000 A 
ATOM     15  C   UNL     1       2.048   1.996  19.136  0.00  0.00    +0.000 A 
ATOM     16  C   UNL     1       3.375   2.415  19.028  0.00  0.00    +0.000 A 
ENDBRANCH   8  11
TORSDOF 1
ENDMDL
MODEL 4
REMARK VINA RESULT:      -6.9      1.334      1.371
REMARK  Name = 
REMARK  1 active torsions:
REMARK  status: ('A' for Active; 'I' for Inactive)
REMARK    1  A    between atoms: C_8  and  C_9
REMARK                            x       y       z     vdW  Elec       q    Type
REMARK                         _______ _______ _______ _____ _____    ______ ____
ROOT
ATOM      1  O   UNL     1       7.551   6.325  16.712  0.00  0.00    +0.000 OA
ATOM      2  C   UNL     1       6.920   5.570  15.997  0.00  0.00    +0.000 C 
ATOM      3  N   UNL     1       7.207   5.176  14.718  0.00  0.00    +0.000 N 
ATOM      4  C   UNL     1       6.263   4.304  14.243  0.00  0.00    +0.000 C 
ATOM      5  S   UNL     1       6.254   3.610  12.749  0.00  0.00    +0.000 S 
ATOM      6  N   UNL     1       5.320   4.104  15.233  0.00  0.00    +0.000 N 
ATOM      7  C   UNL     1       5.655   4.842  16.335  0.00  0.00    +0.000 C 
ATOM      8  C   UNL     1       5.016   4.913  17.505  0.00  0.00    +0.000 C 
ATOM      9  H   UNL     1       8.016   5.492  14.207  0.00  0.00    +0.000 HD
ATOM     10  H   UNL     1       4.510   3.503  15.156  0.00  0.00    +0.000 HD
ENDROOT
BRANCH   8  11
ATOM     11  C   UNL     1       3.817   4.137  17.817  0.00  0.00    +0.000 A 
ATOM     12  C   UNL     1       3.939   2.786  18.164  0.00  0.00    +0.000 A 
ATOM     13  C   UNL     1       2.802   2.027  18.445  0.00  0.00    +0.000 A 
ATOM     14  C   UNL     1       1.539   2.613  18.382  0.00  0.00    +0.000 A 
ATOM     15  C   UNL     1       1.412   3.960  18.038  0.00  0.00    +0.000 A 
ATOM     16  C   UNL     1       2.547   4.722  17.756  0.00  0.00    +0.000 A 
ENDBRANCH   8  11
TORSDOF 1
ENDMDL
MODEL 5
REMARK VINA RESULT:      -6.6      2.153      2.662
REMARK  Name = 
REMARK  1 active torsions:
REMARK  status: ('A' for Active; 'I' for Inactive)
REMARK    1  A    between atoms: C_8  and  C_9
REMARK                            x       y       z     vdW  Elec       q    Type
REMARK                         _______ _______ _______ _____ _____    ______ ____
ROOT
ATOM      1  O   UNL     1       6.731   4.230  14.794  0.00  0.00    +0.000 OA
ATOM      2  C   UNL     1       6.669   4.402  15.995  0.00  0.00    +0.000 C 
ATOM      3  N   UNL     1       7.614   4.945  16.824  0.00  0.00    +0.000 N 
ATOM      4  C   UNL     1       7.174   4.983  18.122  0.00  0.00    +0.000 C 
ATOM      5  S   UNL     1       8.021   5.562  19.411  0.00  0.00    +0.000 S 
ATOM      6  N   UNL     1       5.899   4.454  18.163  0.00  0.00    +0.000 N 
ATOM      7  C   UNL     1       5.521   4.080  16.903  0.00  0.00    +0.000 C 
ATOM      8  C   UNL     1       4.361   3.545  16.515  0.00  0.00    +0.000 C 
ATOM      9  H   UNL     1       8.510   5.275  16.504  0.00  0.00    +0.000 HD
ATOM     10  H   UNL     1       5.330   4.363  18.995  0.00  0.00    +0.000 HD
ENDROOT
BRANCH   8  11
ATOM     11  C   UNL     1       3.240   3.305  17.422  0.00  0.00    +0.000 A 
ATOM     12  C   UNL     1       2.381   4.360  17.753  0.00  0.00    +0.000 A 
ATOM     13  C   UNL     1       1.318   4.150  18.633  0.00  0.00    +0.000 A 
ATOM     14  C   UNL     1       1.109   2.888  19.186  0.00  0.00    +0.000 A 
ATOM     15  C   UNL     1       1.962   1.834  18.858  0.00  0.00    +0.000 A 
ATOM     16  C   UNL     1       3.026   2.039  17.978  0.00  0.00    +0.000 A 
ENDBRANCH   8  11
TORSDOF 1
ENDMDL
MODEL 6
REMARK VINA RESULT:      -6.6      2.157      2.340
REMARK  Name = 
REMARK  1 active torsions:
REMARK  status: ('A' for Active; 'I' for Inactive)
REMARK    1  A    between atoms: C_8  and  C_9
REMARK                            x       y       z     vdW  Elec       q    Type
REMARK                         _______ _______ _______ _____ _____    ______ ____
ROOT
ATOM      1  O   UNL     1       6.399   4.015  14.810  0.00  0.00    +0.000 OA
ATOM      2  C   UNL     1       6.413   4.308  15.990  0.00  0.00    +0.000 C 
ATOM      3  N   UNL     1       7.417   4.903  16.705  0.00  0.00    +0.000 N 
ATOM      4  C   UNL     1       7.056   5.083  18.015  0.00  0.00    +0.000 C 
ATOM      5  S   UNL     1       7.990   5.762  19.190  0.00  0.00    +0.000 S 
ATOM      6  N   UNL     1       5.772   4.599  18.181  0.00  0.00    +0.000 N 
ATOM      7  C   UNL     1       5.312   4.112  16.989  0.00  0.00    +0.000 C 
ATOM      8  C   UNL     1       4.119   3.576  16.722  0.00  0.00    +0.000 C 
ATOM      9  H   UNL     1       8.300   5.173  16.304  0.00  0.00    +0.000 HD
ATOM     10  H   UNL     1       5.252   4.607  19.049  0.00  0.00    +0.000 HD
ENDROOT
BRANCH   8  11
ATOM     11  C   UNL     1       3.048   3.460  17.711  0.00  0.00    +0.000 A 
ATOM     12  C   UNL     1       2.589   2.191  18.086  0.00  0.00    +0.000 A 
ATOM     13  C   UNL     1       1.553   2.066  19.013  0.00  0.00    +0.000 A 
ATOM     14  C   UNL     1       0.973   3.204  19.570  0.00  0.00    +0.000 A 
ATOM     15  C   UNL     1       1.428   4.470  19.199  0.00  0.00    +0.000 A 
ATOM     16  C   UNL     1       2.463   4.600  18.272  0.00  0.00    +0.000 A 
ENDBRANCH   8  11
TORSDOF 1
ENDMDL
MODEL 7
REMARK VINA RESULT:      -6.6      2.193      2.642
REMARK  Name = 
REMARK  1 active torsions:
REMARK  status: ('A' for Active; 'I' for Inactive)
REMARK    1  A    between atoms: C_8  and  C_9
REMARK                            x       y       z     vdW  Elec       q    Type
REMARK                         _______ _______ _______ _____ _____    ______ ____
ROOT
ATOM      1  O   UNL     1       6.645   3.986  14.464  0.00  0.00    +0.000 OA
ATOM      2  C   UNL     1       6.579   4.689  15.454  0.00  0.00    +0.000 C 
ATOM      3  N   UNL     1       7.346   5.777  15.774  0.00  0.00    +0.000 N 
ATOM      4  C   UNL     1       6.964   6.320  16.974  0.00  0.00    +0.000 C 
ATOM      5  S   UNL     1       7.645   7.632  17.700  0.00  0.00    +0.000 S 
ATOM      6  N   UNL     1       5.909   5.577  17.468  0.00  0.00    +0.000 N 
ATOM      7  C   UNL     1       5.614   4.567  16.594  0.00  0.00    +0.000 C 
ATOM      8  C   UNL     1       4.656   3.644  16.695  0.00  0.00    +0.000 C 
ATOM      9  H   UNL     1       8.090   6.124  15.190  0.00  0.00    +0.000 HD
ATOM     10  H   UNL     1       5.426   5.757  18.339  0.00  0.00    +0.000 HD
ENDROOT
BRANCH   8  11
ATOM     11  C   UNL     1       3.693   3.597  17.794  0.00  0.00    +0.000 A 
ATOM     12  C   UNL     1       2.447   4.217  17.648  0.00  0.00    +0.000 A 
ATOM     13  C   UNL     1       1.526   4.198  18.697  0.00  0.00    +0.000 A 
ATOM     14  C   UNL     1       1.844   3.559  19.893  0.00  0.00    +0.000 A 
ATOM     15  C   UNL     1       3.085   2.938  20.043  0.00  0.00    +0.000 A 
ATOM     16  C   UNL     1       4.009   2.955  18.997  0.00  0.00    +0.000 A 
ENDBRANCH   8  11
TORSDOF 1
ENDMDL
MODEL 8
REMARK VINA RESULT:      -6.6      2.167      2.335
REMARK  Name = 
REMARK  1 active torsions:
REMARK  status: ('A' for Active; 'I' for Inactive)
REMARK    1  A    between atoms: C_8  and  C_9
REMARK                            x       y       z     vdW  Elec       q    Type
REMARK                         _______ _______ _______ _____ _____    ______ ____
ROOT
ATOM      1  O   UNL     1       6.524   3.859  14.479  0.00  0.00    +0.000 OA
ATOM      2  C   UNL     1       6.477   4.574  15.460  0.00  0.00    +0.000 C 
ATOM      3  N   UNL     1       7.263   5.654  15.761  0.00  0.00    +0.000 N 
ATOM      4  C   UNL     1       6.899   6.217  16.957  0.00  0.00    +0.000 C 
ATOM      5  S   UNL     1       7.605   7.528  17.662  0.00  0.00    +0.000 S 
ATOM      6  N   UNL     1       5.837   5.496  17.469  0.00  0.00    +0.000 N 
ATOM      7  C   UNL     1       5.520   4.480  16.610  0.00  0.00    +0.000 C 
ATOM      8  C   UNL     1       4.549   3.572  16.729  0.00  0.00    +0.000 C 
ATOM      9  H   UNL     1       8.006   5.983  15.167  0.00  0.00    +0.000 HD
ATOM     10  H   UNL     1       5.364   5.693  18.342  0.00  0.00    +0.000 HD
ENDROOT
BRANCH   8  11
ATOM     11  C   UNL     1       3.595   3.552  17.837  0.00  0.00    +0.000 A 
ATOM     12  C   UNL     1       3.933   2.899  19.028  0.00  0.00    +0.000 A 
ATOM     13  C   UNL     1       3.025   2.854  20.087  0.00  0.00    +0.000 A 
ATOM     14  C   UNL     1       1.777   3.462  19.962  0.00  0.00    +0.000 A 
ATOM     15  C   UNL     1       1.436   4.116  18.777  0.00  0.00    +0.000 A 
ATOM     16  C   UNL     1       2.342   4.162  17.716  0.00  0.00    +0.000 A 
ENDBRANCH   8  11
TORSDOF 1
ENDMDL
MODEL 9
REMARK VINA RESULT:      -6.4      2.619      2.904
REMARK  Name = 
REMARK  1 active torsions:
REMARK  status: ('A' for Active; 'I' for Inactive)
REMARK    1  A    between atoms: C_8  and  C_9
REMARK                            x       y       z     vdW  Elec       q    Type
REMARK                         _______ _______ _______ _____ _____    ______ ____
ROOT
ATOM      1  O   UNL     1       5.048   6.872  15.563  0.00  0.00    +0.000 OA
ATOM      2  C   UNL     1       5.388   6.392  16.627  0.00  0.00    +0.000 C 
ATOM      3  N   UNL     1       6.617   6.447  17.228  0.00  0.00    +0.000 N 
ATOM      4  C   UNL     1       6.611   5.793  18.433  0.00  0.00    +0.000 C 
ATOM      5  S   UNL     1       7.895   5.636  19.452  0.00  0.00    +0.000 S 
ATOM      6  N   UNL     1       5.342   5.289  18.646  0.00  0.00    +0.000 N 
ATOM      7  C   UNL     1       4.539   5.617  17.588  0.00  0.00    +0.000 C 
ATOM      8  C   UNL     1       3.245   5.335  17.417  0.00  0.00    +0.000 C 
ATOM      9  H   UNL     1       7.412   6.916  16.825  0.00  0.00    +0.000 HD
ATOM     10  H   UNL     1       5.051   4.764  19.460  0.00  0.00    +0.000 HD
ENDROOT
BRANCH   8  11
ATOM     11  C   UNL     1       2.435   4.630  18.409  0.00  0.00    +0.000 A 
ATOM     12  C   UNL     1       1.932   3.358  18.113  0.00  0.00    +0.000 A 
ATOM     13  C   UNL     1       1.141   2.682  19.042  0.00  0.00    +0.000 A 
ATOM     14  C   UNL     1       0.849   3.272  20.270  0.00  0.00    +0.000 A 
ATOM     15  C   UNL     1       1.348   4.539  20.571  0.00  0.00    +0.000 A 
ATOM     16  C   UNL     1       2.140   5.219  19.643  0.00  0.00    +0.000 A 
ENDBRANCH   8  11
TORSDOF 1
ENDMDL
