MODEL 1
REMARK VINA RESULT:      -8.3      0.000      0.000
REMARK  Name = 
REMARK  5 active torsions:
REMARK  status: ('A' for Active; 'I' for Inactive)
REMARK    1  A    between atoms: C_2  and  C_3
REMARK    2  A    between atoms: C_3  and  O_4
REMARK    3  A    between atoms: O_4  and  C_5
REMARK    4  A    between atoms: C_8  and  C_9
REMARK    5  A    between atoms: N_19  and  C_20
REMARK                            x       y       z     vdW  Elec       q    Type
REMARK                         _______ _______ _______ _____ _____    ______ ____
ROOT
ATOM      1  C   UNL     1       7.112   7.253  17.336  0.00  0.00    +0.000 A 
ATOM      2  C   UNL     1       6.110   6.835  16.456  0.00  0.00    +0.000 A 
ATOM      3  C   UNL     1       5.446   5.627  16.666  0.00  0.00    +0.000 A 
ATOM      4  C   UNL     1       5.810   4.806  17.735  0.00  0.00    +0.000 A 
ATOM      5  C   UNL     1       6.870   5.181  18.566  0.00  0.00    +0.000 A 
ATOM      6  C   UNL     1       7.523   6.403  18.362  0.00  0.00    +0.000 A 
ENDROOT
BRANCH   4   7
ATOM      7  C   UNL     1       5.057   3.577  17.978  0.00  0.00    +0.000 C 
ATOM      8  C   UNL     1       3.915   3.498  18.668  0.00  0.00    +0.000 C 
ATOM      9  S   UNL     1       3.015   4.775  19.395  0.00  0.00    +0.000 S 
ATOM     10  C   UNL     1       1.805   3.669  20.011  0.00  0.00    +0.000 C 
ATOM     11  O   UNL     1       0.842   4.007  20.682  0.00  0.00    +0.000 OA
ATOM     12  N   UNL     1       2.104   2.400  19.641  0.00  0.00    +0.000 N 
ATOM     13  C   UNL     1       3.244   2.197  18.920  0.00  0.00    +0.000 C 
ATOM     14  O   UNL     1       3.652   1.107  18.554  0.00  0.00    +0.000 OA
ATOM     15  H   UNL     1       1.523   1.629  19.920  0.00  0.00    +0.000 HD
ENDBRANCH   4   7
BRANCH   1  16
ATOM     16  O   UNL     1       7.716   8.486  17.278  0.00  0.00    +0.000 OA
BRANCH  16  17
ATOM     17  C   UNL     1       8.488   8.787  18.440  0.00  0.00    +0.000 C 
BRANCH  17  19
ATOM     18  O   UNL     1       8.464  11.104  17.816  0.00  0.00    +0.000 OA
ATOM     19  C   UNL     1       8.872  10.250  18.605  0.00  0.00    +0.000 C 
ATOM     20  N   UNL     1       9.704  10.511  19.677  0.00  0.00    +0.000 N 
ATOM     21  H   UNL     1      10.399   9.788  19.846  0.00  0.00    +0.000 HD
BRANCH  20  22
ATOM     22  C   UNL     1      10.030  11.837  20.051  0.00  0.00    +0.000 A 
ATOM     23  C   UNL     1       9.416  12.473  21.148  0.00  0.00    +0.000 A 
ATOM     24 CL   UNL     1       8.230  11.695  22.143  0.00  0.00    +0.000 Cl
ATOM     25  C   UNL     1       9.842  13.742  21.557  0.00  0.00    +0.000 A 
ATOM     26  C   UNL     1      10.879  14.388  20.886  0.00  0.00    +0.000 A 
ATOM     27  C   UNL     1      11.475  13.780  19.783  0.00  0.00    +0.000 A 
ATOM     28  C   UNL     1      11.051  12.514  19.368  0.00  0.00    +0.000 A 
ATOM     29 CL   UNL     1      11.762  11.846  17.938  0.00  0.00    +0.000 Cl
ENDBRANCH  20  22
ENDBRANCH  17  19
ENDBRANCH  16  17
ENDBRANCH   1  16
TORSDOF 5
ENDMDL
MODEL 2
REMARK VINA RESULT:      -8.3      7.367      9.553
REMARK  Name = 
REMARK  5 active torsions:
REMARK  status: ('A' for Active; 'I' for Inactive)
REMARK    1  A    between atoms: C_2  and  C_3
REMARK    2  A    between atoms: C_3  and  O_4
REMARK    3  A    between atoms: O_4  and  C_5
REMARK    4  A    between atoms: C_8  and  C_9
REMARK    5  A    between atoms: N_19  and  C_20
REMARK                            x       y       z     vdW  Elec       q    Type
REMARK                         _______ _______ _______ _____ _____    ______ ____
ROOT
ATOM      1  C   UNL     1       1.409   9.237  19.468  0.00  0.00    +0.000 A 
ATOM      2  C   UNL     1       1.813   9.013  18.149  0.00  0.00    +0.000 A 
ATOM      3  C   UNL     1       2.283   7.760  17.759  0.00  0.00    +0.000 A 
ATOM      4  C   UNL     1       2.392   6.732  18.697  0.00  0.00    +0.000 A 
ATOM      5  C   UNL     1       2.069   6.978  20.035  0.00  0.00    +0.000 A 
ATOM      6  C   UNL     1       1.582   8.232  20.420  0.00  0.00    +0.000 A 
ENDROOT
BRANCH   4   7
ATOM      7  C   UNL     1       2.822   5.406  18.255  0.00  0.00    +0.000 C 
ATOM      8  C   UNL     1       4.053   5.095  17.838  0.00  0.00    +0.000 C 
ATOM      9  S   UNL     1       5.441   6.112  17.752  0.00  0.00    +0.000 S 
ATOM     10  C   UNL     1       6.435   4.825  17.101  0.00  0.00    +0.000 C 
ATOM     11  O   UNL     1       7.608   4.952  16.792  0.00  0.00    +0.000 OA
ATOM     12  N   UNL     1       5.706   3.688  16.989  0.00  0.00    +0.000 N 
ATOM     13  C   UNL     1       4.390   3.734  17.349  0.00  0.00    +0.000 C 
ATOM     14  O   UNL     1       3.612   2.799  17.265  0.00  0.00    +0.000 OA
ATOM     15  H   UNL     1       6.113   2.847  16.619  0.00  0.00    +0.000 HD
ENDBRANCH   4   7
BRANCH   1  16
ATOM     16  O   UNL     1       0.809  10.396  19.898  0.00  0.00    +0.000 OA
BRANCH  16  17
ATOM     17  C   UNL     1       0.773  11.414  18.897  0.00  0.00    +0.000 C 
BRANCH  17  19
ATOM     18  O   UNL     1      -0.758  13.079  18.097  0.00  0.00    +0.000 OA
ATOM     19  C   UNL     1      -0.612  11.947  18.561  0.00  0.00    +0.000 C 
ATOM     20  N   UNL     1      -1.647  11.075  18.833  0.00  0.00    +0.000 N 
ATOM     21  H   UNL     1      -1.515  10.525  19.679  0.00  0.00    +0.000 HD
BRANCH  20  22
ATOM     22  C   UNL     1      -2.977  11.364  18.441  0.00  0.00    +0.000 A 
ATOM     23  C   UNL     1      -3.859  12.083  19.270  0.00  0.00    +0.000 A 
ATOM     24 CL   UNL     1      -3.401  12.691  20.827  0.00  0.00    +0.000 Cl
ATOM     25  C   UNL     1      -5.128  12.447  18.805  0.00  0.00    +0.000 A 
ATOM     26  C   UNL     1      -5.531  12.104  17.515  0.00  0.00    +0.000 A 
ATOM     27  C   UNL     1      -4.677  11.369  16.695  0.00  0.00    +0.000 A 
ATOM     28  C   UNL     1      -3.410  11.001  17.156  0.00  0.00    +0.000 A 
ATOM     29 CL   UNL     1      -2.427  10.011  16.131  0.00  0.00    +0.000 Cl
ENDBRANCH  20  22
ENDBRANCH  17  19
ENDBRANCH  16  17
ENDBRANCH   1  16
TORSDOF 5
ENDMDL
MODEL 3
REMARK VINA RESULT:      -8.3      7.438      9.801
REMARK  Name = 
REMARK  5 active torsions:
REMARK  status: ('A' for Active; 'I' for Inactive)
REMARK    1  A    between atoms: C_2  and  C_3
REMARK    2  A    between atoms: C_3  and  O_4
REMARK    3  A    between atoms: O_4  and  C_5
REMARK    4  A    between atoms: C_8  and  C_9
REMARK    5  A    between atoms: N_19  and  C_20
REMARK                            x       y       z     vdW  Elec       q    Type
REMARK                         _______ _______ _______ _____ _____    ______ ____
ROOT
ATOM      1  C   UNL     1       1.278   9.216  19.563  0.00  0.00    +0.000 A 
ATOM      2  C   UNL     1       1.692   9.106  18.233  0.00  0.00    +0.000 A 
ATOM      3  C   UNL     1       2.285   7.929  17.775  0.00  0.00    +0.000 A 
ATOM      4  C   UNL     1       2.507   6.869  18.656  0.00  0.00    +0.000 A 
ATOM      5  C   UNL     1       2.171   7.009  20.006  0.00  0.00    +0.000 A 
ATOM      6  C   UNL     1       1.560   8.185  20.459  0.00  0.00    +0.000 A 
ENDROOT
BRANCH   4   7
ATOM      7  C   UNL     1       3.066   5.620  18.142  0.00  0.00    +0.000 C 
ATOM      8  C   UNL     1       4.241   5.503  17.517  0.00  0.00    +0.000 C 
ATOM      9  S   UNL     1       5.407   6.730  17.193  0.00  0.00    +0.000 S 
ATOM     10  C   UNL     1       6.472   5.605  16.376  0.00  0.00    +0.000 C 
ATOM     11  O   UNL     1       7.538   5.913  15.867  0.00  0.00    +0.000 OA
ATOM     12  N   UNL     1       5.932   4.362  16.389  0.00  0.00    +0.000 N 
ATOM     13  C   UNL     1       4.709   4.203  16.972  0.00  0.00    +0.000 C 
ATOM     14  O   UNL     1       4.093   3.152  17.022  0.00  0.00    +0.000 OA
ATOM     15  H   UNL     1       6.402   3.590  15.951  0.00  0.00    +0.000 HD
ENDBRANCH   4   7
BRANCH   1  16
ATOM     16  O   UNL     1       0.566  10.283  20.057  0.00  0.00    +0.000 OA
BRANCH  16  17
ATOM     17  C   UNL     1       0.669  11.451  19.242  0.00  0.00    +0.000 C 
BRANCH  17  19
ATOM     18  O   UNL     1      -0.692  13.068  18.107  0.00  0.00    +0.000 OA
ATOM     19  C   UNL     1      -0.652  12.006  18.730  0.00  0.00    +0.000 C 
ATOM     20  N   UNL     1      -1.758  11.237  19.036  0.00  0.00    +0.000 N 
ATOM     21  H   UNL     1      -1.720  10.804  19.955  0.00  0.00    +0.000 HD
BRANCH  20  22
ATOM     22  C   UNL     1      -3.035  11.539  18.505  0.00  0.00    +0.000 A 
ATOM     23  C   UNL     1      -3.414  11.147  17.206  0.00  0.00    +0.000 A 
ATOM     24 CL   UNL     1      -2.369  10.252  16.152  0.00  0.00    +0.000 Cl
ATOM     25  C   UNL     1      -4.720  11.364  16.755  0.00  0.00    +0.000 A 
ATOM     26  C   UNL     1      -5.662  11.969  17.587  0.00  0.00    +0.000 A 
ATOM     27  C   UNL     1      -5.292  12.385  18.864  0.00  0.00    +0.000 A 
ATOM     28  C   UNL     1      -3.986  12.173  19.319  0.00  0.00    +0.000 A 
ATOM     29 CL   UNL     1      -3.556  12.793  20.877  0.00  0.00    +0.000 Cl
ENDBRANCH  20  22
ENDBRANCH  17  19
ENDBRANCH  16  17
ENDBRANCH   1  16
TORSDOF 5
ENDMDL
MODEL 4
REMARK VINA RESULT:      -8.2      0.405      2.018
REMARK  Name = 
REMARK  5 active torsions:
REMARK  status: ('A' for Active; 'I' for Inactive)
REMARK    1  A    between atoms: C_2  and  C_3
REMARK    2  A    between atoms: C_3  and  O_4
REMARK    3  A    between atoms: O_4  and  C_5
REMARK    4  A    between atoms: C_8  and  C_9
REMARK    5  A    between atoms: N_19  and  C_20
REMARK                            x       y       z     vdW  Elec       q    Type
REMARK                         _______ _______ _______ _____ _____    ______ ____
ROOT
ATOM      1  C   UNL     1       7.166   7.385  17.666  0.00  0.00    +0.000 A 
ATOM      2  C   UNL     1       7.603   6.315  18.450  0.00  0.00    +0.000 A 
ATOM      3  C   UNL     1       6.859   5.138  18.513  0.00  0.00    +0.000 A 
ATOM      4  C   UNL     1       5.647   5.039  17.827  0.00  0.00    +0.000 A 
ATOM      5  C   UNL     1       5.165   6.139  17.111  0.00  0.00    +0.000 A 
ATOM      6  C   UNL     1       5.924   7.313  17.035  0.00  0.00    +0.000 A 
ENDROOT
BRANCH   4   7
ATOM      7  C   UNL     1       4.915   3.773  17.850  0.00  0.00    +0.000 C 
ATOM      8  C   UNL     1       3.875   3.500  18.644  0.00  0.00    +0.000 C 
ATOM      9  S   UNL     1       3.100   4.534  19.784  0.00  0.00    +0.000 S 
ATOM     10  C   UNL     1       1.967   3.285  20.257  0.00  0.00    +0.000 C 
ATOM     11  O   UNL     1       1.109   3.425  21.113  0.00  0.00    +0.000 OA
ATOM     12  N   UNL     1       2.195   2.158  19.541  0.00  0.00    +0.000 N 
ATOM     13  C   UNL     1       3.225   2.166  18.646  0.00  0.00    +0.000 C 
ATOM     14  O   UNL     1       3.563   1.212  17.965  0.00  0.00    +0.000 OA
ATOM     15  H   UNL     1       1.645   1.330  19.691  0.00  0.00    +0.000 HD
ENDBRANCH   4   7
BRANCH   1  16
ATOM     16  O   UNL     1       7.905   8.522  17.442  0.00  0.00    +0.000 OA
BRANCH  16  17
ATOM     17  C   UNL     1       8.741   8.873  18.545  0.00  0.00    +0.000 C 
BRANCH  17  19
ATOM     18  O   UNL     1       8.526  11.183  17.932  0.00  0.00    +0.000 OA
ATOM     19  C   UNL     1       9.053  10.357  18.679  0.00  0.00    +0.000 C 
ATOM     20  N   UNL     1       9.960  10.668  19.672  0.00  0.00    +0.000 N 
ATOM     21  H   UNL     1      10.710   9.988  19.776  0.00  0.00    +0.000 HD
BRANCH  20  22
ATOM     22  C   UNL     1      10.240  12.012  20.020  0.00  0.00    +0.000 A 
ATOM     23  C   UNL     1      11.126  12.807  19.266  0.00  0.00    +0.000 A 
ATOM     24 CL   UNL     1      11.935  12.228  17.848  0.00  0.00    +0.000 Cl
ATOM     25  C   UNL     1      11.294  14.162  19.573  0.00  0.00    +0.000 A 
ATOM     26  C   UNL     1      10.584  14.740  20.625  0.00  0.00    +0.000 A 
ATOM     27  C   UNL     1       9.725  13.957  21.394  0.00  0.00    +0.000 A 
ATOM     28  C   UNL     1       9.557  12.602  21.094  0.00  0.00    +0.000 A 
ATOM     29 CL   UNL     1       8.550  11.656  22.138  0.00  0.00    +0.000 Cl
ENDBRANCH  20  22
ENDBRANCH  17  19
ENDBRANCH  16  17
ENDBRANCH   1  16
TORSDOF 5
ENDMDL
MODEL 5
REMARK VINA RESULT:      -8.1      1.672      2.064
REMARK  Name = 
REMARK  5 active torsions:
REMARK  status: ('A' for Active; 'I' for Inactive)
REMARK    1  A    between atoms: C_2  and  C_3
REMARK    2  A    between atoms: C_3  and  O_4
REMARK    3  A    between atoms: O_4  and  C_5
REMARK    4  A    between atoms: C_8  and  C_9
REMARK    5  A    between atoms: N_19  and  C_20
REMARK                            x       y       z     vdW  Elec       q    Type
REMARK                         _______ _______ _______ _____ _____    ______ ____
ROOT
ATOM      1  C   UNL     1       7.703   7.228  18.201  0.00  0.00    +0.000 A 
ATOM      2  C   UNL     1       6.779   7.511  17.191  0.00  0.00    +0.000 A 
ATOM      3  C   UNL     1       5.759   6.607  16.896  0.00  0.00    +0.000 A 
ATOM      4  C   UNL     1       5.681   5.393  17.581  0.00  0.00    +0.000 A 
ATOM      5  C   UNL     1       6.655   5.070  18.531  0.00  0.00    +0.000 A 
ATOM      6  C   UNL     1       7.667   5.987  18.837  0.00  0.00    +0.000 A 
ENDROOT
BRANCH   4   7
ATOM      7  C   UNL     1       4.566   4.489  17.306  0.00  0.00    +0.000 C 
ATOM      8  C   UNL     1       3.480   4.350  18.073  0.00  0.00    +0.000 C 
ATOM      9  S   UNL     1       3.079   5.196  19.520  0.00  0.00    +0.000 S 
ATOM     10  C   UNL     1       1.583   4.305  19.712  0.00  0.00    +0.000 C 
ATOM     11  O   UNL     1       0.807   4.458  20.642  0.00  0.00    +0.000 OA
ATOM     12  N   UNL     1       1.430   3.429  18.690  0.00  0.00    +0.000 N 
ATOM     13  C   UNL     1       2.418   3.364  17.751  0.00  0.00    +0.000 C 
ATOM     14  O   UNL     1       2.427   2.598  16.802  0.00  0.00    +0.000 OA
ATOM     15  H   UNL     1       0.631   2.822  18.645  0.00  0.00    +0.000 HD
ENDBRANCH   4   7
BRANCH   1  16
ATOM     16  O   UNL     1       8.650   8.120  18.643  0.00  0.00    +0.000 OA
BRANCH  16  17
ATOM     17  C   UNL     1       8.578   9.386  17.987  0.00  0.00    +0.000 C 
BRANCH  17  19
ATOM     18  O   UNL     1       9.179  10.489  20.031  0.00  0.00    +0.000 OA
ATOM     19  C   UNL     1       9.061  10.573  18.808  0.00  0.00    +0.000 C 
ATOM     20  N   UNL     1       9.328  11.711  18.073  0.00  0.00    +0.000 N 
ATOM     21  H   UNL     1       8.685  11.866  17.300  0.00  0.00    +0.000 HD
BRANCH  20  22
ATOM     22  C   UNL     1       9.924  12.850  18.668  0.00  0.00    +0.000 A 
ATOM     23  C   UNL     1      11.243  12.826  19.162  0.00  0.00    +0.000 A 
ATOM     24 CL   UNL     1      12.256  11.423  19.075  0.00  0.00    +0.000 Cl
ATOM     25  C   UNL     1      11.838  13.999  19.642  0.00  0.00    +0.000 A 
ATOM     26  C   UNL     1      11.134  15.202  19.633  0.00  0.00    +0.000 A 
ATOM     27  C   UNL     1       9.820  15.231  19.171  0.00  0.00    +0.000 A 
ATOM     28  C   UNL     1       9.219  14.062  18.694  0.00  0.00    +0.000 A 
ATOM     29 CL   UNL     1       7.556  14.137  18.219  0.00  0.00    +0.000 Cl
ENDBRANCH  20  22
ENDBRANCH  17  19
ENDBRANCH  16  17
ENDBRANCH   1  16
TORSDOF 5
ENDMDL
MODEL 6
REMARK VINA RESULT:      -8.1      7.345      9.595
REMARK  Name = 
REMARK  5 active torsions:
REMARK  status: ('A' for Active; 'I' for Inactive)
REMARK    1  A    between atoms: C_2  and  C_3
REMARK    2  A    between atoms: C_3  and  O_4
REMARK    3  A    between atoms: O_4  and  C_5
REMARK    4  A    between atoms: C_8  and  C_9
REMARK    5  A    between atoms: N_19  and  C_20
REMARK                            x       y       z     vdW  Elec       q    Type
REMARK                         _______ _______ _______ _____ _____    ______ ____
ROOT
ATOM      1  C   UNL     1       1.390   9.214  19.517  0.00  0.00    +0.000 A 
ATOM      2  C   UNL     1       1.567   8.168  20.427  0.00  0.00    +0.000 A 
ATOM      3  C   UNL     1       2.109   6.954  20.007  0.00  0.00    +0.000 A 
ATOM      4  C   UNL     1       2.437   6.761  18.665  0.00  0.00    +0.000 A 
ATOM      5  C   UNL     1       2.181   7.776  17.737  0.00  0.00    +0.000 A 
ATOM      6  C   UNL     1       1.653   9.000  18.164  0.00  0.00    +0.000 A 
ENDROOT
BRANCH   4   7
ATOM      7  C   UNL     1       3.067   5.507  18.257  0.00  0.00    +0.000 C 
ATOM      8  C   UNL     1       4.249   5.403  17.641  0.00  0.00    +0.000 C 
ATOM      9  S   UNL     1       5.344   6.662  17.211  0.00  0.00    +0.000 S 
ATOM     10  C   UNL     1       6.472   5.534  16.489  0.00  0.00    +0.000 C 
ATOM     11  O   UNL     1       7.520   5.858  15.954  0.00  0.00    +0.000 OA
ATOM     12  N   UNL     1       6.003   4.268  16.609  0.00  0.00    +0.000 N 
ATOM     13  C   UNL     1       4.790   4.091  17.207  0.00  0.00    +0.000 C 
ATOM     14  O   UNL     1       4.234   3.014  17.347  0.00  0.00    +0.000 OA
ATOM     15  H   UNL     1       6.517   3.489  16.237  0.00  0.00    +0.000 HD
ENDBRANCH   4   7
BRANCH   1  16
ATOM     16  O   UNL     1       0.992  10.480  19.875  0.00  0.00    +0.000 OA
BRANCH  16  17
ATOM     17  C   UNL     1       0.873  11.366  18.761  0.00  0.00    +0.000 C 
BRANCH  17  19
ATOM     18  O   UNL     1      -0.686  13.080  18.139  0.00  0.00    +0.000 OA
ATOM     19  C   UNL     1      -0.523  11.918  18.515  0.00  0.00    +0.000 C 
ATOM     20  N   UNL     1      -1.548  11.026  18.762  0.00  0.00    +0.000 N 
ATOM     21  H   UNL     1      -1.384  10.417  19.561  0.00  0.00    +0.000 HD
BRANCH  20  22
ATOM     22  C   UNL     1      -2.891  11.338  18.440  0.00  0.00    +0.000 A 
ATOM     23  C   UNL     1      -3.718  12.064  19.319  0.00  0.00    +0.000 A 
ATOM     24 CL   UNL     1      -3.171  12.653  20.855  0.00  0.00    +0.000 Cl
ATOM     25  C   UNL     1      -5.003  12.451  18.922  0.00  0.00    +0.000 A 
ATOM     26  C   UNL     1      -5.477  12.125  17.653  0.00  0.00    +0.000 A 
ATOM     27  C   UNL     1      -4.678  11.384  16.784  0.00  0.00    +0.000 A 
ATOM     28  C   UNL     1      -3.395  10.992  17.177  0.00  0.00    +0.000 A 
ATOM     29 CL   UNL     1      -2.482   9.995  16.096  0.00  0.00    +0.000 Cl
ENDBRANCH  20  22
ENDBRANCH  17  19
ENDBRANCH  16  17
ENDBRANCH   1  16
TORSDOF 5
ENDMDL
MODEL 7
REMARK VINA RESULT:      -8.1      1.027      1.058
REMARK  Name = 
REMARK  5 active torsions:
REMARK  status: ('A' for Active; 'I' for Inactive)
REMARK    1  A    between atoms: C_2  and  C_3
REMARK    2  A    between atoms: C_3  and  O_4
REMARK    3  A    between atoms: O_4  and  C_5
REMARK    4  A    between atoms: C_8  and  C_9
REMARK    5  A    between atoms: N_19  and  C_20
REMARK                            x       y       z     vdW  Elec       q    Type
REMARK                         _______ _______ _______ _____ _____    ______ ____
ROOT
ATOM      1  C   UNL     1       6.879   6.942  17.071  0.00  0.00    +0.000 A 
ATOM      2  C   UNL     1       5.542   7.339  16.978  0.00  0.00    +0.000 A 
ATOM      3  C   UNL     1       4.519   6.399  17.088  0.00  0.00    +0.000 A 
ATOM      4  C   UNL     1       4.825   5.047  17.248  0.00  0.00    +0.000 A 
ATOM      5  C   UNL     1       6.162   4.636  17.254  0.00  0.00    +0.000 A 
ATOM      6  C   UNL     1       7.188   5.584  17.162  0.00  0.00    +0.000 A 
ENDROOT
BRANCH   4   7
ATOM      7  C   UNL     1       3.739   4.086  17.429  0.00  0.00    +0.000 C 
ATOM      8  C   UNL     1       3.196   3.751  18.604  0.00  0.00    +0.000 C 
ATOM      9  S   UNL     1       3.571   4.366  20.169  0.00  0.00    +0.000 S 
ATOM     10  C   UNL     1       2.394   3.323  20.941  0.00  0.00    +0.000 C 
ATOM     11  O   UNL     1       2.195   3.284  22.145  0.00  0.00    +0.000 OA
ATOM     12  N   UNL     1       1.758   2.573  20.009  0.00  0.00    +0.000 N 
ATOM     13  C   UNL     1       2.133   2.719  18.706  0.00  0.00    +0.000 C 
ATOM     14  O   UNL     1       1.671   2.083  17.773  0.00  0.00    +0.000 OA
ATOM     15  H   UNL     1       1.056   1.905  20.275  0.00  0.00    +0.000 HD
ENDBRANCH   4   7
BRANCH   1  16
ATOM     16  O   UNL     1       7.937   7.818  17.110  0.00  0.00    +0.000 OA
BRANCH  16  17
ATOM     17  C   UNL     1       8.254   8.256  18.431  0.00  0.00    +0.000 C 
BRANCH  17  19
ATOM     18  O   UNL     1       8.133  10.569  17.804  0.00  0.00    +0.000 OA
ATOM     19  C   UNL     1       8.624   9.727  18.557  0.00  0.00    +0.000 C 
ATOM     20  N   UNL     1       9.540  10.007  19.552  0.00  0.00    +0.000 N 
ATOM     21  H   UNL     1      10.261   9.298  19.662  0.00  0.00    +0.000 HD
BRANCH  20  22
ATOM     22  C   UNL     1       9.873  11.341  19.892  0.00  0.00    +0.000 A 
ATOM     23  C   UNL     1       9.338  11.974  21.031  0.00  0.00    +0.000 A 
ATOM     24 CL   UNL     1       8.247  11.184  22.121  0.00  0.00    +0.000 Cl
ATOM     25  C   UNL     1       9.774  13.252  21.399  0.00  0.00    +0.000 A 
ATOM     26  C   UNL     1      10.744  13.910  20.644  0.00  0.00    +0.000 A 
ATOM     27  C   UNL     1      11.261  13.305  19.501  0.00  0.00    +0.000 A 
ATOM     28  C   UNL     1      10.827  12.029  19.127  0.00  0.00    +0.000 A 
ATOM     29 CL   UNL     1      11.433  11.364  17.648  0.00  0.00    +0.000 Cl
ENDBRANCH  20  22
ENDBRANCH  17  19
ENDBRANCH  16  17
ENDBRANCH   1  16
TORSDOF 5
ENDMDL
MODEL 8
REMARK VINA RESULT:      -8.0      1.385      1.442
REMARK  Name = 
REMARK  5 active torsions:
REMARK  status: ('A' for Active; 'I' for Inactive)
REMARK    1  A    between atoms: C_2  and  C_3
REMARK    2  A    between atoms: C_3  and  O_4
REMARK    3  A    between atoms: O_4  and  C_5
REMARK    4  A    between atoms: C_8  and  C_9
REMARK    5  A    between atoms: N_19  and  C_20
REMARK                            x       y       z     vdW  Elec       q    Type
REMARK                         _______ _______ _______ _____ _____    ______ ____
ROOT
ATOM      1  C   UNL     1       7.787   7.390  18.188  0.00  0.00    +0.000 A 
ATOM      2  C   UNL     1       6.827   7.720  17.228  0.00  0.00    +0.000 A 
ATOM      3  C   UNL     1       5.799   6.828  16.924  0.00  0.00    +0.000 A 
ATOM      4  C   UNL     1       5.748   5.581  17.547  0.00  0.00    +0.000 A 
ATOM      5  C   UNL     1       6.756   5.214  18.445  0.00  0.00    +0.000 A 
ATOM      6  C   UNL     1       7.777   6.118  18.761  0.00  0.00    +0.000 A 
ENDROOT
BRANCH   4   7
ATOM      7  C   UNL     1       4.625   4.688  17.266  0.00  0.00    +0.000 C 
ATOM      8  C   UNL     1       3.548   4.538  18.043  0.00  0.00    +0.000 C 
ATOM      9  S   UNL     1       3.168   5.354  19.512  0.00  0.00    +0.000 S 
ATOM     10  C   UNL     1       1.670   4.467  19.703  0.00  0.00    +0.000 C 
ATOM     11  O   UNL     1       0.905   4.604  20.645  0.00  0.00    +0.000 OA
ATOM     12  N   UNL     1       1.501   3.613  18.664  0.00  0.00    +0.000 N 
ATOM     13  C   UNL     1       2.478   3.563  17.713  0.00  0.00    +0.000 C 
ATOM     14  O   UNL     1       2.473   2.817  16.748  0.00  0.00    +0.000 OA
ATOM     15  H   UNL     1       0.698   3.010  18.616  0.00  0.00    +0.000 HD
ENDBRANCH   4   7
BRANCH   1  16
ATOM     16  O   UNL     1       8.747   8.262  18.642  0.00  0.00    +0.000 OA
BRANCH  16  17
ATOM     17  C   UNL     1       8.528   9.607  18.218  0.00  0.00    +0.000 C 
BRANCH  17  19
ATOM     18  O   UNL     1      10.098  10.348  19.874  0.00  0.00    +0.000 OA
ATOM     19  C   UNL     1       9.307  10.666  18.984  0.00  0.00    +0.000 C 
ATOM     20  N   UNL     1       9.038  11.967  18.607  0.00  0.00    +0.000 N 
ATOM     21  H   UNL     1       8.063  12.136  18.371  0.00  0.00    +0.000 HD
BRANCH  20  22
ATOM     22  C   UNL     1       9.787  13.053  19.119  0.00  0.00    +0.000 A 
ATOM     23  C   UNL     1       9.539  13.593  20.396  0.00  0.00    +0.000 A 
ATOM     24 CL   UNL     1       8.318  12.973  21.458  0.00  0.00    +0.000 Cl
ATOM     25  C   UNL     1      10.371  14.592  20.915  0.00  0.00    +0.000 A 
ATOM     26  C   UNL     1      11.455  15.061  20.174  0.00  0.00    +0.000 A 
ATOM     27  C   UNL     1      11.694  14.554  18.899  0.00  0.00    +0.000 A 
ATOM     28  C   UNL     1      10.864  13.558  18.374  0.00  0.00    +0.000 A 
ATOM     29 CL   UNL     1      11.151  13.031  16.751  0.00  0.00    +0.000 Cl
ENDBRANCH  20  22
ENDBRANCH  17  19
ENDBRANCH  16  17
ENDBRANCH   1  16
TORSDOF 5
ENDMDL
MODEL 9
REMARK VINA RESULT:      -8.0      0.792      1.933
REMARK  Name = 
REMARK  5 active torsions:
REMARK  status: ('A' for Active; 'I' for Inactive)
REMARK    1  A    between atoms: C_2  and  C_3
REMARK    2  A    between atoms: C_3  and  O_4
REMARK    3  A    between atoms: O_4  and  C_5
REMARK    4  A    between atoms: C_8  and  C_9
REMARK    5  A    between atoms: N_19  and  C_20
REMARK                            x       y       z     vdW  Elec       q    Type
REMARK                         _______ _______ _______ _____ _____    ______ ____
ROOT
ATOM      1  C   UNL     1       6.981   7.163  17.144  0.00  0.00    +0.000 A 
ATOM      2  C   UNL     1       5.602   7.357  17.023  0.00  0.00    +0.000 A 
ATOM      3  C   UNL     1       4.727   6.277  17.133  0.00  0.00    +0.000 A 
ATOM      4  C   UNL     1       5.227   4.988  17.322  0.00  0.00    +0.000 A 
ATOM      5  C   UNL     1       6.610   4.780  17.356  0.00  0.00    +0.000 A 
ATOM      6  C   UNL     1       7.485   5.868  17.263  0.00  0.00    +0.000 A 
ENDROOT
BRANCH   4   7
ATOM      7  C   UNL     1       4.292   3.879  17.503  0.00  0.00    +0.000 C 
ATOM      8  C   UNL     1       3.628   3.609  18.631  0.00  0.00    +0.000 C 
ATOM      9  S   UNL     1       3.645   4.482  20.117  0.00  0.00    +0.000 S 
ATOM     10  C   UNL     1       2.540   3.355  20.876  0.00  0.00    +0.000 C 
ATOM     11  O   UNL     1       2.159   3.439  22.033  0.00  0.00    +0.000 OA
ATOM     12  N   UNL     1       2.188   2.386  19.996  0.00  0.00    +0.000 N 
ATOM     13  C   UNL     1       2.740   2.425  18.749  0.00  0.00    +0.000 C 
ATOM     14  O   UNL     1       2.540   1.599  17.874  0.00  0.00    +0.000 OA
ATOM     15  H   UNL     1       1.568   1.644  20.266  0.00  0.00    +0.000 HD
ENDBRANCH   4   7
BRANCH   1  16
ATOM     16  O   UNL     1       7.896   8.187  17.184  0.00  0.00    +0.000 OA
BRANCH  16  17
ATOM     17  C   UNL     1       8.287   8.539  18.511  0.00  0.00    +0.000 C 
BRANCH  17  19
ATOM     18  O   UNL     1       8.510  10.841  17.875  0.00  0.00    +0.000 OA
ATOM     19  C   UNL     1       8.805   9.959  18.682  0.00  0.00    +0.000 C 
ATOM     20  N   UNL     1       9.619  10.147  19.782  0.00  0.00    +0.000 N 
ATOM     21  H   UNL     1      10.235   9.363  19.980  0.00  0.00    +0.000 HD
BRANCH  20  22
ATOM     22  C   UNL     1      10.059  11.439  20.161  0.00  0.00    +0.000 A 
ATOM     23  C   UNL     1      11.066  12.121  19.452  0.00  0.00    +0.000 A 
ATOM     24 CL   UNL     1      11.844  11.459  18.052  0.00  0.00    +0.000 Cl
ATOM     25  C   UNL     1      11.397  13.439  19.786  0.00  0.00    +0.000 A 
ATOM     26  C   UNL     1      10.731  14.091  20.823  0.00  0.00    +0.000 A 
ATOM     27  C   UNL     1       9.751  13.418  21.549  0.00  0.00    +0.000 A 
ATOM     28  C   UNL     1       9.419  12.100  21.221  0.00  0.00    +0.000 A 
ATOM     29 CL   UNL     1       8.261  11.281  22.214  0.00  0.00    +0.000 Cl
ENDBRANCH  20  22
ENDBRANCH  17  19
ENDBRANCH  16  17
ENDBRANCH   1  16
TORSDOF 5
ENDMDL
