MODEL 1
REMARK VINA RESULT:      -7.5      0.000      0.000
REMARK  Name = 
REMARK  11 active torsions:
REMARK  status: ('A' for Active; 'I' for Inactive)
REMARK    1  A    between atoms: C_1  and  C_2
REMARK    2  A    between atoms: C_5  and  C_6
REMARK    3  A    between atoms: C_6  and  N_7
REMARK    4  A    between atoms: C_18  and  C_19
REMARK    5  A    between atoms: N_21  and  C_22
REMARK    6  A    between atoms: C_22  and  C_23
REMARK    7  A    between atoms: C_23  and  C_24
REMARK    8  A    between atoms: C_24  and  O_25
REMARK    9  A    between atoms: O_25  and  C_26
REMARK   10  A    between atoms: C_26  and  C_27
REMARK   11  A    between atoms: C_26  and  C_28
REMARK                            x       y       z     vdW  Elec       q    Type
REMARK                         _______ _______ _______ _____ _____    ______ ____
ROOT
ATOM      1  N   UNL     1      -1.516  13.883  21.586  0.00  0.00    +0.000 N 
ATOM      2  C   UNL     1      -0.736  13.087  20.889  0.00  0.00    +0.000 A 
ATOM      3  N   UNL     1      -1.337  12.467  19.846  0.00  0.00    +0.000 N 
ATOM      4  C   UNL     1      -2.738  12.759  19.640  0.00  0.00    +0.000 C 
ATOM      5  C   UNL     1      -3.339  11.486  19.072  0.00  0.00    +0.000 C 
ATOM      6  O   UNL     1      -2.696  11.113  17.837  0.00  0.00    +0.000 OA
ATOM      7  C   UNL     1      -1.294  10.867  18.048  0.00  0.00    +0.000 C 
ATOM      8  C   UNL     1      -0.643  12.108  18.603  0.00  0.00    +0.000 C 
ATOM      9  N   UNL     1       0.306  12.780  21.554  0.00  0.00    +0.000 NA
ATOM     10  C   UNL     1       0.019  11.540  22.065  0.00  0.00    +0.000 A 
ATOM     11  C   UNL     1       0.780  10.638  21.172  0.00  0.00    +0.000 A 
ATOM     12  C   UNL     1       0.783   9.288  21.070  0.00  0.00    +0.000 A 
ATOM     13  C   UNL     1       0.038   8.846  22.110  0.00  0.00    +0.000 A 
ATOM     14  C   UNL     1      -0.748   9.925  23.035  0.00  0.00    +0.000 A 
ATOM     15  C   UNL     1      -1.045  11.412  23.005  0.00  0.00    +0.000 A 
ATOM     16  C   UNL     1      -1.392  13.260  22.927  0.00  0.00    +0.000 A 
ATOM     17  O   UNL     1      -1.433  13.984  23.939  0.00  0.00    +0.000 OA
ENDROOT
BRANCH  12  18
ATOM     18  C   UNL     1       1.458   8.595  19.880  0.00  0.00    +0.000 C 
ATOM     19  O   UNL     1       1.428   9.089  18.753  0.00  0.00    +0.000 OA
ATOM     20  N   UNL     1       2.112   7.399  20.189  0.00  0.00    +0.000 N 
ATOM     21  H   UNL     1       2.076   7.015  21.117  0.00  0.00    +0.000 HD
BRANCH  20  22
ATOM     22  C   UNL     1       2.847   6.556  19.268  0.00  0.00    +0.000 C 
BRANCH  22  23
ATOM     23  C   UNL     1       2.137   5.220  18.985  0.00  0.00    +0.000 C 
BRANCH  23  24
ATOM     24  C   UNL     1       2.763   4.575  17.762  0.00  0.00    +0.000 C 
BRANCH  24  25
ATOM     25  O   UNL     1       3.812   3.679  18.130  0.00  0.00    +0.000 OA
BRANCH  25  26
ATOM     26  C   UNL     1       5.058   4.057  17.525  0.00  0.00    +0.000 C 
ATOM     27  C   UNL     1       4.834   5.058  16.395  0.00  0.00    +0.000 C 
ATOM     28  C   UNL     1       5.950   4.697  18.583  0.00  0.00    +0.000 C 
ENDBRANCH  25  26
ENDBRANCH  24  25
ENDBRANCH  23  24
ENDBRANCH  22  23
ENDBRANCH  20  22
ENDBRANCH  12  18
BRANCH   1  29
ATOM     29  C   UNL     1      -1.854  15.146  20.560  0.00  0.00    +0.000 C 
BRANCH  29  34
ATOM     30  C   UNL     1       1.150  18.509  16.818  0.00  0.00    +0.000 C 
ATOM     31  C   UNL     1       0.473  17.626  17.825  0.00  0.00    +0.000 A 
ATOM     32  C   UNL     1       1.129  16.576  18.471  0.00  0.00    +0.000 A 
ATOM     33  C   UNL     1       0.415  15.762  19.384  0.00  0.00    +0.000 A 
ATOM     34  C   UNL     1      -0.982  15.990  19.646  0.00  0.00    +0.000 A 
ATOM     35  C   UNL     1      -1.547  17.107  19.084  0.00  0.00    +0.000 A 
ATOM     36  C   UNL     1      -0.859  17.884  18.156  0.00  0.00    +0.000 A 
ENDBRANCH  29  34
ENDBRANCH   1  29
TORSDOF 8
ENDMDL
MODEL 2
REMARK VINA RESULT:      -7.2      1.228      1.335
REMARK  Name = 
REMARK  11 active torsions:
REMARK  status: ('A' for Active; 'I' for Inactive)
REMARK    1  A    between atoms: C_1  and  C_2
REMARK    2  A    between atoms: C_5  and  C_6
REMARK    3  A    between atoms: C_6  and  N_7
REMARK    4  A    between atoms: C_18  and  C_19
REMARK    5  A    between atoms: N_21  and  C_22
REMARK    6  A    between atoms: C_22  and  C_23
REMARK    7  A    between atoms: C_23  and  C_24
REMARK    8  A    between atoms: C_24  and  O_25
REMARK    9  A    between atoms: O_25  and  C_26
REMARK   10  A    between atoms: C_26  and  C_27
REMARK   11  A    between atoms: C_26  and  C_28
REMARK                            x       y       z     vdW  Elec       q    Type
REMARK                         _______ _______ _______ _____ _____    ______ ____
ROOT
ATOM      1  N   UNL     1      -0.968  12.884  21.172  0.00  0.00    +0.000 N 
ATOM      2  C   UNL     1      -0.109  12.067  20.604  0.00  0.00    +0.000 A 
ATOM      3  N   UNL     1      -0.557  11.459  19.479  0.00  0.00    +0.000 N 
ATOM      4  C   UNL     1      -1.901  11.785  19.059  0.00  0.00    +0.000 C 
ATOM      5  C   UNL     1      -2.439  10.526  18.404  0.00  0.00    +0.000 C 
ATOM      6  O   UNL     1      -1.621  10.133  17.283  0.00  0.00    +0.000 OA
ATOM      7  C   UNL     1      -0.276   9.853  17.709  0.00  0.00    +0.000 C 
ATOM      8  C   UNL     1       0.313  11.079  18.359  0.00  0.00    +0.000 C 
ATOM      9  N   UNL     1       0.809  11.736  21.423  0.00  0.00    +0.000 NA
ATOM     10  C   UNL     1       0.414  10.506  21.882  0.00  0.00    +0.000 A 
ATOM     11  C   UNL     1       1.282   9.582  21.117  0.00  0.00    +0.000 A 
ATOM     12  C   UNL     1       1.267   8.232  21.015  0.00  0.00    +0.000 A 
ATOM     13  C   UNL     1       0.358   7.812  21.927  0.00  0.00    +0.000 A 
ATOM     14  C   UNL     1      -0.534   8.914  22.719  0.00  0.00    +0.000 A 
ATOM     15  C   UNL     1      -0.786  10.407  22.645  0.00  0.00    +0.000 A 
ATOM     16  C   UNL     1      -1.069  12.263  22.516  0.00  0.00    +0.000 A 
ATOM     17  O   UNL     1      -1.248  12.991  23.509  0.00  0.00    +0.000 OA
ENDROOT
BRANCH  12  18
ATOM     18  C   UNL     1       2.100   7.519  19.944  0.00  0.00    +0.000 C 
ATOM     19  O   UNL     1       2.203   7.976  18.806  0.00  0.00    +0.000 OA
ATOM     20  N   UNL     1       2.735   6.350  20.374  0.00  0.00    +0.000 N 
ATOM     21  H   UNL     1       2.589   5.994  21.302  0.00  0.00    +0.000 HD
BRANCH  20  22
ATOM     22  C   UNL     1       3.597   5.496  19.582  0.00  0.00    +0.000 C 
BRANCH  22  23
ATOM     23  C   UNL     1       2.811   4.515  18.692  0.00  0.00    +0.000 C 
BRANCH  23  24
ATOM     24  C   UNL     1       3.283   4.662  17.257  0.00  0.00    +0.000 C 
BRANCH  24  25
ATOM     25  O   UNL     1       4.601   5.209  17.199  0.00  0.00    +0.000 OA
BRANCH  25  26
ATOM     26  C   UNL     1       5.547   4.242  16.718  0.00  0.00    +0.000 C 
ATOM     27  C   UNL     1       5.558   4.203  15.192  0.00  0.00    +0.000 C 
ATOM     28  C   UNL     1       6.938   4.617  17.214  0.00  0.00    +0.000 C 
ENDBRANCH  25  26
ENDBRANCH  24  25
ENDBRANCH  23  24
ENDBRANCH  22  23
ENDBRANCH  20  22
ENDBRANCH  12  18
BRANCH   1  29
ATOM     29  C   UNL     1      -1.111  14.153  20.107  0.00  0.00    +0.000 C 
BRANCH  29  34
ATOM     30  C   UNL     1       2.521  17.629  17.096  0.00  0.00    +0.000 C 
ATOM     31  C   UNL     1       1.676  16.703  17.921  0.00  0.00    +0.000 A 
ATOM     32  C   UNL     1       2.175  15.530  18.490  0.00  0.00    +0.000 A 
ATOM     33  C   UNL     1       1.308  14.686  19.227  0.00  0.00    +0.000 A 
ATOM     34  C   UNL     1      -0.084  15.011  19.387  0.00  0.00    +0.000 A 
ATOM     35  C   UNL     1      -0.497  16.233  18.918  0.00  0.00    +0.000 A 
ATOM     36  C   UNL     1       0.342  17.044  18.159  0.00  0.00    +0.000 A 
ENDBRANCH  29  34
ENDBRANCH   1  29
TORSDOF 8
ENDMDL
MODEL 3
REMARK VINA RESULT:      -7.1      1.277      1.614
REMARK  Name = 
REMARK  11 active torsions:
REMARK  status: ('A' for Active; 'I' for Inactive)
REMARK    1  A    between atoms: C_1  and  C_2
REMARK    2  A    between atoms: C_5  and  C_6
REMARK    3  A    between atoms: C_6  and  N_7
REMARK    4  A    between atoms: C_18  and  C_19
REMARK    5  A    between atoms: N_21  and  C_22
REMARK    6  A    between atoms: C_22  and  C_23
REMARK    7  A    between atoms: C_23  and  C_24
REMARK    8  A    between atoms: C_24  and  O_25
REMARK    9  A    between atoms: O_25  and  C_26
REMARK   10  A    between atoms: C_26  and  C_27
REMARK   11  A    between atoms: C_26  and  C_28
REMARK                            x       y       z     vdW  Elec       q    Type
REMARK                         _______ _______ _______ _____ _____    ______ ____
ROOT
ATOM      1  N   UNL     1      -0.819  13.265  21.223  0.00  0.00    +0.000 N 
ATOM      2  C   UNL     1      -0.057  12.333  20.693  0.00  0.00    +0.000 A 
ATOM      3  N   UNL     1      -0.588  11.703  19.619  0.00  0.00    +0.000 N 
ATOM      4  C   UNL     1      -1.905  12.131  19.203  0.00  0.00    +0.000 C 
ATOM      5  C   UNL     1      -2.577  10.892  18.641  0.00  0.00    +0.000 C 
ATOM      6  O   UNL     1      -1.829  10.351  17.533  0.00  0.00    +0.000 OA
ATOM      7  C   UNL     1      -0.507   9.969  17.952  0.00  0.00    +0.000 C 
ATOM      8  C   UNL     1       0.213  11.169  18.510  0.00  0.00    +0.000 C 
ATOM      9  N   UNL     1       0.845  11.967  21.515  0.00  0.00    +0.000 NA
ATOM     10  C   UNL     1       0.346  10.812  22.060  0.00  0.00    +0.000 A 
ATOM     11  C   UNL     1       1.102   9.762  21.341  0.00  0.00    +0.000 A 
ATOM     12  C   UNL     1       0.954   8.416  21.327  0.00  0.00    +0.000 A 
ATOM     13  C   UNL     1       0.033   8.144  22.281  0.00  0.00    +0.000 A 
ATOM     14  C   UNL     1      -0.730   9.375  23.017  0.00  0.00    +0.000 A 
ATOM     15  C   UNL     1      -0.839  10.879  22.851  0.00  0.00    +0.000 A 
ATOM     16  C   UNL     1      -0.946  12.742  22.606  0.00  0.00    +0.000 A 
ATOM     17  O   UNL     1      -1.029  13.545  23.554  0.00  0.00    +0.000 OA
ENDROOT
BRANCH  12  18
ATOM     18  C   UNL     1       1.689   7.559  20.290  0.00  0.00    +0.000 C 
ATOM     19  O   UNL     1       2.055   8.033  19.215  0.00  0.00    +0.000 OA
ATOM     20  N   UNL     1       1.920   6.236  20.677  0.00  0.00    +0.000 N 
ATOM     21  H   UNL     1       1.568   5.883  21.549  0.00  0.00    +0.000 HD
BRANCH  20  22
ATOM     22  C   UNL     1       2.609   5.221  19.906  0.00  0.00    +0.000 C 
BRANCH  22  23
ATOM     23  C   UNL     1       3.813   5.778  19.124  0.00  0.00    +0.000 C 
BRANCH  23  24
ATOM     24  C   UNL     1       4.626   4.620  18.575  0.00  0.00    +0.000 C 
BRANCH  24  25
ATOM     25  O   UNL     1       5.882   4.506  19.245  0.00  0.00    +0.000 OA
BRANCH  25  26
ATOM     26  C   UNL     1       6.873   5.355  18.646  0.00  0.00    +0.000 C 
ATOM     27  C   UNL     1       7.946   5.740  19.660  0.00  0.00    +0.000 C 
ATOM     28  C   UNL     1       7.529   4.611  17.488  0.00  0.00    +0.000 C 
ENDBRANCH  25  26
ENDBRANCH  24  25
ENDBRANCH  23  24
ENDBRANCH  22  23
ENDBRANCH  20  22
ENDBRANCH  12  18
BRANCH   1  29
ATOM     29  C   UNL     1      -0.865  14.471  20.081  0.00  0.00    +0.000 C 
BRANCH  29  34
ATOM     30  C   UNL     1       3.009  17.419  16.818  0.00  0.00    +0.000 C 
ATOM     31  C   UNL     1       2.099  16.616  17.701  0.00  0.00    +0.000 A 
ATOM     32  C   UNL     1       2.465  15.380  18.239  0.00  0.00    +0.000 A 
ATOM     33  C   UNL     1       1.540  14.663  19.036  0.00  0.00    +0.000 A 
ATOM     34  C   UNL     1       0.221  15.181  19.289  0.00  0.00    +0.000 A 
ATOM     35  C   UNL     1      -0.045  16.451  18.846  0.00  0.00    +0.000 A 
ATOM     36  C   UNL     1       0.847  17.140  18.029  0.00  0.00    +0.000 A 
ENDBRANCH  29  34
ENDBRANCH   1  29
TORSDOF 8
ENDMDL
MODEL 4
REMARK VINA RESULT:      -7.1      1.191      1.545
REMARK  Name = 
REMARK  11 active torsions:
REMARK  status: ('A' for Active; 'I' for Inactive)
REMARK    1  A    between atoms: C_1  and  C_2
REMARK    2  A    between atoms: C_5  and  C_6
REMARK    3  A    between atoms: C_6  and  N_7
REMARK    4  A    between atoms: C_18  and  C_19
REMARK    5  A    between atoms: N_21  and  C_22
REMARK    6  A    between atoms: C_22  and  C_23
REMARK    7  A    between atoms: C_23  and  C_24
REMARK    8  A    between atoms: C_24  and  O_25
REMARK    9  A    between atoms: O_25  and  C_26
REMARK   10  A    between atoms: C_26  and  C_27
REMARK   11  A    between atoms: C_26  and  C_28
REMARK                            x       y       z     vdW  Elec       q    Type
REMARK                         _______ _______ _______ _____ _____    ______ ____
ROOT
ATOM      1  N   UNL     1      -1.008  13.153  21.233  0.00  0.00    +0.000 N 
ATOM      2  C   UNL     1      -0.219  12.296  20.624  0.00  0.00    +0.000 A 
ATOM      3  N   UNL     1      -0.768  11.674  19.554  0.00  0.00    +0.000 N 
ATOM      4  C   UNL     1      -2.132  12.029  19.228  0.00  0.00    +0.000 C 
ATOM      5  C   UNL     1      -2.753  10.771  18.650  0.00  0.00    +0.000 C 
ATOM      6  O   UNL     1      -2.035  10.325  17.482  0.00  0.00    +0.000 OA
ATOM      7  C   UNL     1      -0.670  10.016  17.812  0.00  0.00    +0.000 C 
ATOM      8  C   UNL     1       0.001  11.239  18.381  0.00  0.00    +0.000 C 
ATOM      9  N   UNL     1       0.750  11.959  21.379  0.00  0.00    +0.000 NA
ATOM     10  C   UNL     1       0.357  10.752  21.900  0.00  0.00    +0.000 A 
ATOM     11  C   UNL     1       1.138   9.784  21.097  0.00  0.00    +0.000 A 
ATOM     12  C   UNL     1       1.077   8.433  21.034  0.00  0.00    +0.000 A 
ATOM     13  C   UNL     1       0.230   8.063  22.023  0.00  0.00    +0.000 A 
ATOM     14  C   UNL     1      -0.568   9.211  22.851  0.00  0.00    +0.000 A 
ATOM     15  C   UNL     1      -0.782  10.709  22.755  0.00  0.00    +0.000 A 
ATOM     16  C   UNL     1      -1.023  12.569  22.597  0.00  0.00    +0.000 A 
ATOM     17  O   UNL     1      -1.105  13.326  23.581  0.00  0.00    +0.000 OA
ENDROOT
BRANCH  12  18
ATOM     18  C   UNL     1       1.805   7.668  19.923  0.00  0.00    +0.000 C 
ATOM     19  O   UNL     1       2.113   8.219  18.866  0.00  0.00    +0.000 OA
ATOM     20  N   UNL     1       2.101   6.335  20.221  0.00  0.00    +0.000 N 
ATOM     21  H   UNL     1       1.795   5.918  21.083  0.00  0.00    +0.000 HD
BRANCH  20  22
ATOM     22  C   UNL     1       2.800   5.396  19.369  0.00  0.00    +0.000 C 
BRANCH  22  23
ATOM     23  C   UNL     1       4.329   5.575  19.408  0.00  0.00    +0.000 C 
BRANCH  23  24
ATOM     24  C   UNL     1       4.828   5.875  18.006  0.00  0.00    +0.000 C 
BRANCH  24  25
ATOM     25  O   UNL     1       4.659   4.748  17.145  0.00  0.00    +0.000 OA
BRANCH  25  26
ATOM     26  C   UNL     1       5.885   4.416  16.474  0.00  0.00    +0.000 C 
ATOM     27  C   UNL     1       5.677   4.343  14.964  0.00  0.00    +0.000 C 
ATOM     28  C   UNL     1       6.925   5.488  16.780  0.00  0.00    +0.000 C 
ENDBRANCH  25  26
ENDBRANCH  24  25
ENDBRANCH  23  24
ENDBRANCH  22  23
ENDBRANCH  20  22
ENDBRANCH  12  18
BRANCH   1  29
ATOM     29  C   UNL     1      -1.197  14.397  20.147  0.00  0.00    +0.000 C 
BRANCH  29  34
ATOM     30  C   UNL     1       2.950  17.423  17.321  0.00  0.00    +0.000 C 
ATOM     31  C   UNL     1       1.816  16.698  17.985  0.00  0.00    +0.000 A 
ATOM     32  C   UNL     1       0.526  17.228  18.068  0.00  0.00    +0.000 A 
ATOM     33  C   UNL     1      -0.486  16.502  18.741  0.00  0.00    +0.000 A 
ATOM     34  C   UNL     1      -0.203  15.231  19.356  0.00  0.00    +0.000 A 
ATOM     35  C   UNL     1       1.042  14.697  19.139  0.00  0.00    +0.000 A 
ATOM     36  C   UNL     1       2.049  15.427  18.513  0.00  0.00    +0.000 A 
ENDBRANCH  29  34
ENDBRANCH   1  29
TORSDOF 8
ENDMDL
MODEL 5
REMARK VINA RESULT:      -6.9      2.672      8.766
REMARK  Name = 
REMARK  11 active torsions:
REMARK  status: ('A' for Active; 'I' for Inactive)
REMARK    1  A    between atoms: C_1  and  C_2
REMARK    2  A    between atoms: C_5  and  C_6
REMARK    3  A    between atoms: C_6  and  N_7
REMARK    4  A    between atoms: C_18  and  C_19
REMARK    5  A    between atoms: N_21  and  C_22
REMARK    6  A    between atoms: C_22  and  C_23
REMARK    7  A    between atoms: C_23  and  C_24
REMARK    8  A    between atoms: C_24  and  O_25
REMARK    9  A    between atoms: O_25  and  C_26
REMARK   10  A    between atoms: C_26  and  C_27
REMARK   11  A    between atoms: C_26  and  C_28
REMARK                            x       y       z     vdW  Elec       q    Type
REMARK                         _______ _______ _______ _____ _____    ______ ____
ROOT
ATOM      1  N   UNL     1       0.198  10.508  20.569  0.00  0.00    +0.000 N 
ATOM      2  C   UNL     1      -0.518  11.516  20.123  0.00  0.00    +0.000 A 
ATOM      3  N   UNL     1       0.200  12.576  19.682  0.00  0.00    +0.000 N 
ATOM      4  C   UNL     1       1.640  12.460  19.761  0.00  0.00    +0.000 C 
ATOM      5  C   UNL     1       2.147  13.867  20.019  0.00  0.00    +0.000 C 
ATOM      6  O   UNL     1       1.752  14.765  18.963  0.00  0.00    +0.000 OA
ATOM      7  C   UNL     1       0.318  14.838  18.869  0.00  0.00    +0.000 C 
ATOM      8  C   UNL     1      -0.240  13.465  18.599  0.00  0.00    +0.000 C 
ATOM      9  N   UNL     1      -1.719  11.437  20.540  0.00  0.00    +0.000 NA
ATOM     10  C   UNL     1      -1.753  12.290  21.613  0.00  0.00    +0.000 A 
ATOM     11  C   UNL     1      -2.423  13.486  21.053  0.00  0.00    +0.000 A 
ATOM     12  C   UNL     1      -2.613  14.721  21.576  0.00  0.00    +0.000 A 
ATOM     13  C   UNL     1      -2.203  14.635  22.864  0.00  0.00    +0.000 A 
ATOM     14  C   UNL     1      -1.489  13.268  23.376  0.00  0.00    +0.000 A 
ATOM     15  C   UNL     1      -0.965  11.986  22.761  0.00  0.00    +0.000 A 
ATOM     16  C   UNL     1      -0.324  10.410  21.954  0.00  0.00    +0.000 A 
ATOM     17  O   UNL     1      -0.403   9.293  22.497  0.00  0.00    +0.000 OA
ENDROOT
BRANCH  12  18
ATOM     18  C   UNL     1      -3.099  15.877  20.695  0.00  0.00    +0.000 C 
ATOM     19  O   UNL     1      -2.329  16.760  20.319  0.00  0.00    +0.000 OA
ATOM     20  N   UNL     1      -4.452  15.823  20.347  0.00  0.00    +0.000 N 
ATOM     21  H   UNL     1      -5.051  15.103  20.710  0.00  0.00    +0.000 HD
BRANCH  20  22
ATOM     22  C   UNL     1      -5.164  16.767  19.510  0.00  0.00    +0.000 C 
BRANCH  22  23
ATOM     23  C   UNL     1      -6.457  16.179  18.914  0.00  0.00    +0.000 C 
BRANCH  23  24
ATOM     24  C   UNL     1      -6.652  14.771  19.447  0.00  0.00    +0.000 C 
BRANCH  24  25
ATOM     25  O   UNL     1      -6.370  13.795  18.443  0.00  0.00    +0.000 OA
BRANCH  25  26
ATOM     26  C   UNL     1      -6.086  12.514  19.026  0.00  0.00    +0.000 C 
ATOM     27  C   UNL     1      -4.710  12.013  18.596  0.00  0.00    +0.000 C 
ATOM     28  C   UNL     1      -6.116  12.641  20.544  0.00  0.00    +0.000 C 
ENDBRANCH  25  26
ENDBRANCH  24  25
ENDBRANCH  23  24
ENDBRANCH  22  23
ENDBRANCH  20  22
ENDBRANCH  12  18
BRANCH   1  29
ATOM     29  C   UNL     1       0.954   9.898  19.220  0.00  0.00    +0.000 C 
BRANCH  29  34
ATOM     30  C   UNL     1       4.094   5.135  17.881  0.00  0.00    +0.000 C 
ATOM     31  C   UNL     1       3.311   6.335  18.327  0.00  0.00    +0.000 A 
ATOM     32  C   UNL     1       2.711   6.422  19.585  0.00  0.00    +0.000 A 
ATOM     33  C   UNL     1       1.956   7.572  19.922  0.00  0.00    +0.000 A 
ATOM     34  C   UNL     1       1.785   8.649  18.983  0.00  0.00    +0.000 A 
ATOM     35  C   UNL     1       2.495   8.573  17.811  0.00  0.00    +0.000 A 
ATOM     36  C   UNL     1       3.204   7.426  17.461  0.00  0.00    +0.000 A 
ENDBRANCH  29  34
ENDBRANCH   1  29
TORSDOF 8
ENDMDL
MODEL 6
REMARK VINA RESULT:      -6.9      2.807      9.253
REMARK  Name = 
REMARK  11 active torsions:
REMARK  status: ('A' for Active; 'I' for Inactive)
REMARK    1  A    between atoms: C_1  and  C_2
REMARK    2  A    between atoms: C_5  and  C_6
REMARK    3  A    between atoms: C_6  and  N_7
REMARK    4  A    between atoms: C_18  and  C_19
REMARK    5  A    between atoms: N_21  and  C_22
REMARK    6  A    between atoms: C_22  and  C_23
REMARK    7  A    between atoms: C_23  and  C_24
REMARK    8  A    between atoms: C_24  and  O_25
REMARK    9  A    between atoms: O_25  and  C_26
REMARK   10  A    between atoms: C_26  and  C_27
REMARK   11  A    between atoms: C_26  and  C_28
REMARK                            x       y       z     vdW  Elec       q    Type
REMARK                         _______ _______ _______ _____ _____    ______ ____
ROOT
ATOM      1  N   UNL     1       0.941  11.802  19.369  0.00  0.00    +0.000 N 
ATOM      2  C   UNL     1       0.568  12.204  20.564  0.00  0.00    +0.000 A 
ATOM      3  N   UNL     1      -0.767  12.165  20.789  0.00  0.00    +0.000 N 
ATOM      4  C   UNL     1      -1.593  11.695  19.700  0.00  0.00    +0.000 C 
ATOM      5  C   UNL     1      -2.900  12.458  19.823  0.00  0.00    +0.000 C 
ATOM      6  O   UNL     1      -3.527  12.214  21.098  0.00  0.00    +0.000 OA
ATOM      7  C   UNL     1      -2.675  12.647  22.174  0.00  0.00    +0.000 C 
ATOM      8  C   UNL     1      -1.363  11.910  22.106  0.00  0.00    +0.000 C 
ATOM      9  N   UNL     1       1.489  12.887  21.119  0.00  0.00    +0.000 NA
ATOM     10  C   UNL     1       1.110  14.187  20.903  0.00  0.00    +0.000 A 
ATOM     11  C   UNL     1       0.546  14.580  22.215  0.00  0.00    +0.000 A 
ATOM     12  C   UNL     1      -0.128  15.693  22.591  0.00  0.00    +0.000 A 
ATOM     13  C   UNL     1      -0.059  16.533  21.532  0.00  0.00    +0.000 A 
ATOM     14  C   UNL     1       0.592  16.001  20.142  0.00  0.00    +0.000 A 
ATOM     15  C   UNL     1       1.067  14.681  19.567  0.00  0.00    +0.000 A 
ATOM     16  C   UNL     1       1.641  13.020  18.892  0.00  0.00    +0.000 A 
ATOM     17  O   UNL     1       2.626  12.900  18.141  0.00  0.00    +0.000 OA
ENDROOT
BRANCH  12  18
ATOM     18  C   UNL     1      -0.849  15.750  23.943  0.00  0.00    +0.000 C 
ATOM     19  O   UNL     1      -0.242  16.023  24.979  0.00  0.00    +0.000 OA
ATOM     20  N   UNL     1      -2.222  15.497  23.889  0.00  0.00    +0.000 N 
ATOM     21  H   UNL     1      -2.667  15.240  23.026  0.00  0.00    +0.000 HD
BRANCH  20  22
ATOM     22  C   UNL     1      -3.145  15.509  25.006  0.00  0.00    +0.000 C 
BRANCH  22  23
ATOM     23  C   UNL     1      -4.181  16.645  24.912  0.00  0.00    +0.000 C 
BRANCH  23  24
ATOM     24  C   UNL     1      -5.333  16.193  24.034  0.00  0.00    +0.000 C 
BRANCH  24  25
ATOM     25  O   UNL     1      -5.016  14.982  23.346  0.00  0.00    +0.000 OA
BRANCH  25  26
ATOM     26  C   UNL     1      -6.139  14.087  23.318  0.00  0.00    +0.000 C 
ATOM     27  C   UNL     1      -5.847  12.822  24.120  0.00  0.00    +0.000 C 
ATOM     28  C   UNL     1      -7.348  14.790  23.923  0.00  0.00    +0.000 C 
ENDBRANCH  25  26
ENDBRANCH  24  25
ENDBRANCH  23  24
ENDBRANCH  22  23
ENDBRANCH  20  22
ENDBRANCH  12  18
BRANCH   1  29
ATOM     29  C   UNL     1       0.617  10.172  19.352  0.00  0.00    +0.000 C 
BRANCH  29  34
ATOM     30  C   UNL     1       3.893   5.528  17.921  0.00  0.00    +0.000 C 
ATOM     31  C   UNL     1       3.078   6.698  18.389  0.00  0.00    +0.000 A 
ATOM     32  C   UNL     1       2.495   6.754  19.657  0.00  0.00    +0.000 A 
ATOM     33  C   UNL     1       1.708   7.875  20.017  0.00  0.00    +0.000 A 
ATOM     34  C   UNL     1       1.486   8.953  19.090  0.00  0.00    +0.000 A 
ATOM     35  C   UNL     1       2.180   8.911  17.908  0.00  0.00    +0.000 A 
ATOM     36  C   UNL     1       2.921   7.792  17.536  0.00  0.00    +0.000 A 
ENDBRANCH  29  34
ENDBRANCH   1  29
TORSDOF 8
ENDMDL
MODEL 7
REMARK VINA RESULT:      -6.8      1.820      2.894
REMARK  Name = 
REMARK  11 active torsions:
REMARK  status: ('A' for Active; 'I' for Inactive)
REMARK    1  A    between atoms: C_1  and  C_2
REMARK    2  A    between atoms: C_5  and  C_6
REMARK    3  A    between atoms: C_6  and  N_7
REMARK    4  A    between atoms: C_18  and  C_19
REMARK    5  A    between atoms: N_21  and  C_22
REMARK    6  A    between atoms: C_22  and  C_23
REMARK    7  A    between atoms: C_23  and  C_24
REMARK    8  A    between atoms: C_24  and  O_25
REMARK    9  A    between atoms: O_25  and  C_26
REMARK   10  A    between atoms: C_26  and  C_27
REMARK   11  A    between atoms: C_26  and  C_28
REMARK                            x       y       z     vdW  Elec       q    Type
REMARK                         _______ _______ _______ _____ _____    ______ ____
ROOT
ATOM      1  N   UNL     1      -1.225  12.933  21.485  0.00  0.00    +0.000 N 
ATOM      2  C   UNL     1      -0.364  12.205  20.809  0.00  0.00    +0.000 A 
ATOM      3  N   UNL     1      -0.847  11.661  19.667  0.00  0.00    +0.000 N 
ATOM      4  C   UNL     1      -2.229  11.947  19.348  0.00  0.00    +0.000 C 
ATOM      5  C   UNL     1      -2.743  10.714  18.628  0.00  0.00    +0.000 C 
ATOM      6  O   UNL     1      -1.976  10.449  17.437  0.00  0.00    +0.000 OA
ATOM      7  C   UNL     1      -0.596  10.208  17.765  0.00  0.00    +0.000 C 
ATOM      8  C   UNL     1      -0.029  11.411  18.474  0.00  0.00    +0.000 C 
ATOM      9  N   UNL     1       0.616  11.863  21.547  0.00  0.00    +0.000 NA
ATOM     10  C   UNL     1       0.308  10.583  21.931  0.00  0.00    +0.000 A 
ATOM     11  C   UNL     1       1.173   9.765  21.050  0.00  0.00    +0.000 A 
ATOM     12  C   UNL     1       1.215   8.427  20.845  0.00  0.00    +0.000 A 
ATOM     13  C   UNL     1       0.384   7.894  21.770  0.00  0.00    +0.000 A 
ATOM     14  C   UNL     1      -0.512   8.885  22.694  0.00  0.00    +0.000 A 
ATOM     15  C   UNL     1      -0.838  10.365  22.750  0.00  0.00    +0.000 A 
ATOM     16  C   UNL     1      -1.217  12.208  22.780  0.00  0.00    +0.000 A 
ATOM     17  O   UNL     1      -1.371  12.850  23.836  0.00  0.00    +0.000 OA
ENDROOT
BRANCH  12  18
ATOM     18  C   UNL     1       2.018   7.840  19.677  0.00  0.00    +0.000 C 
ATOM     19  O   UNL     1       2.049   8.398  18.581  0.00  0.00    +0.000 OA
ATOM     20  N   UNL     1       2.710   6.662  19.972  0.00  0.00    +0.000 N 
ATOM     21  H   UNL     1       2.622   6.223  20.871  0.00  0.00    +0.000 HD
BRANCH  20  22
ATOM     22  C   UNL     1       3.558   5.913  19.069  0.00  0.00    +0.000 C 
BRANCH  22  23
ATOM     23  C   UNL     1       2.763   5.181  17.971  0.00  0.00    +0.000 C 
BRANCH  23  24
ATOM     24  C   UNL     1       2.701   3.703  18.307  0.00  0.00    +0.000 C 
BRANCH  24  25
ATOM     25  O   UNL     1       2.825   3.486  19.713  0.00  0.00    +0.000 OA
BRANCH  25  26
ATOM     26  C   UNL     1       1.808   2.594  20.196  0.00  0.00    +0.000 C 
ATOM     27  C   UNL     1       1.600   2.766  21.698  0.00  0.00    +0.000 C 
ATOM     28  C   UNL     1       0.499   2.897  19.477  0.00  0.00    +0.000 C 
ENDBRANCH  25  26
ENDBRANCH  24  25
ENDBRANCH  23  24
ENDBRANCH  22  23
ENDBRANCH  20  22
ENDBRANCH  12  18
BRANCH   1  29
ATOM     29  C   UNL     1      -1.491  14.267  20.531  0.00  0.00    +0.000 C 
BRANCH  29  34
ATOM     30  C   UNL     1      -5.385  18.614  21.066  0.00  0.00    +0.000 C 
ATOM     31  C   UNL     1      -4.311  17.575  20.934  0.00  0.00    +0.000 A 
ATOM     32  C   UNL     1      -3.054  17.851  20.391  0.00  0.00    +0.000 A 
ATOM     33  C   UNL     1      -2.102  16.810  20.265  0.00  0.00    +0.000 A 
ATOM     34  C   UNL     1      -2.414  15.466  20.673  0.00  0.00    +0.000 A 
ATOM     35  C   UNL     1      -3.612  15.272  21.314  0.00  0.00    +0.000 A 
ATOM     36  C   UNL     1      -4.564  16.284  21.402  0.00  0.00    +0.000 A 
ENDBRANCH  29  34
ENDBRANCH   1  29
TORSDOF 8
ENDMDL
MODEL 8
REMARK VINA RESULT:      -6.8      7.274      9.220
REMARK  Name = 
REMARK  11 active torsions:
REMARK  status: ('A' for Active; 'I' for Inactive)
REMARK    1  A    between atoms: C_1  and  C_2
REMARK    2  A    between atoms: C_5  and  C_6
REMARK    3  A    between atoms: C_6  and  N_7
REMARK    4  A    between atoms: C_18  and  C_19
REMARK    5  A    between atoms: N_21  and  C_22
REMARK    6  A    between atoms: C_22  and  C_23
REMARK    7  A    between atoms: C_23  and  C_24
REMARK    8  A    between atoms: C_24  and  O_25
REMARK    9  A    between atoms: O_25  and  C_26
REMARK   10  A    between atoms: C_26  and  C_27
REMARK   11  A    between atoms: C_26  and  C_28
REMARK                            x       y       z     vdW  Elec       q    Type
REMARK                         _______ _______ _______ _____ _____    ______ ____
ROOT
ATOM      1  N   UNL     1       9.043  16.659  18.821  0.00  0.00    +0.000 N 
ATOM      2  C   UNL     1       8.621  15.421  18.959  0.00  0.00    +0.000 A 
ATOM      3  N   UNL     1       8.748  14.909  20.206  0.00  0.00    +0.000 N 
ATOM      4  C   UNL     1       9.322  15.780  21.208  0.00  0.00    +0.000 C 
ATOM      5  C   UNL     1      10.082  14.867  22.152  0.00  0.00    +0.000 C 
ATOM      6  O   UNL     1       9.204  13.890  22.750  0.00  0.00    +0.000 OA
ATOM      7  C   UNL     1       8.607  13.059  21.739  0.00  0.00    +0.000 C 
ATOM      8  C   UNL     1       7.828  13.917  20.776  0.00  0.00    +0.000 C 
ATOM      9  N   UNL     1       8.532  14.846  17.825  0.00  0.00    +0.000 NA
ATOM     10  C   UNL     1       9.689  14.114  17.735  0.00  0.00    +0.000 A 
ATOM     11  C   UNL     1       9.227  12.742  18.047  0.00  0.00    +0.000 A 
ATOM     12  C   UNL     1       9.924  11.601  18.264  0.00  0.00    +0.000 A 
ATOM     13  C   UNL     1      11.210  11.902  17.965  0.00  0.00    +0.000 A 
ATOM     14  C   UNL     1      11.604  13.440  17.625  0.00  0.00    +0.000 A 
ATOM     15  C   UNL     1      10.936  14.801  17.680  0.00  0.00    +0.000 A 
ATOM     16  C   UNL     1      10.069  16.469  17.767  0.00  0.00    +0.000 A 
ATOM     17  O   UNL     1      10.257  17.373  16.932  0.00  0.00    +0.000 OA
ENDROOT
BRANCH  12  18
ATOM     18  C   UNL     1       9.232  10.360  18.838  0.00  0.00    +0.000 C 
ATOM     19  O   UNL     1       9.274  10.106  20.042  0.00  0.00    +0.000 OA
ATOM     20  N   UNL     1       8.549   9.580  17.901  0.00  0.00    +0.000 N 
ATOM     21  H   UNL     1       8.576   9.806  16.922  0.00  0.00    +0.000 HD
BRANCH  20  22
ATOM     22  C   UNL     1       7.794   8.373  18.170  0.00  0.00    +0.000 C 
BRANCH  22  23
ATOM     23  C   UNL     1       7.734   7.424  16.959  0.00  0.00    +0.000 C 
BRANCH  23  24
ATOM     24  C   UNL     1       7.009   6.153  17.362  0.00  0.00    +0.000 C 
BRANCH  24  25
ATOM     25  O   UNL     1       7.491   5.027  16.627  0.00  0.00    +0.000 OA
BRANCH  25  26
ATOM     26  C   UNL     1       6.408   4.262  16.075  0.00  0.00    +0.000 C 
ATOM     27  C   UNL     1       5.261   4.141  17.074  0.00  0.00    +0.000 C 
ATOM     28  C   UNL     1       5.899   4.958  14.818  0.00  0.00    +0.000 C 
ENDBRANCH  25  26
ENDBRANCH  24  25
ENDBRANCH  23  24
ENDBRANCH  22  23
ENDBRANCH  20  22
ENDBRANCH  12  18
BRANCH   1  29
ATOM     29  C   UNL     1       7.965  17.571  19.698  0.00  0.00    +0.000 C 
BRANCH  29  34
ATOM     30  C   UNL     1       2.171  17.524  20.577  0.00  0.00    +0.000 C 
ATOM     31  C   UNL     1       3.635  17.521  20.249  0.00  0.00    +0.000 A 
ATOM     32  C   UNL     1       4.160  16.851  19.141  0.00  0.00    +0.000 A 
ATOM     33  C   UNL     1       5.558  16.862  18.914  0.00  0.00    +0.000 A 
ATOM     34  C   UNL     1       6.450  17.542  19.816  0.00  0.00    +0.000 A 
ATOM     35  C   UNL     1       5.877  18.288  20.815  0.00  0.00    +0.000 A 
ATOM     36  C   UNL     1       4.508  18.245  21.064  0.00  0.00    +0.000 A 
ENDBRANCH  29  34
ENDBRANCH   1  29
TORSDOF 8
ENDMDL
MODEL 9
REMARK VINA RESULT:      -6.8      2.657      8.130
REMARK  Name = 
REMARK  11 active torsions:
REMARK  status: ('A' for Active; 'I' for Inactive)
REMARK    1  A    between atoms: C_1  and  C_2
REMARK    2  A    between atoms: C_5  and  C_6
REMARK    3  A    between atoms: C_6  and  N_7
REMARK    4  A    between atoms: C_18  and  C_19
REMARK    5  A    between atoms: N_21  and  C_22
REMARK    6  A    between atoms: C_22  and  C_23
REMARK    7  A    between atoms: C_23  and  C_24
REMARK    8  A    between atoms: C_24  and  O_25
REMARK    9  A    between atoms: O_25  and  C_26
REMARK   10  A    between atoms: C_26  and  C_27
REMARK   11  A    between atoms: C_26  and  C_28
REMARK                            x       y       z     vdW  Elec       q    Type
REMARK                         _______ _______ _______ _____ _____    ______ ____
ROOT
ATOM      1  N   UNL     1       1.114   9.393  19.968  0.00  0.00    +0.000 N 
ATOM      2  C   UNL     1       0.102  10.163  19.634  0.00  0.00    +0.000 A 
ATOM      3  N   UNL     1       0.445  11.369  19.123  0.00  0.00    +0.000 N 
ATOM      4  C   UNL     1       1.860  11.647  19.014  0.00  0.00    +0.000 C 
ATOM      5  C   UNL     1       1.998  13.142  19.229  0.00  0.00    +0.000 C 
ATOM      6  O   UNL     1       1.243  13.881  18.247  0.00  0.00    +0.000 OA
ATOM      7  C   UNL     1      -0.157  13.563  18.339  0.00  0.00    +0.000 C 
ATOM      8  C   UNL     1      -0.354  12.085  18.121  0.00  0.00    +0.000 C 
ATOM      9  N   UNL     1      -0.970   9.770  20.201  0.00  0.00    +0.000 NA
ATOM     10  C   UNL     1      -1.095  10.603  21.283  0.00  0.00    +0.000 A 
ATOM     11  C   UNL     1      -2.128  11.563  20.834  0.00  0.00    +0.000 A 
ATOM     12  C   UNL     1      -2.576  12.711  21.398  0.00  0.00    +0.000 A 
ATOM     13  C   UNL     1      -1.997  12.762  22.620  0.00  0.00    +0.000 A 
ATOM     14  C   UNL     1      -0.881  11.649  23.014  0.00  0.00    +0.000 A 
ATOM     15  C   UNL     1      -0.114  10.544  22.316  0.00  0.00    +0.000 A 
ATOM     16  C   UNL     1       0.819   9.184  21.407  0.00  0.00    +0.000 A 
ATOM     17  O   UNL     1       1.115   8.098  21.937  0.00  0.00    +0.000 OA
ENDROOT
BRANCH  12  18
ATOM     18  C   UNL     1      -3.465  13.676  20.605  0.00  0.00    +0.000 C 
ATOM     19  O   UNL     1      -3.161  14.862  20.475  0.00  0.00    +0.000 OA
ATOM     20  N   UNL     1      -4.605  13.098  20.040  0.00  0.00    +0.000 N 
ATOM     21  H   UNL     1      -4.832  12.133  20.207  0.00  0.00    +0.000 HD
BRANCH  20  22
ATOM     22  C   UNL     1      -5.599  13.769  19.228  0.00  0.00    +0.000 C 
BRANCH  22  23
ATOM     23  C   UNL     1      -6.336  12.810  18.274  0.00  0.00    +0.000 C 
BRANCH  23  24
ATOM     24  C   UNL     1      -5.423  11.644  17.942  0.00  0.00    +0.000 C 
BRANCH  24  25
ATOM     25  O   UNL     1      -4.665  11.902  16.759  0.00  0.00    +0.000 OA
BRANCH  25  26
ATOM     26  C   UNL     1      -3.419  11.187  16.772  0.00  0.00    +0.000 C 
ATOM     27  C   UNL     1      -3.519   9.934  17.637  0.00  0.00    +0.000 C 
ATOM     28  C   UNL     1      -3.067  10.777  15.346  0.00  0.00    +0.000 C 
ENDBRANCH  25  26
ENDBRANCH  24  25
ENDBRANCH  23  24
ENDBRANCH  22  23
ENDBRANCH  20  22
ENDBRANCH  12  18
BRANCH   1  29
ATOM     29  C   UNL     1       1.827   8.985  18.523  0.00  0.00    +0.000 C 
BRANCH  29  34
ATOM     30  C   UNL     1       5.014   4.523  16.455  0.00  0.00    +0.000 C 
ATOM     31  C   UNL     1       4.167   5.602  17.065  0.00  0.00    +0.000 A 
ATOM     32  C   UNL     1       3.050   5.329  17.858  0.00  0.00    +0.000 A 
ATOM     33  C   UNL     1       2.277   6.399  18.370  0.00  0.00    +0.000 A 
ATOM     34  C   UNL     1       2.616   7.766  18.073  0.00  0.00    +0.000 A 
ATOM     35  C   UNL     1       3.790   7.985  17.398  0.00  0.00    +0.000 A 
ATOM     36  C   UNL     1       4.528   6.935  16.859  0.00  0.00    +0.000 A 
ENDBRANCH  29  34
ENDBRANCH   1  29
TORSDOF 8
ENDMDL
