MODEL 1
REMARK VINA RESULT:      -7.9      0.000      0.000
REMARK  Name = 
REMARK  12 active torsions:
REMARK  status: ('A' for Active; 'I' for Inactive)
REMARK    1  A    between atoms: C_1  and  C_2
REMARK    2  A    between atoms: C_2  and  C_3
REMARK    3  A    between atoms: C_3  and  N_4
REMARK    4  A    between atoms: N_4  and  C_5
REMARK    5  A    between atoms: N_4  and  C_20
REMARK    6  A    between atoms: C_5  and  C_6
REMARK    7  A    between atoms: C_6  and  C_7
REMARK    8  A    between atoms: C_7  and  N_8
REMARK    9  A    between atoms: N_8  and  C_9
REMARK   10  A    between atoms: C_20  and  C_21
REMARK   11  A    between atoms: C_27  and  O_28
REMARK   12  A    between atoms: O_28  and  C_29
REMARK                            x       y       z     vdW  Elec       q    Type
REMARK                         _______ _______ _______ _____ _____    ______ ____
ROOT
ATOM      1  C   UNL     1       2.834   6.436  19.111  0.00  0.00    +0.000 C 
ENDROOT
BRANCH   1   2
ATOM      2  N   UNL     1       2.501   4.995  19.156  0.00  0.00    +0.000 NA
BRANCH   2   3
ATOM      3  C   UNL     1       1.545   4.726  20.263  0.00  0.00    +0.000 C 
BRANCH   3   5
ATOM      4  C   UNL     1       1.358   2.609  21.614  0.00  0.00    +0.000 C 
ATOM      5  C   UNL     1       2.098   3.932  21.456  0.00  0.00    +0.000 C 
ENDBRANCH   3   5
ENDBRANCH   2   3
BRANCH   2   6
ATOM      6  C   UNL     1       3.731   4.178  19.360  0.00  0.00    +0.000 C 
BRANCH   6   7
ATOM      7  C   UNL     1       4.808   4.360  18.311  0.00  0.00    +0.000 A 
ATOM      8  C   UNL     1       4.445   4.008  16.992  0.00  0.00    +0.000 A 
ATOM      9  F   UNL     1       3.223   3.505  16.753  0.00  0.00    +0.000 F 
ATOM     10  C   UNL     1       5.276   4.213  15.896  0.00  0.00    +0.000 A 
ATOM     11  C   UNL     1       6.534   4.754  16.095  0.00  0.00    +0.000 A 
ATOM     12  C   UNL     1       6.934   5.085  17.388  0.00  0.00    +0.000 A 
ATOM     13  C   UNL     1       6.092   4.899  18.503  0.00  0.00    +0.000 A 
BRANCH  13  14
ATOM     14  O   UNL     1       6.683   5.376  19.640  0.00  0.00    +0.000 OA
ATOM     15  C   UNL     1       8.069   5.657  19.650  0.00  0.00    +0.000 C 
ENDBRANCH  13  14
ENDBRANCH   6   7
ENDBRANCH   2   6
ENDBRANCH   1   2
BRANCH   1  16
ATOM     16  C   UNL     1       2.216   7.198  17.935  0.00  0.00    +0.000 C 
BRANCH  16  17
ATOM     17  C   UNL     1       2.303   8.706  18.163  0.00  0.00    +0.000 C 
BRANCH  17  18
ATOM     18  N   UNL     1       1.093   9.328  17.631  0.00  0.00    +0.000 N 
ATOM     19  H   UNL     1       0.514   8.640  17.160  0.00  0.00    +0.000 HD
BRANCH  18  20
ATOM     20  C   UNL     1       0.329  10.172  18.466  0.00  0.00    +0.000 A 
ATOM     21  C   UNL     1       0.924  10.874  19.516  0.00  0.00    +0.000 A 
ATOM     22  C   UNL     1       0.164  11.761  20.253  0.00  0.00    +0.000 A 
ATOM     23  N   UNL     1      -1.134  12.021  20.009  0.00  0.00    +0.000 NA
ATOM     24  C   UNL     1      -1.713  11.391  18.978  0.00  0.00    +0.000 A 
ATOM     25  C   UNL     1      -3.040  11.701  18.710  0.00  0.00    +0.000 A 
ATOM     26  C   UNL     1      -3.727  11.101  17.663  0.00  0.00    +0.000 A 
ATOM     27 CL   UNL     1      -5.368  11.525  17.355  0.00  0.00    +0.000 Cl
ATOM     28  C   UNL     1      -3.097  10.173  16.853  0.00  0.00    +0.000 A 
ATOM     29  C   UNL     1      -1.760   9.853  17.096  0.00  0.00    +0.000 A 
ATOM     30  C   UNL     1      -1.036  10.452  18.161  0.00  0.00    +0.000 A 
ENDBRANCH  18  20
ENDBRANCH  17  18
ENDBRANCH  16  17
ENDBRANCH   1  16
TORSDOF 10
ENDMDL
MODEL 2
REMARK VINA RESULT:      -7.6      2.741      3.992
REMARK  Name = 
REMARK  12 active torsions:
REMARK  status: ('A' for Active; 'I' for Inactive)
REMARK    1  A    between atoms: C_1  and  C_2
REMARK    2  A    between atoms: C_2  and  C_3
REMARK    3  A    between atoms: C_3  and  N_4
REMARK    4  A    between atoms: N_4  and  C_5
REMARK    5  A    between atoms: N_4  and  C_20
REMARK    6  A    between atoms: C_5  and  C_6
REMARK    7  A    between atoms: C_6  and  C_7
REMARK    8  A    between atoms: C_7  and  N_8
REMARK    9  A    between atoms: N_8  and  C_9
REMARK   10  A    between atoms: C_20  and  C_21
REMARK   11  A    between atoms: C_27  and  O_28
REMARK   12  A    between atoms: O_28  and  C_29
REMARK                            x       y       z     vdW  Elec       q    Type
REMARK                         _______ _______ _______ _____ _____    ______ ____
ROOT
ATOM      1  C   UNL     1       3.905   5.077  19.720  0.00  0.00    +0.000 C 
ENDROOT
BRANCH   1   2
ATOM      2  N   UNL     1       4.421   3.986  18.865  0.00  0.00    +0.000 NA
BRANCH   2   3
ATOM      3  C   UNL     1       4.062   2.666  19.451  0.00  0.00    +0.000 C 
BRANCH   3   5
ATOM      4  C   UNL     1       2.647   2.543  17.371  0.00  0.00    +0.000 C 
ATOM      5  C   UNL     1       3.053   1.825  18.653  0.00  0.00    +0.000 C 
ENDBRANCH   3   5
ENDBRANCH   2   3
BRANCH   2   6
ATOM      6  C   UNL     1       5.903   4.077  18.734  0.00  0.00    +0.000 C 
BRANCH   6   7
ATOM      7  C   UNL     1       6.426   5.414  18.250  0.00  0.00    +0.000 A 
ATOM      8  C   UNL     1       7.458   5.986  19.028  0.00  0.00    +0.000 A 
ATOM      9  F   UNL     1       7.872   5.361  20.142  0.00  0.00    +0.000 F 
ATOM     10  C   UNL     1       8.121   7.154  18.668  0.00  0.00    +0.000 A 
ATOM     11  C   UNL     1       7.742   7.816  17.514  0.00  0.00    +0.000 A 
ATOM     12  C   UNL     1       6.709   7.294  16.739  0.00  0.00    +0.000 A 
ATOM     13  C   UNL     1       6.043   6.100  17.086  0.00  0.00    +0.000 A 
BRANCH  13  14
ATOM     14  O   UNL     1       5.131   5.759  16.125  0.00  0.00    +0.000 OA
ATOM     15  C   UNL     1       5.423   4.720  15.212  0.00  0.00    +0.000 C 
ENDBRANCH  13  14
ENDBRANCH   6   7
ENDBRANCH   2   6
ENDBRANCH   1   2
BRANCH   1  16
ATOM     16  C   UNL     1       2.662   4.715  20.537  0.00  0.00    +0.000 C 
BRANCH  16  17
ATOM     17  C   UNL     1       1.579   5.782  20.376  0.00  0.00    +0.000 C 
BRANCH  17  18
ATOM     18  N   UNL     1       2.140   7.074  20.763  0.00  0.00    +0.000 N 
ATOM     19  H   UNL     1       3.154   7.048  20.738  0.00  0.00    +0.000 HD
BRANCH  18  20
ATOM     20  C   UNL     1       1.632   8.250  20.170  0.00  0.00    +0.000 A 
ATOM     21  C   UNL     1       1.786   8.490  18.802  0.00  0.00    +0.000 A 
ATOM     22  C   UNL     1       1.196   9.604  18.241  0.00  0.00    +0.000 A 
ATOM     23  N   UNL     1       0.446  10.484  18.929  0.00  0.00    +0.000 NA
ATOM     24  C   UNL     1       0.248  10.250  20.233  0.00  0.00    +0.000 A 
ATOM     25  C   UNL     1      -0.564  11.141  20.922  0.00  0.00    +0.000 A 
ATOM     26  C   UNL     1      -0.828  10.983  22.276  0.00  0.00    +0.000 A 
ATOM     27 CL   UNL     1      -1.854  12.102  23.089  0.00  0.00    +0.000 Cl
ATOM     28  C   UNL     1      -0.284   9.921  22.975  0.00  0.00    +0.000 A 
ATOM     29  C   UNL     1       0.527   9.005  22.303  0.00  0.00    +0.000 A 
ATOM     30  C   UNL     1       0.813   9.146  20.919  0.00  0.00    +0.000 A 
ENDBRANCH  18  20
ENDBRANCH  17  18
ENDBRANCH  16  17
ENDBRANCH   1  16
TORSDOF 10
ENDMDL
MODEL 3
REMARK VINA RESULT:      -7.6      1.517      2.142
REMARK  Name = 
REMARK  12 active torsions:
REMARK  status: ('A' for Active; 'I' for Inactive)
REMARK    1  A    between atoms: C_1  and  C_2
REMARK    2  A    between atoms: C_2  and  C_3
REMARK    3  A    between atoms: C_3  and  N_4
REMARK    4  A    between atoms: N_4  and  C_5
REMARK    5  A    between atoms: N_4  and  C_20
REMARK    6  A    between atoms: C_5  and  C_6
REMARK    7  A    between atoms: C_6  and  C_7
REMARK    8  A    between atoms: C_7  and  N_8
REMARK    9  A    between atoms: N_8  and  C_9
REMARK   10  A    between atoms: C_20  and  C_21
REMARK   11  A    between atoms: C_27  and  O_28
REMARK   12  A    between atoms: O_28  and  C_29
REMARK                            x       y       z     vdW  Elec       q    Type
REMARK                         _______ _______ _______ _____ _____    ______ ____
ROOT
ATOM      1  C   UNL     1       2.793   6.037  18.571  0.00  0.00    +0.000 C 
ENDROOT
BRANCH   1   2
ATOM      2  N   UNL     1       2.790   4.976  17.541  0.00  0.00    +0.000 NA
BRANCH   2   3
ATOM      3  C   UNL     1       1.655   4.041  17.774  0.00  0.00    +0.000 C 
BRANCH   3   5
ATOM      4  C   UNL     1       0.930   3.270  20.060  0.00  0.00    +0.000 C 
ATOM      5  C   UNL     1       1.858   2.996  18.882  0.00  0.00    +0.000 C 
ENDBRANCH   3   5
ENDBRANCH   2   3
BRANCH   2   6
ATOM      6  C   UNL     1       4.069   4.211  17.569  0.00  0.00    +0.000 C 
BRANCH   6   7
ATOM      7  C   UNL     1       5.315   5.047  17.770  0.00  0.00    +0.000 A 
ATOM      8  C   UNL     1       5.897   4.982  19.056  0.00  0.00    +0.000 A 
ATOM      9  F   UNL     1       5.309   4.245  20.012  0.00  0.00    +0.000 F 
ATOM     10  C   UNL     1       7.099   5.602  19.377  0.00  0.00    +0.000 A 
ATOM     11  C   UNL     1       7.752   6.350  18.413  0.00  0.00    +0.000 A 
ATOM     12  C   UNL     1       7.190   6.459  17.142  0.00  0.00    +0.000 A 
ATOM     13  C   UNL     1       5.981   5.818  16.801  0.00  0.00    +0.000 A 
BRANCH  13  14
ATOM     14  O   UNL     1       5.688   6.012  15.480  0.00  0.00    +0.000 OA
ATOM     15  C   UNL     1       6.086   5.052  14.520  0.00  0.00    +0.000 C 
ENDBRANCH  13  14
ENDBRANCH   6   7
ENDBRANCH   2   6
ENDBRANCH   1   2
BRANCH   1  16
ATOM     16  C   UNL     1       2.711   7.463  18.019  0.00  0.00    +0.000 C 
BRANCH  16  17
ATOM     17  C   UNL     1       2.018   8.390  19.017  0.00  0.00    +0.000 C 
BRANCH  17  18
ATOM     18  N   UNL     1       1.119   9.276  18.282  0.00  0.00    +0.000 N 
ATOM     19  H   UNL     1       0.629   8.767  17.553  0.00  0.00    +0.000 HD
BRANCH  18  20
ATOM     20  C   UNL     1       0.250  10.126  19.000  0.00  0.00    +0.000 A 
ATOM     21  C   UNL     1       0.678  10.779  20.159  0.00  0.00    +0.000 A 
ATOM     22  C   UNL     1      -0.168  11.673  20.783  0.00  0.00    +0.000 A 
ATOM     23  N   UNL     1      -1.396  11.987  20.330  0.00  0.00    +0.000 NA
ATOM     24  C   UNL     1      -1.810  11.405  19.196  0.00  0.00    +0.000 A 
ATOM     25  C   UNL     1      -3.060  11.770  18.716  0.00  0.00    +0.000 A 
ATOM     26  C   UNL     1      -3.577  11.223  17.549  0.00  0.00    +0.000 A 
ATOM     27 CL   UNL     1      -5.126  11.715  16.980  0.00  0.00    +0.000 Cl
ATOM     28  C   UNL     1      -2.847  10.294  16.829  0.00  0.00    +0.000 A 
ATOM     29  C   UNL     1      -1.582   9.919  17.285  0.00  0.00    +0.000 A 
ATOM     30  C   UNL     1      -1.033  10.464  18.476  0.00  0.00    +0.000 A 
ENDBRANCH  18  20
ENDBRANCH  17  18
ENDBRANCH  16  17
ENDBRANCH   1  16
TORSDOF 10
ENDMDL
MODEL 4
REMARK VINA RESULT:      -7.6      2.585      3.499
REMARK  Name = 
REMARK  12 active torsions:
REMARK  status: ('A' for Active; 'I' for Inactive)
REMARK    1  A    between atoms: C_1  and  C_2
REMARK    2  A    between atoms: C_2  and  C_3
REMARK    3  A    between atoms: C_3  and  N_4
REMARK    4  A    between atoms: N_4  and  C_5
REMARK    5  A    between atoms: N_4  and  C_20
REMARK    6  A    between atoms: C_5  and  C_6
REMARK    7  A    between atoms: C_6  and  C_7
REMARK    8  A    between atoms: C_7  and  N_8
REMARK    9  A    between atoms: N_8  and  C_9
REMARK   10  A    between atoms: C_20  and  C_21
REMARK   11  A    between atoms: C_27  and  O_28
REMARK   12  A    between atoms: O_28  and  C_29
REMARK                            x       y       z     vdW  Elec       q    Type
REMARK                         _______ _______ _______ _____ _____    ______ ____
ROOT
ATOM      1  C   UNL     1       2.583   5.169  17.679  0.00  0.00    +0.000 C 
ENDROOT
BRANCH   1   2
ATOM      2  N   UNL     1       2.470   3.716  17.420  0.00  0.00    +0.000 NA
BRANCH   2   3
ATOM      3  C   UNL     1       1.513   3.101  18.379  0.00  0.00    +0.000 C 
BRANCH   3   5
ATOM      4  C   UNL     1       1.602   2.713  20.866  0.00  0.00    +0.000 C 
ATOM      5  C   UNL     1       2.133   2.264  19.509  0.00  0.00    +0.000 C 
ENDBRANCH   3   5
ENDBRANCH   2   3
BRANCH   2   6
ATOM      6  C   UNL     1       3.797   3.053  17.557  0.00  0.00    +0.000 C 
BRANCH   6   7
ATOM      7  C   UNL     1       4.993   3.976  17.452  0.00  0.00    +0.000 A 
ATOM      8  C   UNL     1       5.528   4.428  18.680  0.00  0.00    +0.000 A 
ATOM      9  F   UNL     1       4.940   4.067  19.832  0.00  0.00    +0.000 F 
ATOM     10  C   UNL     1       6.686   5.193  18.767  0.00  0.00    +0.000 A 
ATOM     11  C   UNL     1       7.338   5.566  17.605  0.00  0.00    +0.000 A 
ATOM     12  C   UNL     1       6.820   5.161  16.376  0.00  0.00    +0.000 A 
ATOM     13  C   UNL     1       5.657   4.369  16.278  0.00  0.00    +0.000 A 
BRANCH  13  14
ATOM     14  O   UNL     1       5.406   4.039  14.975  0.00  0.00    +0.000 OA
ATOM     15  C   UNL     1       6.472   3.960  14.049  0.00  0.00    +0.000 C 
ENDBRANCH  13  14
ENDBRANCH   6   7
ENDBRANCH   2   6
ENDBRANCH   1   2
BRANCH   1  16
ATOM     16  C   UNL     1       1.840   5.655  18.926  0.00  0.00    +0.000 C 
BRANCH  16  17
ATOM     17  C   UNL     1       2.715   6.610  19.738  0.00  0.00    +0.000 C 
BRANCH  17  18
ATOM     18  N   UNL     1       1.853   7.395  20.618  0.00  0.00    +0.000 N 
ATOM     19  H   UNL     1       2.254   7.461  21.548  0.00  0.00    +0.000 HD
BRANCH  18  20
ATOM     20  C   UNL     1       1.363   8.641  20.170  0.00  0.00    +0.000 A 
ATOM     21  C   UNL     1       1.559   9.059  18.851  0.00  0.00    +0.000 A 
ATOM     22  C   UNL     1       0.987  10.240  18.424  0.00  0.00    +0.000 A 
ATOM     23  N   UNL     1       0.215  11.024  19.199  0.00  0.00    +0.000 NA
ATOM     24  C   UNL     1      -0.023  10.620  20.453  0.00  0.00    +0.000 A 
ATOM     25  C   UNL     1      -0.856  11.415  21.229  0.00  0.00    +0.000 A 
ATOM     26  C   UNL     1      -1.162  11.081  22.541  0.00  0.00    +0.000 A 
ATOM     27 CL   UNL     1      -2.213  12.088  23.463  0.00  0.00    +0.000 Cl
ATOM     28  C   UNL     1      -0.640   9.934  23.111  0.00  0.00    +0.000 A 
ATOM     29  C   UNL     1       0.193   9.112  22.349  0.00  0.00    +0.000 A 
ATOM     30  C   UNL     1       0.521   9.433  21.005  0.00  0.00    +0.000 A 
ENDBRANCH  18  20
ENDBRANCH  17  18
ENDBRANCH  16  17
ENDBRANCH   1  16
TORSDOF 10
ENDMDL
MODEL 5
REMARK VINA RESULT:      -7.6      1.095      1.167
REMARK  Name = 
REMARK  12 active torsions:
REMARK  status: ('A' for Active; 'I' for Inactive)
REMARK    1  A    between atoms: C_1  and  C_2
REMARK    2  A    between atoms: C_2  and  C_3
REMARK    3  A    between atoms: C_3  and  N_4
REMARK    4  A    between atoms: N_4  and  C_5
REMARK    5  A    between atoms: N_4  and  C_20
REMARK    6  A    between atoms: C_5  and  C_6
REMARK    7  A    between atoms: C_6  and  C_7
REMARK    8  A    between atoms: C_7  and  N_8
REMARK    9  A    between atoms: N_8  and  C_9
REMARK   10  A    between atoms: C_20  and  C_21
REMARK   11  A    between atoms: C_27  and  O_28
REMARK   12  A    between atoms: O_28  and  C_29
REMARK                            x       y       z     vdW  Elec       q    Type
REMARK                         _______ _______ _______ _____ _____    ______ ____
ROOT
ATOM      1  C   UNL     1       2.703   7.001  18.865  0.00  0.00    +0.000 C 
ENDROOT
BRANCH   1   2
ATOM      2  N   UNL     1       2.847   5.589  18.447  0.00  0.00    +0.000 NA
BRANCH   2   3
ATOM      3  C   UNL     1       1.806   4.753  19.103  0.00  0.00    +0.000 C 
BRANCH   3   5
ATOM      4  C   UNL     1       1.837   3.504  21.290  0.00  0.00    +0.000 C 
ATOM      5  C   UNL     1       1.707   4.873  20.631  0.00  0.00    +0.000 C 
ENDBRANCH   3   5
ENDBRANCH   2   3
BRANCH   2   6
ATOM      6  C   UNL     1       4.196   5.068  18.810  0.00  0.00    +0.000 C 
BRANCH   6   7
ATOM      7  C   UNL     1       5.179   4.966  17.663  0.00  0.00    +0.000 A 
ATOM      8  C   UNL     1       5.003   3.860  16.802  0.00  0.00    +0.000 A 
ATOM      9  F   UNL     1       4.038   2.963  17.063  0.00  0.00    +0.000 F 
ATOM     10  C   UNL     1       5.750   3.674  15.644  0.00  0.00    +0.000 A 
ATOM     11  C   UNL     1       6.737   4.589  15.323  0.00  0.00    +0.000 A 
ATOM     12  C   UNL     1       6.956   5.676  16.167  0.00  0.00    +0.000 A 
ATOM     13  C   UNL     1       6.191   5.883  17.334  0.00  0.00    +0.000 A 
BRANCH  13  14
ATOM     14  O   UNL     1       6.544   7.057  17.940  0.00  0.00    +0.000 OA
ATOM     15  C   UNL     1       7.683   7.768  17.494  0.00  0.00    +0.000 C 
ENDBRANCH  13  14
ENDBRANCH   6   7
ENDBRANCH   2   6
ENDBRANCH   1   2
BRANCH   1  16
ATOM     16  C   UNL     1       2.953   8.024  17.753  0.00  0.00    +0.000 C 
BRANCH  16  17
ATOM     17  C   UNL     1       2.086   9.266  17.958  0.00  0.00    +0.000 C 
BRANCH  17  18
ATOM     18  N   UNL     1       1.164   9.012  19.063  0.00  0.00    +0.000 N 
ATOM     19  H   UNL     1       1.638   8.537  19.824  0.00  0.00    +0.000 HD
BRANCH  18  20
ATOM     20  C   UNL     1       0.344  10.062  19.531  0.00  0.00    +0.000 A 
ATOM     21  C   UNL     1       0.755  10.878  20.587  0.00  0.00    +0.000 A 
ATOM     22  C   UNL     1      -0.030  11.952  20.956  0.00  0.00    +0.000 A 
ATOM     23  N   UNL     1      -1.178  12.290  20.341  0.00  0.00    +0.000 NA
ATOM     24  C   UNL     1      -1.568  11.547  19.297  0.00  0.00    +0.000 A 
ATOM     25  C   UNL     1      -2.731  11.931  18.643  0.00  0.00    +0.000 A 
ATOM     26  C   UNL     1      -3.217  11.225  17.551  0.00  0.00    +0.000 A 
ATOM     27 CL   UNL     1      -4.655  11.746  16.758  0.00  0.00    +0.000 Cl
ATOM     28  C   UNL     1      -2.543  10.111  17.082  0.00  0.00    +0.000 A 
ATOM     29  C   UNL     1      -1.366   9.710  17.717  0.00  0.00    +0.000 A 
ATOM     30  C   UNL     1      -0.850  10.415  18.836  0.00  0.00    +0.000 A 
ENDBRANCH  18  20
ENDBRANCH  17  18
ENDBRANCH  16  17
ENDBRANCH   1  16
TORSDOF 10
ENDMDL
MODEL 6
REMARK VINA RESULT:      -7.5      1.298      1.422
REMARK  Name = 
REMARK  12 active torsions:
REMARK  status: ('A' for Active; 'I' for Inactive)
REMARK    1  A    between atoms: C_1  and  C_2
REMARK    2  A    between atoms: C_2  and  C_3
REMARK    3  A    between atoms: C_3  and  N_4
REMARK    4  A    between atoms: N_4  and  C_5
REMARK    5  A    between atoms: N_4  and  C_20
REMARK    6  A    between atoms: C_5  and  C_6
REMARK    7  A    between atoms: C_6  and  C_7
REMARK    8  A    between atoms: C_7  and  N_8
REMARK    9  A    between atoms: N_8  and  C_9
REMARK   10  A    between atoms: C_20  and  C_21
REMARK   11  A    between atoms: C_27  and  O_28
REMARK   12  A    between atoms: O_28  and  C_29
REMARK                            x       y       z     vdW  Elec       q    Type
REMARK                         _______ _______ _______ _____ _____    ______ ____
ROOT
ATOM      1  C   UNL     1       3.123   7.455  18.075  0.00  0.00    +0.000 C 
ENDROOT
BRANCH   1   2
ATOM      2  N   UNL     1       3.136   6.025  18.455  0.00  0.00    +0.000 NA
BRANCH   2   3
ATOM      3  C   UNL     1       2.360   5.824  19.709  0.00  0.00    +0.000 C 
BRANCH   3   5
ATOM      4  C   UNL     1       1.142   3.734  20.412  0.00  0.00    +0.000 C 
ATOM      5  C   UNL     1       2.491   4.443  20.370  0.00  0.00    +0.000 C 
ENDBRANCH   3   5
ENDBRANCH   2   3
BRANCH   2   6
ATOM      6  C   UNL     1       4.533   5.548  18.660  0.00  0.00    +0.000 C 
BRANCH   6   7
ATOM      7  C   UNL     1       5.287   5.199  17.394  0.00  0.00    +0.000 A 
ATOM      8  C   UNL     1       5.032   3.914  16.864  0.00  0.00    +0.000 A 
ATOM      9  F   UNL     1       4.201   3.082  17.512  0.00  0.00    +0.000 F 
ATOM     10  C   UNL     1       5.559   3.475  15.655  0.00  0.00    +0.000 A 
ATOM     11  C   UNL     1       6.400   4.310  14.941  0.00  0.00    +0.000 A 
ATOM     12  C   UNL     1       6.695   5.573  15.451  0.00  0.00    +0.000 A 
ATOM     13  C   UNL     1       6.151   6.035  16.667  0.00  0.00    +0.000 A 
BRANCH  13  14
ATOM     14  O   UNL     1       6.526   7.328  16.903  0.00  0.00    +0.000 OA
ATOM     15  C   UNL     1       7.706   7.599  17.635  0.00  0.00    +0.000 C 
ENDBRANCH  13  14
ENDBRANCH   6   7
ENDBRANCH   2   6
ENDBRANCH   1   2
BRANCH   1  16
ATOM     16  C   UNL     1       1.965   8.263  18.668  0.00  0.00    +0.000 C 
BRANCH  16  17
ATOM     17  C   UNL     1       1.846   9.622  17.979  0.00  0.00    +0.000 C 
BRANCH  17  18
ATOM     18  N   UNL     1       0.442   9.856  17.652  0.00  0.00    +0.000 N 
ATOM     19  H   UNL     1      -0.019   8.987  17.403  0.00  0.00    +0.000 HD
BRANCH  18  20
ATOM     20  C   UNL     1      -0.347  10.636  18.524  0.00  0.00    +0.000 A 
ATOM     21  C   UNL     1       0.234  11.353  19.572  0.00  0.00    +0.000 A 
ATOM     22  C   UNL     1      -0.556  12.178  20.348  0.00  0.00    +0.000 A 
ATOM     23  N   UNL     1      -1.874  12.362  20.146  0.00  0.00    +0.000 NA
ATOM     24  C   UNL     1      -2.444  11.718  19.119  0.00  0.00    +0.000 A 
ATOM     25  C   UNL     1      -3.794  11.950  18.894  0.00  0.00    +0.000 A 
ATOM     26  C   UNL     1      -4.474  11.330  17.855  0.00  0.00    +0.000 A 
ATOM     27 CL   UNL     1      -6.145  11.658  17.602  0.00  0.00    +0.000 Cl
ATOM     28  C   UNL     1      -3.812  10.458  17.008  0.00  0.00    +0.000 A 
ATOM     29  C   UNL     1      -2.452  10.216  17.207  0.00  0.00    +0.000 A 
ATOM     30  C   UNL     1      -1.735  10.838  18.264  0.00  0.00    +0.000 A 
ENDBRANCH  18  20
ENDBRANCH  17  18
ENDBRANCH  16  17
ENDBRANCH   1  16
TORSDOF 10
ENDMDL
MODEL 7
REMARK VINA RESULT:      -7.5      5.789      8.688
REMARK  Name = 
REMARK  12 active torsions:
REMARK  status: ('A' for Active; 'I' for Inactive)
REMARK    1  A    between atoms: C_1  and  C_2
REMARK    2  A    between atoms: C_2  and  C_3
REMARK    3  A    between atoms: C_3  and  N_4
REMARK    4  A    between atoms: N_4  and  C_5
REMARK    5  A    between atoms: N_4  and  C_20
REMARK    6  A    between atoms: C_5  and  C_6
REMARK    7  A    between atoms: C_6  and  C_7
REMARK    8  A    between atoms: C_7  and  N_8
REMARK    9  A    between atoms: N_8  and  C_9
REMARK   10  A    between atoms: C_20  and  C_21
REMARK   11  A    between atoms: C_27  and  O_28
REMARK   12  A    between atoms: O_28  and  C_29
REMARK                            x       y       z     vdW  Elec       q    Type
REMARK                         _______ _______ _______ _____ _____    ______ ____
ROOT
ATOM      1  C   UNL     1       6.588   7.173  17.524  0.00  0.00    +0.000 C 
ENDROOT
BRANCH   1   2
ATOM      2  N   UNL     1       6.292   5.725  17.460  0.00  0.00    +0.000 NA
BRANCH   2   3
ATOM      3  C   UNL     1       7.106   5.084  16.392  0.00  0.00    +0.000 C 
BRANCH   3   5
ATOM      4  C   UNL     1       6.582   4.286  14.062  0.00  0.00    +0.000 C 
ATOM      5  C   UNL     1       6.395   4.013  15.550  0.00  0.00    +0.000 C 
ENDBRANCH   3   5
ENDBRANCH   2   3
BRANCH   2   6
ATOM      6  C   UNL     1       4.846   5.496  17.178  0.00  0.00    +0.000 C 
BRANCH   6   7
ATOM      7  C   UNL     1       3.935   5.568  18.386  0.00  0.00    +0.000 A 
ATOM      8  C   UNL     1       3.140   6.732  18.485  0.00  0.00    +0.000 A 
ATOM      9  F   UNL     1       3.265   7.700  17.562  0.00  0.00    +0.000 F 
ATOM     10  C   UNL     1       2.176   6.911  19.471  0.00  0.00    +0.000 A 
ATOM     11  C   UNL     1       1.997   5.927  20.426  0.00  0.00    +0.000 A 
ATOM     12  C   UNL     1       2.785   4.778  20.374  0.00  0.00    +0.000 A 
ATOM     13  C   UNL     1       3.752   4.579  19.367  0.00  0.00    +0.000 A 
BRANCH  13  14
ATOM     14  O   UNL     1       4.328   3.345  19.489  0.00  0.00    +0.000 OA
ATOM     15  C   UNL     1       3.607   2.285  20.086  0.00  0.00    +0.000 C 
ENDBRANCH  13  14
ENDBRANCH   6   7
ENDBRANCH   2   6
ENDBRANCH   1   2
BRANCH   1  16
ATOM     16  C   UNL     1       7.967   7.518  18.093  0.00  0.00    +0.000 C 
BRANCH  16  17
ATOM     17  C   UNL     1       8.255   9.011  17.941  0.00  0.00    +0.000 C 
BRANCH  17  18
ATOM     18  N   UNL     1       9.042   9.452  19.091  0.00  0.00    +0.000 N 
ATOM     19  H   UNL     1       9.676   8.720  19.394  0.00  0.00    +0.000 HD
BRANCH  18  20
ATOM     20  C   UNL     1       9.678  10.711  19.048  0.00  0.00    +0.000 A 
ATOM     21  C   UNL     1      10.324  11.151  17.890  0.00  0.00    +0.000 A 
ATOM     22  C   UNL     1      10.855  12.425  17.855  0.00  0.00    +0.000 A 
ATOM     23  N   UNL     1      10.770  13.303  18.871  0.00  0.00    +0.000 NA
ATOM     24  C   UNL     1      10.116  12.918  19.975  0.00  0.00    +0.000 A 
ATOM     25  C   UNL     1       9.997  13.847  20.999  0.00  0.00    +0.000 A 
ATOM     26  C   UNL     1       9.337  13.543  22.182  0.00  0.00    +0.000 A 
ATOM     27 CL   UNL     1       9.199  14.731  23.422  0.00  0.00    +0.000 Cl
ATOM     28  C   UNL     1       8.774  12.293  22.367  0.00  0.00    +0.000 A 
ATOM     29  C   UNL     1       8.871  11.344  21.348  0.00  0.00    +0.000 A 
ATOM     30  C   UNL     1       9.541  11.632  20.129  0.00  0.00    +0.000 A 
ENDBRANCH  18  20
ENDBRANCH  17  18
ENDBRANCH  16  17
ENDBRANCH   1  16
TORSDOF 10
ENDMDL
MODEL 8
REMARK VINA RESULT:      -7.4      4.194      8.009
REMARK  Name = 
REMARK  12 active torsions:
REMARK  status: ('A' for Active; 'I' for Inactive)
REMARK    1  A    between atoms: C_1  and  C_2
REMARK    2  A    between atoms: C_2  and  C_3
REMARK    3  A    between atoms: C_3  and  N_4
REMARK    4  A    between atoms: N_4  and  C_5
REMARK    5  A    between atoms: N_4  and  C_20
REMARK    6  A    between atoms: C_5  and  C_6
REMARK    7  A    between atoms: C_6  and  C_7
REMARK    8  A    between atoms: C_7  and  N_8
REMARK    9  A    between atoms: N_8  and  C_9
REMARK   10  A    between atoms: C_20  and  C_21
REMARK   11  A    between atoms: C_27  and  O_28
REMARK   12  A    between atoms: O_28  and  C_29
REMARK                            x       y       z     vdW  Elec       q    Type
REMARK                         _______ _______ _______ _____ _____    ______ ____
ROOT
ATOM      1  C   UNL     1       1.962   4.931  18.177  0.00  0.00    +0.000 C 
ENDROOT
BRANCH   1   2
ATOM      2  N   UNL     1       2.470   4.926  19.567  0.00  0.00    +0.000 NA
BRANCH   2   3
ATOM      3  C   UNL     1       1.343   4.753  20.522  0.00  0.00    +0.000 C 
BRANCH   3   5
ATOM      4  C   UNL     1       2.266   2.724  21.695  0.00  0.00    +0.000 C 
ATOM      5  C   UNL     1       1.057   3.314  20.977  0.00  0.00    +0.000 C 
ENDBRANCH   3   5
ENDBRANCH   2   3
BRANCH   2   6
ATOM      6  C   UNL     1       3.181   6.200  19.872  0.00  0.00    +0.000 C 
BRANCH   6   7
ATOM      7  C   UNL     1       2.469   7.459  19.425  0.00  0.00    +0.000 A 
ATOM      8  C   UNL     1       2.752   7.889  18.109  0.00  0.00    +0.000 A 
ATOM      9  F   UNL     1       3.643   7.211  17.367  0.00  0.00    +0.000 F 
ATOM     10  C   UNL     1       2.106   8.963  17.506  0.00  0.00    +0.000 A 
ATOM     11  C   UNL     1       1.163   9.674  18.226  0.00  0.00    +0.000 A 
ATOM     12  C   UNL     1       0.881   9.293  19.537  0.00  0.00    +0.000 A 
ATOM     13  C   UNL     1       1.517   8.194  20.151  0.00  0.00    +0.000 A 
BRANCH  13  14
ATOM     14  O   UNL     1       1.008   7.979  21.402  0.00  0.00    +0.000 OA
ATOM     15  C   UNL     1      -0.302   8.412  21.715  0.00  0.00    +0.000 C 
ENDBRANCH  13  14
ENDBRANCH   6   7
ENDBRANCH   2   6
ENDBRANCH   1   2
BRANCH   1  16
ATOM     16  C   UNL     1       2.463   3.773  17.309  0.00  0.00    +0.000 C 
BRANCH  16  17
ATOM     17  C   UNL     1       3.431   2.890  18.095  0.00  0.00    +0.000 C 
BRANCH  17  18
ATOM     18  N   UNL     1       4.648   2.716  17.305  0.00  0.00    +0.000 N 
ATOM     19  H   UNL     1       4.453   2.195  16.456  0.00  0.00    +0.000 HD
BRANCH  18  20
ATOM     20  C   UNL     1       5.472   3.834  17.055  0.00  0.00    +0.000 A 
ATOM     21  C   UNL     1       5.968   4.611  18.104  0.00  0.00    +0.000 A 
ATOM     22  C   UNL     1       6.845   5.641  17.828  0.00  0.00    +0.000 A 
ATOM     23  N   UNL     1       7.286   5.941  16.593  0.00  0.00    +0.000 NA
ATOM     24  C   UNL     1       6.857   5.181  15.576  0.00  0.00    +0.000 A 
ATOM     25  C   UNL     1       7.353   5.473  14.312  0.00  0.00    +0.000 A 
ATOM     26  C   UNL     1       6.969   4.742  13.196  0.00  0.00    +0.000 A 
ATOM     27 CL   UNL     1       7.620   5.128  11.649  0.00  0.00    +0.000 Cl
ATOM     28  C   UNL     1       6.076   3.693  13.320  0.00  0.00    +0.000 A 
ATOM     29  C   UNL     1       5.571   3.373  14.581  0.00  0.00    +0.000 A 
ATOM     30  C   UNL     1       5.948   4.106  15.738  0.00  0.00    +0.000 A 
ENDBRANCH  18  20
ENDBRANCH  17  18
ENDBRANCH  16  17
ENDBRANCH   1  16
TORSDOF 10
ENDMDL
MODEL 9
REMARK VINA RESULT:      -7.4      1.581      3.673
REMARK  Name = 
REMARK  12 active torsions:
REMARK  status: ('A' for Active; 'I' for Inactive)
REMARK    1  A    between atoms: C_1  and  C_2
REMARK    2  A    between atoms: C_2  and  C_3
REMARK    3  A    between atoms: C_3  and  N_4
REMARK    4  A    between atoms: N_4  and  C_5
REMARK    5  A    between atoms: N_4  and  C_20
REMARK    6  A    between atoms: C_5  and  C_6
REMARK    7  A    between atoms: C_6  and  C_7
REMARK    8  A    between atoms: C_7  and  N_8
REMARK    9  A    between atoms: N_8  and  C_9
REMARK   10  A    between atoms: C_20  and  C_21
REMARK   11  A    between atoms: C_27  and  O_28
REMARK   12  A    between atoms: O_28  and  C_29
REMARK                            x       y       z     vdW  Elec       q    Type
REMARK                         _______ _______ _______ _____ _____    ______ ____
ROOT
ATOM      1  C   UNL     1       3.593   7.576  17.666  0.00  0.00    +0.000 C 
ENDROOT
BRANCH   1   2
ATOM      2  N   UNL     1       3.837   6.176  18.079  0.00  0.00    +0.000 NA
BRANCH   2   3
ATOM      3  C   UNL     1       5.016   5.628  17.355  0.00  0.00    +0.000 C 
BRANCH   3   5
ATOM      4  C   UNL     1       5.565   4.989  14.982  0.00  0.00    +0.000 C 
ATOM      5  C   UNL     1       5.227   6.141  15.922  0.00  0.00    +0.000 C 
ENDBRANCH   3   5
ENDBRANCH   2   3
BRANCH   2   6
ATOM      6  C   UNL     1       2.647   5.328  17.792  0.00  0.00    +0.000 C 
BRANCH   6   7
ATOM      7  C   UNL     1       2.203   4.432  18.930  0.00  0.00    +0.000 A 
ATOM      8  C   UNL     1       1.987   3.077  18.595  0.00  0.00    +0.000 A 
ATOM      9  F   UNL     1       2.135   2.677  17.321  0.00  0.00    +0.000 F 
ATOM     10  C   UNL     1       1.679   2.102  19.538  0.00  0.00    +0.000 A 
ATOM     11  C   UNL     1       1.542   2.466  20.865  0.00  0.00    +0.000 A 
ATOM     12  C   UNL     1       1.720   3.801  21.225  0.00  0.00    +0.000 A 
ATOM     13  C   UNL     1       2.051   4.794  20.279  0.00  0.00    +0.000 A 
BRANCH  13  14
ATOM     14  O   UNL     1       2.251   5.998  20.894  0.00  0.00    +0.000 OA
ATOM     15  C   UNL     1       1.222   6.970  20.896  0.00  0.00    +0.000 C 
ENDBRANCH  13  14
ENDBRANCH   6   7
ENDBRANCH   2   6
ENDBRANCH   1   2
BRANCH   1  16
ATOM     16  C   UNL     1       2.119   7.992  17.659  0.00  0.00    +0.000 C 
BRANCH  16  17
ATOM     17  C   UNL     1       1.967   9.445  18.104  0.00  0.00    +0.000 C 
BRANCH  17  18
ATOM     18  N   UNL     1       0.670   9.938  17.645  0.00  0.00    +0.000 N 
ATOM     19  H   UNL     1       0.148   9.200  17.185  0.00  0.00    +0.000 HD
BRANCH  18  20
ATOM     20  C   UNL     1      -0.140  10.676  18.535  0.00  0.00    +0.000 A 
ATOM     21  C   UNL     1       0.422  11.389  19.597  0.00  0.00    +0.000 A 
ATOM     22  C   UNL     1      -0.390  12.173  20.390  0.00  0.00    +0.000 A 
ATOM     23  N   UNL     1      -1.713  12.323  20.195  0.00  0.00    +0.000 NA
ATOM     24  C   UNL     1      -2.266  11.684  19.155  0.00  0.00    +0.000 A 
ATOM     25  C   UNL     1      -3.623  11.881  18.937  0.00  0.00    +0.000 A 
ATOM     26  C   UNL     1      -4.286  11.261  17.887  0.00  0.00    +0.000 A 
ATOM     27 CL   UNL     1      -5.968  11.546  17.643  0.00  0.00    +0.000 Cl
ATOM     28  C   UNL     1      -3.602  10.428  17.021  0.00  0.00    +0.000 A 
ATOM     29  C   UNL     1      -2.234  10.221  17.213  0.00  0.00    +0.000 A 
ATOM     30  C   UNL     1      -1.534  10.842  18.281  0.00  0.00    +0.000 A 
ENDBRANCH  18  20
ENDBRANCH  17  18
ENDBRANCH  16  17
ENDBRANCH   1  16
TORSDOF 10
ENDMDL
