MODEL 1
REMARK VINA RESULT:      -7.6      0.000      0.000
REMARK  Name = 
REMARK  10 active torsions:
REMARK  status: ('A' for Active; 'I' for Inactive)
REMARK    1  A    between atoms: C_1  and  C_2
REMARK    2  A    between atoms: C_2  and  C_3
REMARK    3  A    between atoms: C_3  and  C_4
REMARK    4  A    between atoms: C_4  and  C_5
REMARK    5  A    between atoms: C_5  and  C_6
REMARK    6  A    between atoms: C_6  and  N_7
REMARK    7  A    between atoms: C_9  and  N_10
REMARK    8  A    between atoms: C_12  and  C_13
REMARK    9  A    between atoms: C_22  and  O_23
REMARK   10  A    between atoms: C_25  and  C_26
REMARK                            x       y       z     vdW  Elec       q    Type
REMARK                         _______ _______ _______ _____ _____    ______ ____
ROOT
ATOM      1  N   UNL     1       4.032   3.577  18.484  0.00  0.00    +0.000 NA
ATOM      2  C   UNL     1       3.149   4.754  18.448  0.00  0.00    +0.000 C 
ATOM      3  C   UNL     1       3.675   6.025  19.159  0.00  0.00    +0.000 C 
ATOM      4  C   UNL     1       5.208   6.217  19.094  0.00  0.00    +0.000 C 
ATOM      5  C   UNL     1       5.948   4.889  19.185  0.00  0.00    +0.000 C 
ATOM      6  C   UNL     1       5.441   3.854  18.159  0.00  0.00    +0.000 C 
ENDROOT
BRANCH   6   7
ATOM      7  C   UNL     1       5.809   4.184  16.706  0.00  0.00    +0.000 A 
ATOM      8  C   UNL     1       7.144   4.525  16.414  0.00  0.00    +0.000 A 
ATOM      9  C   UNL     1       7.537   4.878  15.121  0.00  0.00    +0.000 A 
ATOM     10  C   UNL     1       6.614   4.884  14.081  0.00  0.00    +0.000 A 
ATOM     11  C   UNL     1       5.302   4.515  14.333  0.00  0.00    +0.000 A 
ATOM     12  C   UNL     1       4.913   4.165  15.626  0.00  0.00    +0.000 A 
ENDBRANCH   6   7
BRANCH   3  13
ATOM     13  N   UNL     1       2.968   7.211  18.680  0.00  0.00    +0.000 N 
ATOM     14  C   UNL     1       2.056   7.967  19.361  0.00  0.00    +0.000 A 
ATOM     15  C   UNL     1       1.631   8.897  18.446  0.00  0.00    +0.000 A 
ATOM     16  N   UNL     1       2.311   8.706  17.270  0.00  0.00    +0.000 NA
ATOM     17  N   UNL     1       3.146   7.680  17.432  0.00  0.00    +0.000 NA
BRANCH  15  18
ATOM     18  C   UNL     1       0.587   9.877  18.674  0.00  0.00    +0.000 A 
ATOM     19  C   UNL     1       0.687  10.806  19.724  0.00  0.00    +0.000 A 
ATOM     20  C   UNL     1      -0.341  11.719  19.968  0.00  0.00    +0.000 A 
ATOM     21  C   UNL     1      -1.474  11.703  19.164  0.00  0.00    +0.000 A 
ATOM     22  F   UNL     1      -2.465  12.569  19.406  0.00  0.00    +0.000 F 
ATOM     23  C   UNL     1      -1.591  10.797  18.116  0.00  0.00    +0.000 A 
ATOM     24  C   UNL     1      -0.559   9.887  17.866  0.00  0.00    +0.000 A 
ENDBRANCH  15  18
ENDBRANCH   3  13
BRANCH   4  25
ATOM     25  O   UNL     1       5.622   6.913  17.916  0.00  0.00    +0.000 OA
ATOM     26  H   UNL     1       5.687   7.866  18.101  0.00  0.00    +0.000 HD
ENDBRANCH   4  25
BRANCH   1  27
ATOM     27  C   UNL     1       3.462   2.392  17.825  0.00  0.00    +0.000 C 
BRANCH  27  28
ATOM     28  C   UNL     1       1.930   2.267  17.942  0.00  0.00    +0.000 C 
BRANCH  28  29
ATOM     29  C   UNL     1       1.444   1.862  19.336  0.00  0.00    +0.000 C 
BRANCH  29  30
ATOM     30  C   UNL     1       0.667   2.994  20.002  0.00  0.00    +0.000 C 
BRANCH  30  32
ATOM     31  C   UNL     1       2.513   2.602  21.632  0.00  0.00    +0.000 C 
ATOM     32  C   UNL     1       1.384   3.539  21.231  0.00  0.00    +0.000 C 
ENDBRANCH  30  32
ENDBRANCH  29  30
ENDBRANCH  28  29
ENDBRANCH  27  28
ENDBRANCH   1  27
TORSDOF 9
ENDMDL
MODEL 2
REMARK VINA RESULT:      -7.5      4.149      7.689
REMARK  Name = 
REMARK  10 active torsions:
REMARK  status: ('A' for Active; 'I' for Inactive)
REMARK    1  A    between atoms: C_1  and  C_2
REMARK    2  A    between atoms: C_2  and  C_3
REMARK    3  A    between atoms: C_3  and  C_4
REMARK    4  A    between atoms: C_4  and  C_5
REMARK    5  A    between atoms: C_5  and  C_6
REMARK    6  A    between atoms: C_6  and  N_7
REMARK    7  A    between atoms: C_9  and  N_10
REMARK    8  A    between atoms: C_12  and  C_13
REMARK    9  A    between atoms: C_22  and  O_23
REMARK   10  A    between atoms: C_25  and  C_26
REMARK                            x       y       z     vdW  Elec       q    Type
REMARK                         _______ _______ _______ _____ _____    ______ ____
ROOT
ATOM      1  N   UNL     1       4.391   6.497  18.376  0.00  0.00    +0.000 NA
ATOM      2  C   UNL     1       4.926   6.427  17.007  0.00  0.00    +0.000 C 
ATOM      3  C   UNL     1       6.450   6.179  16.881  0.00  0.00    +0.000 C 
ATOM      4  C   UNL     1       7.054   5.281  17.985  0.00  0.00    +0.000 C 
ATOM      5  C   UNL     1       6.396   5.525  19.336  0.00  0.00    +0.000 C 
ATOM      6  C   UNL     1       4.857   5.427  19.275  0.00  0.00    +0.000 C 
ENDROOT
BRANCH   6   7
ATOM      7  C   UNL     1       4.331   4.002  19.057  0.00  0.00    +0.000 A 
ATOM      8  C   UNL     1       4.722   2.998  19.963  0.00  0.00    +0.000 A 
ATOM      9  C   UNL     1       4.315   1.672  19.798  0.00  0.00    +0.000 A 
ATOM     10  C   UNL     1       3.493   1.315  18.734  0.00  0.00    +0.000 A 
ATOM     11  C   UNL     1       3.061   2.290  17.850  0.00  0.00    +0.000 A 
ATOM     12  C   UNL     1       3.472   3.613  18.017  0.00  0.00    +0.000 A 
ENDBRANCH   6   7
BRANCH   3  13
ATOM     13  N   UNL     1       6.780   5.681  15.548  0.00  0.00    +0.000 N 
ATOM     14  C   UNL     1       6.126   4.716  14.835  0.00  0.00    +0.000 A 
ATOM     15  C   UNL     1       6.881   4.558  13.700  0.00  0.00    +0.000 A 
ATOM     16  N   UNL     1       7.930   5.441  13.738  0.00  0.00    +0.000 NA
ATOM     17  N   UNL     1       7.847   6.140  14.868  0.00  0.00    +0.000 NA
BRANCH  15  18
ATOM     18  C   UNL     1       6.637   3.573  12.665  0.00  0.00    +0.000 A 
ATOM     19  C   UNL     1       5.329   3.161  12.356  0.00  0.00    +0.000 A 
ATOM     20  C   UNL     1       5.101   2.178  11.389  0.00  0.00    +0.000 A 
ATOM     21  C   UNL     1       6.181   1.605  10.731  0.00  0.00    +0.000 A 
ATOM     22  F   UNL     1       5.963   0.654   9.814  0.00  0.00    +0.000 F 
ATOM     23  C   UNL     1       7.482   2.002  11.016  0.00  0.00    +0.000 A 
ATOM     24  C   UNL     1       7.711   2.990  11.978  0.00  0.00    +0.000 A 
ENDBRANCH  15  18
ENDBRANCH   3  13
BRANCH   4  25
ATOM     25  O   UNL     1       6.975   3.890  17.662  0.00  0.00    +0.000 OA
ATOM     26  H   UNL     1       7.046   3.770  16.700  0.00  0.00    +0.000 HD
ENDBRANCH   4  25
BRANCH   1  27
ATOM     27  C   UNL     1       2.946   6.771  18.430  0.00  0.00    +0.000 C 
BRANCH  27  28
ATOM     28  C   UNL     1       2.370   6.894  19.854  0.00  0.00    +0.000 C 
BRANCH  28  29
ATOM     29  C   UNL     1       1.250   5.895  20.161  0.00  0.00    +0.000 C 
BRANCH  29  30
ATOM     30  C   UNL     1       1.725   4.807  21.118  0.00  0.00    +0.000 C 
BRANCH  30  32
ATOM     31  C   UNL     1       1.508   2.439  21.869  0.00  0.00    +0.000 C 
ATOM     32  C   UNL     1       1.057   3.466  20.843  0.00  0.00    +0.000 C 
ENDBRANCH  30  32
ENDBRANCH  29  30
ENDBRANCH  28  29
ENDBRANCH  27  28
ENDBRANCH   1  27
TORSDOF 9
ENDMDL
MODEL 3
REMARK VINA RESULT:      -7.4      3.814      8.075
REMARK  Name = 
REMARK  10 active torsions:
REMARK  status: ('A' for Active; 'I' for Inactive)
REMARK    1  A    between atoms: C_1  and  C_2
REMARK    2  A    between atoms: C_2  and  C_3
REMARK    3  A    between atoms: C_3  and  C_4
REMARK    4  A    between atoms: C_4  and  C_5
REMARK    5  A    between atoms: C_5  and  C_6
REMARK    6  A    between atoms: C_6  and  N_7
REMARK    7  A    between atoms: C_9  and  N_10
REMARK    8  A    between atoms: C_12  and  C_13
REMARK    9  A    between atoms: C_22  and  O_23
REMARK   10  A    between atoms: C_25  and  C_26
REMARK                            x       y       z     vdW  Elec       q    Type
REMARK                         _______ _______ _______ _____ _____    ______ ____
ROOT
ATOM      1  N   UNL     1       3.433   6.905  18.332  0.00  0.00    +0.000 NA
ATOM      2  C   UNL     1       4.238   6.760  17.109  0.00  0.00    +0.000 C 
ATOM      3  C   UNL     1       5.714   6.336  17.308  0.00  0.00    +0.000 C 
ATOM      4  C   UNL     1       5.959   5.384  18.503  0.00  0.00    +0.000 C 
ATOM      5  C   UNL     1       5.058   5.717  19.685  0.00  0.00    +0.000 C 
ATOM      6  C   UNL     1       3.568   5.797  19.293  0.00  0.00    +0.000 C 
ENDROOT
BRANCH   6   7
ATOM      7  C   UNL     1       2.940   4.441  18.946  0.00  0.00    +0.000 A 
ATOM      8  C   UNL     1       2.453   3.640  19.996  0.00  0.00    +0.000 A 
ATOM      9  C   UNL     1       1.910   2.376  19.753  0.00  0.00    +0.000 A 
ATOM     10  C   UNL     1       1.821   1.885  18.455  0.00  0.00    +0.000 A 
ATOM     11  C   UNL     1       2.257   2.669  17.399  0.00  0.00    +0.000 A 
ATOM     12  C   UNL     1       2.802   3.929  17.646  0.00  0.00    +0.000 A 
ENDBRANCH   6   7
BRANCH   3  13
ATOM     13  N   UNL     1       6.263   5.789  16.070  0.00  0.00    +0.000 N 
ATOM     14  C   UNL     1       5.623   5.006  15.151  0.00  0.00    +0.000 A 
ATOM     15  C   UNL     1       6.595   4.692  14.233  0.00  0.00    +0.000 A 
ATOM     16  N   UNL     1       7.764   5.312  14.594  0.00  0.00    +0.000 NA
ATOM     17  N   UNL     1       7.543   6.001  15.713  0.00  0.00    +0.000 NA
BRANCH  15  18
ATOM     18  C   UNL     1       6.420   3.799  13.105  0.00  0.00    +0.000 A 
ATOM     19  C   UNL     1       5.143   3.337  12.742  0.00  0.00    +0.000 A 
ATOM     20  C   UNL     1       4.984   2.441  11.681  0.00  0.00    +0.000 A 
ATOM     21  C   UNL     1       6.103   2.004  10.984  0.00  0.00    +0.000 A 
ATOM     22  F   UNL     1       5.952   1.135   9.977  0.00  0.00    +0.000 F 
ATOM     23  C   UNL     1       7.375   2.452  11.322  0.00  0.00    +0.000 A 
ATOM     24  C   UNL     1       7.534   3.354  12.379  0.00  0.00    +0.000 A 
ENDBRANCH  15  18
ENDBRANCH   3  13
BRANCH   4  25
ATOM     25  O   UNL     1       5.791   4.009  18.150  0.00  0.00    +0.000 OA
ATOM     26  H   UNL     1       6.185   3.842  17.276  0.00  0.00    +0.000 HD
ENDBRANCH   4  25
BRANCH   1  27
ATOM     27  C   UNL     1       2.052   7.345  18.079  0.00  0.00    +0.000 C 
BRANCH  27  28
ATOM     28  C   UNL     1       1.915   8.823  17.663  0.00  0.00    +0.000 C 
BRANCH  28  29
ATOM     29  C   UNL     1       1.639   9.775  18.830  0.00  0.00    +0.000 C 
BRANCH  29  30
ATOM     30  C   UNL     1       0.458  10.693  18.528  0.00  0.00    +0.000 C 
BRANCH  30  32
ATOM     31  C   UNL     1      -1.652  10.103  17.338  0.00  0.00    +0.000 C 
ATOM     32  C   UNL     1      -0.877   9.967  18.638  0.00  0.00    +0.000 C 
ENDBRANCH  30  32
ENDBRANCH  29  30
ENDBRANCH  28  29
ENDBRANCH  27  28
ENDBRANCH   1  27
TORSDOF 9
ENDMDL
MODEL 4
REMARK VINA RESULT:      -7.4      2.178      4.568
REMARK  Name = 
REMARK  10 active torsions:
REMARK  status: ('A' for Active; 'I' for Inactive)
REMARK    1  A    between atoms: C_1  and  C_2
REMARK    2  A    between atoms: C_2  and  C_3
REMARK    3  A    between atoms: C_3  and  C_4
REMARK    4  A    between atoms: C_4  and  C_5
REMARK    5  A    between atoms: C_5  and  C_6
REMARK    6  A    between atoms: C_6  and  N_7
REMARK    7  A    between atoms: C_9  and  N_10
REMARK    8  A    between atoms: C_12  and  C_13
REMARK    9  A    between atoms: C_22  and  O_23
REMARK   10  A    between atoms: C_25  and  C_26
REMARK                            x       y       z     vdW  Elec       q    Type
REMARK                         _______ _______ _______ _____ _____    ______ ____
ROOT
ATOM      1  N   UNL     1       4.948   5.150  16.383  0.00  0.00    +0.000 NA
ATOM      2  C   UNL     1       3.804   5.824  17.017  0.00  0.00    +0.000 C 
ATOM      3  C   UNL     1       3.317   5.228  18.361  0.00  0.00    +0.000 C 
ATOM      4  C   UNL     1       4.435   4.625  19.244  0.00  0.00    +0.000 C 
ATOM      5  C   UNL     1       5.507   3.938  18.409  0.00  0.00    +0.000 C 
ATOM      6  C   UNL     1       6.065   4.847  17.294  0.00  0.00    +0.000 C 
ENDROOT
BRANCH   6   7
ATOM      7  C   UNL     1       6.930   6.005  17.808  0.00  0.00    +0.000 A 
ATOM      8  C   UNL     1       6.830   7.253  17.163  0.00  0.00    +0.000 A 
ATOM      9  C   UNL     1       7.621   8.337  17.552  0.00  0.00    +0.000 A 
ATOM     10  C   UNL     1       8.520   8.211  18.606  0.00  0.00    +0.000 A 
ATOM     11  C   UNL     1       8.611   7.005  19.283  0.00  0.00    +0.000 A 
ATOM     12  C   UNL     1       7.821   5.924  18.890  0.00  0.00    +0.000 A 
ENDBRANCH   6   7
BRANCH   3  13
ATOM     13  N   UNL     1       2.524   6.206  19.100  0.00  0.00    +0.000 N 
ATOM     14  C   UNL     1       2.248   7.496  18.741  0.00  0.00    +0.000 A 
ATOM     15  C   UNL     1       1.552   8.007  19.807  0.00  0.00    +0.000 A 
ATOM     16  N   UNL     1       1.395   7.022  20.749  0.00  0.00    +0.000 NA
ATOM     17  N   UNL     1       1.977   5.913  20.294  0.00  0.00    +0.000 NA
BRANCH  15  18
ATOM     18  C   UNL     1       1.113   9.383  19.936  0.00  0.00    +0.000 A 
ATOM     19  C   UNL     1       0.692   9.892  21.177  0.00  0.00    +0.000 A 
ATOM     20  C   UNL     1       0.227  11.205  21.288  0.00  0.00    +0.000 A 
ATOM     21  C   UNL     1       0.181  12.010  20.157  0.00  0.00    +0.000 A 
ATOM     22  F   UNL     1      -0.277  13.264  20.261  0.00  0.00    +0.000 F 
ATOM     23  C   UNL     1       0.599  11.530  18.921  0.00  0.00    +0.000 A 
ATOM     24  C   UNL     1       1.070  10.218  18.811  0.00  0.00    +0.000 A 
ENDBRANCH  15  18
ENDBRANCH   3  13
BRANCH   4  25
ATOM     25  O   UNL     1       5.045   5.599  20.095  0.00  0.00    +0.000 OA
ATOM     26  H   UNL     1       5.003   5.302  21.020  0.00  0.00    +0.000 HD
ENDBRANCH   4  25
BRANCH   1  27
ATOM     27  C   UNL     1       5.338   5.740  15.093  0.00  0.00    +0.000 C 
BRANCH  27  28
ATOM     28  C   UNL     1       6.378   4.922  14.302  0.00  0.00    +0.000 C 
BRANCH  28  29
ATOM     29  C   UNL     1       5.831   3.615  13.722  0.00  0.00    +0.000 C 
BRANCH  29  30
ATOM     30  C   UNL     1       6.337   3.385  12.301  0.00  0.00    +0.000 C 
BRANCH  30  32
ATOM     31  C   UNL     1       4.060   3.281  11.292  0.00  0.00    +0.000 C 
ATOM     32  C   UNL     1       5.374   2.541  11.477  0.00  0.00    +0.000 C 
ENDBRANCH  30  32
ENDBRANCH  29  30
ENDBRANCH  28  29
ENDBRANCH  27  28
ENDBRANCH   1  27
TORSDOF 9
ENDMDL
MODEL 5
REMARK VINA RESULT:      -7.3      0.341      1.265
REMARK  Name = 
REMARK  10 active torsions:
REMARK  status: ('A' for Active; 'I' for Inactive)
REMARK    1  A    between atoms: C_1  and  C_2
REMARK    2  A    between atoms: C_2  and  C_3
REMARK    3  A    between atoms: C_3  and  C_4
REMARK    4  A    between atoms: C_4  and  C_5
REMARK    5  A    between atoms: C_5  and  C_6
REMARK    6  A    between atoms: C_6  and  N_7
REMARK    7  A    between atoms: C_9  and  N_10
REMARK    8  A    between atoms: C_12  and  C_13
REMARK    9  A    between atoms: C_22  and  O_23
REMARK   10  A    between atoms: C_25  and  C_26
REMARK                            x       y       z     vdW  Elec       q    Type
REMARK                         _______ _______ _______ _____ _____    ______ ____
ROOT
ATOM      1  N   UNL     1       4.147   3.637  18.609  0.00  0.00    +0.000 NA
ATOM      2  C   UNL     1       3.234   4.790  18.570  0.00  0.00    +0.000 C 
ATOM      3  C   UNL     1       3.749   6.093  19.229  0.00  0.00    +0.000 C 
ATOM      4  C   UNL     1       5.274   6.321  19.110  0.00  0.00    +0.000 C 
ATOM      5  C   UNL     1       6.051   5.015  19.212  0.00  0.00    +0.000 C 
ATOM      6  C   UNL     1       5.538   3.940  18.231  0.00  0.00    +0.000 C 
ENDROOT
BRANCH   6   7
ATOM      7  C   UNL     1       5.851   4.238  16.759  0.00  0.00    +0.000 A 
ATOM      8  C   UNL     1       4.795   4.201  15.828  0.00  0.00    +0.000 A 
ATOM      9  C   UNL     1       5.018   4.420  14.466  0.00  0.00    +0.000 A 
ATOM     10  C   UNL     1       6.298   4.699  13.999  0.00  0.00    +0.000 A 
ATOM     11  C   UNL     1       7.349   4.781  14.898  0.00  0.00    +0.000 A 
ATOM     12  C   UNL     1       7.123   4.559  16.257  0.00  0.00    +0.000 A 
ENDBRANCH   6   7
BRANCH   3  13
ATOM     13  N   UNL     1       2.998   7.247  18.742  0.00  0.00    +0.000 N 
ATOM     14  C   UNL     1       2.050   7.967  19.415  0.00  0.00    +0.000 A 
ATOM     15  C   UNL     1       1.593   8.876  18.494  0.00  0.00    +0.000 A 
ATOM     16  N   UNL     1       2.289   8.710  17.323  0.00  0.00    +0.000 NA
ATOM     17  N   UNL     1       3.164   7.720  17.494  0.00  0.00    +0.000 NA
BRANCH  15  18
ATOM     18  C   UNL     1       0.508   9.812  18.712  0.00  0.00    +0.000 A 
ATOM     19  C   UNL     1      -0.575   9.881  17.818  0.00  0.00    +0.000 A 
ATOM     20  C   UNL     1      -1.596  10.816  18.007  0.00  0.00    +0.000 A 
ATOM     21  C   UNL     1      -1.534  11.684  19.089  0.00  0.00    +0.000 A 
ATOM     22  F   UNL     1      -2.506  12.589  19.262  0.00  0.00    +0.000 F 
ATOM     23  C   UNL     1      -0.477  11.629  19.989  0.00  0.00    +0.000 A 
ATOM     24  C   UNL     1       0.543  10.690  19.805  0.00  0.00    +0.000 A 
ENDBRANCH  15  18
ENDBRANCH   3  13
BRANCH   4  25
ATOM     25  O   UNL     1       5.633   6.995  17.901  0.00  0.00    +0.000 OA
ATOM     26  H   UNL     1       6.597   7.116  17.864  0.00  0.00    +0.000 HD
ENDBRANCH   4  25
BRANCH   1  27
ATOM     27  C   UNL     1       3.587   2.420  18.000  0.00  0.00    +0.000 C 
BRANCH  27  28
ATOM     28  C   UNL     1       2.077   2.489  17.702  0.00  0.00    +0.000 C 
BRANCH  28  29
ATOM     29  C   UNL     1       1.199   1.859  18.787  0.00  0.00    +0.000 C 
BRANCH  29  30
ATOM     30  C   UNL     1       0.835   2.876  19.864  0.00  0.00    +0.000 C 
BRANCH  30  32
ATOM     31  C   UNL     1       2.270   3.698  21.729  0.00  0.00    +0.000 C 
ATOM     32  C   UNL     1       1.448   2.528  21.215  0.00  0.00    +0.000 C 
ENDBRANCH  30  32
ENDBRANCH  29  30
ENDBRANCH  28  29
ENDBRANCH  27  28
ENDBRANCH   1  27
TORSDOF 9
ENDMDL
MODEL 6
REMARK VINA RESULT:      -7.3      2.057      4.489
REMARK  Name = 
REMARK  10 active torsions:
REMARK  status: ('A' for Active; 'I' for Inactive)
REMARK    1  A    between atoms: C_1  and  C_2
REMARK    2  A    between atoms: C_2  and  C_3
REMARK    3  A    between atoms: C_3  and  C_4
REMARK    4  A    between atoms: C_4  and  C_5
REMARK    5  A    between atoms: C_5  and  C_6
REMARK    6  A    between atoms: C_6  and  N_7
REMARK    7  A    between atoms: C_9  and  N_10
REMARK    8  A    between atoms: C_12  and  C_13
REMARK    9  A    between atoms: C_22  and  O_23
REMARK   10  A    between atoms: C_25  and  C_26
REMARK                            x       y       z     vdW  Elec       q    Type
REMARK                         _______ _______ _______ _____ _____    ______ ____
ROOT
ATOM      1  N   UNL     1       4.669   4.919  16.506  0.00  0.00    +0.000 NA
ATOM      2  C   UNL     1       3.602   5.823  16.963  0.00  0.00    +0.000 C 
ATOM      3  C   UNL     1       3.009   5.528  18.363  0.00  0.00    +0.000 C 
ATOM      4  C   UNL     1       4.018   4.957  19.387  0.00  0.00    +0.000 C 
ATOM      5  C   UNL     1       5.018   4.015  18.730  0.00  0.00    +0.000 C 
ATOM      6  C   UNL     1       5.715   4.646  17.507  0.00  0.00    +0.000 C 
ENDROOT
BRANCH   6   7
ATOM      7  C   UNL     1       6.704   5.765  17.860  0.00  0.00    +0.000 A 
ATOM      8  C   UNL     1       7.595   5.557  18.931  0.00  0.00    +0.000 A 
ATOM      9  C   UNL     1       8.492   6.551  19.333  0.00  0.00    +0.000 A 
ATOM     10  C   UNL     1       8.535   7.771  18.667  0.00  0.00    +0.000 A 
ATOM     11  C   UNL     1       7.697   7.987  17.586  0.00  0.00    +0.000 A 
ATOM     12  C   UNL     1       6.801   6.994  17.189  0.00  0.00    +0.000 A 
ENDBRANCH   6   7
BRANCH   3  13
ATOM     13  N   UNL     1       2.325   6.706  18.890  0.00  0.00    +0.000 N 
ATOM     14  C   UNL     1       1.937   7.821  18.200  0.00  0.00    +0.000 A 
ATOM     15  C   UNL     1       1.426   8.657  19.160  0.00  0.00    +0.000 A 
ATOM     16  N   UNL     1       1.482   8.025  20.376  0.00  0.00    +0.000 NA
ATOM     17  N   UNL     1       2.016   6.818  20.195  0.00  0.00    +0.000 NA
BRANCH  15  18
ATOM     18  C   UNL     1       0.964  10.012  18.928  0.00  0.00    +0.000 A 
ATOM     19  C   UNL     1      -0.409  10.297  18.823  0.00  0.00    +0.000 A 
ATOM     20  C   UNL     1      -0.848  11.595  18.554  0.00  0.00    +0.000 A 
ATOM     21  C   UNL     1       0.085  12.611  18.388  0.00  0.00    +0.000 A 
ATOM     22  F   UNL     1      -0.337  13.852  18.118  0.00  0.00    +0.000 F 
ATOM     23  C   UNL     1       1.446  12.353  18.495  0.00  0.00    +0.000 A 
ATOM     24  C   UNL     1       1.887  11.055  18.770  0.00  0.00    +0.000 A 
ENDBRANCH  15  18
ENDBRANCH   3  13
BRANCH   4  25
ATOM     25  O   UNL     1       4.723   5.983  20.091  0.00  0.00    +0.000 OA
ATOM     26  H   UNL     1       4.761   5.767  21.038  0.00  0.00    +0.000 HD
ENDBRANCH   4  25
BRANCH   1  27
ATOM     27  C   UNL     1       5.165   5.228  15.156  0.00  0.00    +0.000 C 
BRANCH  27  28
ATOM     28  C   UNL     1       6.119   4.172  14.565  0.00  0.00    +0.000 C 
BRANCH  28  29
ATOM     29  C   UNL     1       7.018   4.702  13.444  0.00  0.00    +0.000 C 
BRANCH  29  30
ATOM     30  C   UNL     1       6.704   4.022  12.115  0.00  0.00    +0.000 C 
BRANCH  30  32
ATOM     31  C   UNL     1       4.447   3.261  11.382  0.00  0.00    +0.000 C 
ATOM     32  C   UNL     1       5.644   2.938  12.260  0.00  0.00    +0.000 C 
ENDBRANCH  30  32
ENDBRANCH  29  30
ENDBRANCH  28  29
ENDBRANCH  27  28
ENDBRANCH   1  27
TORSDOF 9
ENDMDL
MODEL 7
REMARK VINA RESULT:      -7.2      2.171      4.511
REMARK  Name = 
REMARK  10 active torsions:
REMARK  status: ('A' for Active; 'I' for Inactive)
REMARK    1  A    between atoms: C_1  and  C_2
REMARK    2  A    between atoms: C_2  and  C_3
REMARK    3  A    between atoms: C_3  and  C_4
REMARK    4  A    between atoms: C_4  and  C_5
REMARK    5  A    between atoms: C_5  and  C_6
REMARK    6  A    between atoms: C_6  and  N_7
REMARK    7  A    between atoms: C_9  and  N_10
REMARK    8  A    between atoms: C_12  and  C_13
REMARK    9  A    between atoms: C_22  and  O_23
REMARK   10  A    between atoms: C_25  and  C_26
REMARK                            x       y       z     vdW  Elec       q    Type
REMARK                         _______ _______ _______ _____ _____    ______ ____
ROOT
ATOM      1  N   UNL     1       4.775   4.736  16.541  0.00  0.00    +0.000 NA
ATOM      2  C   UNL     1       3.654   5.507  17.101  0.00  0.00    +0.000 C 
ATOM      3  C   UNL     1       3.201   5.116  18.530  0.00  0.00    +0.000 C 
ATOM      4  C   UNL     1       4.338   4.632  19.460  0.00  0.00    +0.000 C 
ATOM      5  C   UNL     1       5.382   3.821  18.704  0.00  0.00    +0.000 C 
ATOM      6  C   UNL     1       5.915   4.554  17.455  0.00  0.00    +0.000 C 
ENDROOT
BRANCH   6   7
ATOM      7  C   UNL     1       6.803   5.764  17.774  0.00  0.00    +0.000 A 
ATOM      8  C   UNL     1       7.729   5.656  18.829  0.00  0.00    +0.000 A 
ATOM      9  C   UNL     1       8.537   6.734  19.200  0.00  0.00    +0.000 A 
ATOM     10  C   UNL     1       8.455   7.943  18.517  0.00  0.00    +0.000 A 
ATOM     11  C   UNL     1       7.580   8.064  17.449  0.00  0.00    +0.000 A 
ATOM     12  C   UNL     1       6.773   6.986  17.084  0.00  0.00    +0.000 A 
ENDBRANCH   6   7
BRANCH   3  13
ATOM     13  N   UNL     1       2.436   6.199  19.141  0.00  0.00    +0.000 N 
ATOM     14  C   UNL     1       2.191   7.440  18.623  0.00  0.00    +0.000 A 
ATOM     15  C   UNL     1       1.513   8.099  19.618  0.00  0.00    +0.000 A 
ATOM     16  N   UNL     1       1.336   7.244  20.676  0.00  0.00    +0.000 NA
ATOM     17  N   UNL     1       1.888   6.072  20.364  0.00  0.00    +0.000 NA
BRANCH  15  18
ATOM     18  C   UNL     1       1.110   9.490  19.574  0.00  0.00    +0.000 A 
ATOM     19  C   UNL     1       1.624  10.359  18.596  0.00  0.00    +0.000 A 
ATOM     20  C   UNL     1       1.268  11.710  18.584  0.00  0.00    +0.000 A 
ATOM     21  C   UNL     1       0.398  12.194  19.552  0.00  0.00    +0.000 A 
ATOM     22  F   UNL     1       0.067  13.492  19.549  0.00  0.00    +0.000 F 
ATOM     23  C   UNL     1      -0.128  11.352  20.525  0.00  0.00    +0.000 A 
ATOM     24  C   UNL     1       0.223   9.998  20.533  0.00  0.00    +0.000 A 
ENDBRANCH  15  18
ENDBRANCH   3  13
BRANCH   4  25
ATOM     25  O   UNL     1       4.980   5.711  20.145  0.00  0.00    +0.000 OA
ATOM     26  H   UNL     1       4.485   6.536  19.999  0.00  0.00    +0.000 HD
ENDBRANCH   4  25
BRANCH   1  27
ATOM     27  C   UNL     1       5.133   5.130  15.169  0.00  0.00    +0.000 C 
BRANCH  27  28
ATOM     28  C   UNL     1       5.784   4.013  14.331  0.00  0.00    +0.000 C 
BRANCH  28  29
ATOM     29  C   UNL     1       6.640   4.526  13.169  0.00  0.00    +0.000 C 
BRANCH  29  30
ATOM     30  C   UNL     1       6.680   3.517  12.024  0.00  0.00    +0.000 C 
BRANCH  30  32
ATOM     31  C   UNL     1       4.313   3.337  11.264  0.00  0.00    +0.000 C 
ATOM     32  C   UNL     1       5.443   2.630  11.996  0.00  0.00    +0.000 C 
ENDBRANCH  30  32
ENDBRANCH  29  30
ENDBRANCH  28  29
ENDBRANCH  27  28
ENDBRANCH   1  27
TORSDOF 9
ENDMDL
MODEL 8
REMARK VINA RESULT:      -7.2      4.173      7.637
REMARK  Name = 
REMARK  10 active torsions:
REMARK  status: ('A' for Active; 'I' for Inactive)
REMARK    1  A    between atoms: C_1  and  C_2
REMARK    2  A    between atoms: C_2  and  C_3
REMARK    3  A    between atoms: C_3  and  C_4
REMARK    4  A    between atoms: C_4  and  C_5
REMARK    5  A    between atoms: C_5  and  C_6
REMARK    6  A    between atoms: C_6  and  N_7
REMARK    7  A    between atoms: C_9  and  N_10
REMARK    8  A    between atoms: C_12  and  C_13
REMARK    9  A    between atoms: C_22  and  O_23
REMARK   10  A    between atoms: C_25  and  C_26
REMARK                            x       y       z     vdW  Elec       q    Type
REMARK                         _______ _______ _______ _____ _____    ______ ____
ROOT
ATOM      1  N   UNL     1       4.227   6.220  18.521  0.00  0.00    +0.000 NA
ATOM      2  C   UNL     1       4.737   6.180  17.141  0.00  0.00    +0.000 C 
ATOM      3  C   UNL     1       6.277   6.135  16.983  0.00  0.00    +0.000 C 
ATOM      4  C   UNL     1       7.021   5.360  18.096  0.00  0.00    +0.000 C 
ATOM      5  C   UNL     1       6.365   5.556  19.457  0.00  0.00    +0.000 C 
ATOM      6  C   UNL     1       4.852   5.250  19.436  0.00  0.00    +0.000 C 
ENDROOT
BRANCH   6   7
ATOM      7  C   UNL     1       4.519   3.762  19.272  0.00  0.00    +0.000 A 
ATOM      8  C   UNL     1       3.849   3.351  18.103  0.00  0.00    +0.000 A 
ATOM      9  C   UNL     1       3.476   2.018  17.910  0.00  0.00    +0.000 A 
ATOM     10  C   UNL     1       3.778   1.057  18.869  0.00  0.00    +0.000 A 
ATOM     11  C   UNL     1       4.471   1.427  20.010  0.00  0.00    +0.000 A 
ATOM     12  C   UNL     1       4.839   2.759  20.201  0.00  0.00    +0.000 A 
ENDBRANCH   6   7
BRANCH   3  13
ATOM     13  N   UNL     1       6.644   5.645  15.657  0.00  0.00    +0.000 N 
ATOM     14  C   UNL     1       6.006   4.687  14.919  0.00  0.00    +0.000 A 
ATOM     15  C   UNL     1       6.792   4.534  13.804  0.00  0.00    +0.000 A 
ATOM     16  N   UNL     1       7.843   5.413  13.878  0.00  0.00    +0.000 NA
ATOM     17  N   UNL     1       7.730   6.105  15.010  0.00  0.00    +0.000 NA
BRANCH  15  18
ATOM     18  C   UNL     1       6.574   3.557  12.756  0.00  0.00    +0.000 A 
ATOM     19  C   UNL     1       7.656   3.001  12.052  0.00  0.00    +0.000 A 
ATOM     20  C   UNL     1       7.439   2.094  11.012  0.00  0.00    +0.000 A 
ATOM     21  C   UNL     1       6.139   1.743  10.673  0.00  0.00    +0.000 A 
ATOM     22  F   UNL     1       5.931   0.883   9.668  0.00  0.00    +0.000 F 
ATOM     23  C   UNL     1       5.054   2.275  11.360  0.00  0.00    +0.000 A 
ATOM     24  C   UNL     1       5.270   3.178  12.405  0.00  0.00    +0.000 A 
ENDBRANCH  15  18
ENDBRANCH   3  13
BRANCH   4  25
ATOM     25  O   UNL     1       7.123   3.962  17.814  0.00  0.00    +0.000 OA
ATOM     26  H   UNL     1       6.674   3.761  16.975  0.00  0.00    +0.000 HD
ENDBRANCH   4  25
BRANCH   1  27
ATOM     27  C   UNL     1       2.760   6.299  18.604  0.00  0.00    +0.000 C 
BRANCH  27  28
ATOM     28  C   UNL     1       2.216   6.678  19.995  0.00  0.00    +0.000 C 
BRANCH  28  29
ATOM     29  C   UNL     1       1.468   5.544  20.701  0.00  0.00    +0.000 C 
BRANCH  29  30
ATOM     30  C   UNL     1       1.225   4.369  19.758  0.00  0.00    +0.000 C 
BRANCH  30  32
ATOM     31  C   UNL     1       1.560   2.760  21.632  0.00  0.00    +0.000 C 
ATOM     32  C   UNL     1       0.650   3.159  20.483  0.00  0.00    +0.000 C 
ENDBRANCH  30  32
ENDBRANCH  29  30
ENDBRANCH  28  29
ENDBRANCH  27  28
ENDBRANCH   1  27
TORSDOF 9
ENDMDL
MODEL 9
REMARK VINA RESULT:      -7.2      3.921      7.908
REMARK  Name = 
REMARK  10 active torsions:
REMARK  status: ('A' for Active; 'I' for Inactive)
REMARK    1  A    between atoms: C_1  and  C_2
REMARK    2  A    between atoms: C_2  and  C_3
REMARK    3  A    between atoms: C_3  and  C_4
REMARK    4  A    between atoms: C_4  and  C_5
REMARK    5  A    between atoms: C_5  and  C_6
REMARK    6  A    between atoms: C_6  and  N_7
REMARK    7  A    between atoms: C_9  and  N_10
REMARK    8  A    between atoms: C_12  and  C_13
REMARK    9  A    between atoms: C_22  and  O_23
REMARK   10  A    between atoms: C_25  and  C_26
REMARK                            x       y       z     vdW  Elec       q    Type
REMARK                         _______ _______ _______ _____ _____    ______ ____
ROOT
ATOM      1  N   UNL     1       3.620   6.880  18.374  0.00  0.00    +0.000 NA
ATOM      2  C   UNL     1       4.381   6.743  17.123  0.00  0.00    +0.000 C 
ATOM      3  C   UNL     1       5.859   6.300  17.266  0.00  0.00    +0.000 C 
ATOM      4  C   UNL     1       6.133   5.330  18.439  0.00  0.00    +0.000 C 
ATOM      5  C   UNL     1       5.277   5.656  19.655  0.00  0.00    +0.000 C 
ATOM      6  C   UNL     1       3.775   5.758  19.316  0.00  0.00    +0.000 C 
ENDROOT
BRANCH   6   7
ATOM      7  C   UNL     1       3.121   4.414  18.972  0.00  0.00    +0.000 A 
ATOM      8  C   UNL     1       2.797   4.151  17.628  0.00  0.00    +0.000 A 
ATOM      9  C   UNL     1       2.160   2.965  17.252  0.00  0.00    +0.000 A 
ATOM     10  C   UNL     1       1.845   2.003  18.206  0.00  0.00    +0.000 A 
ATOM     11  C   UNL     1       2.188   2.219  19.531  0.00  0.00    +0.000 A 
ATOM     12  C   UNL     1       2.821   3.405  19.902  0.00  0.00    +0.000 A 
ENDBRANCH   6   7
BRANCH   3  13
ATOM     13  N   UNL     1       6.359   5.765  16.003  0.00  0.00    +0.000 N 
ATOM     14  C   UNL     1       5.700   4.951  15.125  0.00  0.00    +0.000 A 
ATOM     15  C   UNL     1       6.630   4.666  14.157  0.00  0.00    +0.000 A 
ATOM     16  N   UNL     1       7.794   5.332  14.450  0.00  0.00    +0.000 NA
ATOM     17  N   UNL     1       7.609   6.021  15.575  0.00  0.00    +0.000 NA
BRANCH  15  18
ATOM     18  C   UNL     1       6.428   3.758  13.045  0.00  0.00    +0.000 A 
ATOM     19  C   UNL     1       5.134   3.369  12.658  0.00  0.00    +0.000 A 
ATOM     20  C   UNL     1       4.945   2.459  11.615  0.00  0.00    +0.000 A 
ATOM     21  C   UNL     1       6.051   1.935  10.959  0.00  0.00    +0.000 A 
ATOM     22  F   UNL     1       5.870   1.053   9.968  0.00  0.00    +0.000 F 
ATOM     23  C   UNL     1       7.339   2.310  11.320  0.00  0.00    +0.000 A 
ATOM     24  C   UNL     1       7.529   3.226  12.360  0.00  0.00    +0.000 A 
ENDBRANCH  15  18
ENDBRANCH   3  13
BRANCH   4  25
ATOM     25  O   UNL     1       5.938   3.961  18.074  0.00  0.00    +0.000 OA
ATOM     26  H   UNL     1       5.664   3.904  17.142  0.00  0.00    +0.000 HD
ENDBRANCH   4  25
BRANCH   1  27
ATOM     27  C   UNL     1       2.236   7.338  18.175  0.00  0.00    +0.000 C 
BRANCH  27  28
ATOM     28  C   UNL     1       2.048   8.866  18.255  0.00  0.00    +0.000 C 
BRANCH  28  29
ATOM     29  C   UNL     1       0.765   9.298  18.972  0.00  0.00    +0.000 C 
BRANCH  29  30
ATOM     30  C   UNL     1       1.014   9.534  20.458  0.00  0.00    +0.000 C 
BRANCH  30  32
ATOM     31  C   UNL     1      -0.245   9.353  22.602  0.00  0.00    +0.000 C 
ATOM     32  C   UNL     1       0.166   8.622  21.335  0.00  0.00    +0.000 C 
ENDBRANCH  30  32
ENDBRANCH  29  30
ENDBRANCH  28  29
ENDBRANCH  27  28
ENDBRANCH   1  27
TORSDOF 9
ENDMDL
