MODEL 1
REMARK VINA RESULT:      -8.9      0.000      0.000
REMARK  Name = 
REMARK  11 active torsions:
REMARK  status: ('A' for Active; 'I' for Inactive)
REMARK    1  A    between atoms: C_1  and  C_2
REMARK    2  A    between atoms: C_2  and  C_3
REMARK    3  A    between atoms: C_3  and  N_4
REMARK    4  A    between atoms: C_5  and  C_7
REMARK    5  A    between atoms: C_7  and  C_8
REMARK    6  A    between atoms: C_8  and  C_9
REMARK    7  A    between atoms: C_9  and  C_10
REMARK    8  A    between atoms: C_10  and  C_11
REMARK    9  A    between atoms: C_13  and  C_14
REMARK   10  A    between atoms: C_16  and  C_17
REMARK   11  A    between atoms: C_20  and  C_21
REMARK                            x       y       z     vdW  Elec       q    Type
REMARK                         _______ _______ _______ _____ _____    ______ ____
ROOT
ATOM      1  C   UNL     1       5.240   5.701  16.702  0.00  0.00    +0.000 A 
ATOM      2  N   UNL     1       4.720   4.662  17.316  0.00  0.00    +0.000 NA
ATOM      3  C   UNL     1       3.590   5.133  17.950  0.00  0.00    +0.000 A 
ATOM      4  C   UNL     1       3.473   6.510  17.807  0.00  0.00    +0.000 A 
ATOM      5  N   UNL     1       4.537   6.841  16.996  0.00  0.00    +0.000 N 
ATOM      6  H   UNL     1       4.782   7.774  16.697  0.00  0.00    +0.000 HD
ENDROOT
BRANCH   4   7
ATOM      7  C   UNL     1       2.589   7.505  18.421  0.00  0.00    +0.000 A 
ATOM      8  C   UNL     1       2.048   8.565  17.662  0.00  0.00    +0.000 A 
ATOM      9  C   UNL     1       1.228   9.535  18.254  0.00  0.00    +0.000 A 
ATOM     10  C   UNL     1       0.967   9.422  19.602  0.00  0.00    +0.000 A 
ATOM     11  C   UNL     1       1.485   8.396  20.351  0.00  0.00    +0.000 A 
ATOM     12  C   UNL     1       2.299   7.436  19.795  0.00  0.00    +0.000 A 
ATOM     13  O   UNL     1       1.113   8.461  21.657  0.00  0.00    +0.000 OA
ATOM     14  C   UNL     1       0.355   9.686  21.657  0.00  0.00    +0.000 C 
ATOM     15  O   UNL     1       0.207  10.271  20.344  0.00  0.00    +0.000 OA
ENDBRANCH   4   7
BRANCH   3  16
ATOM     16  C   UNL     1       2.635   4.251  18.699  0.00  0.00    +0.000 A 
ATOM     17  N   UNL     1       2.866   3.867  19.940  0.00  0.00    +0.000 NA
ATOM     18  C   UNL     1       1.855   3.040  20.387  0.00  0.00    +0.000 A 
ATOM     19  C   UNL     1       1.872   2.597  21.803  0.00  0.00    +0.000 C 
ATOM     20  C   UNL     1       0.912   2.719  19.428  0.00  0.00    +0.000 A 
ATOM     21  S   UNL     1       1.196   3.628  18.001  0.00  0.00    +0.000 S 
ENDBRANCH   3  16
BRANCH   1  22
ATOM     22  C   UNL     1       6.422   5.695  15.793  0.00  0.00    +0.000 C 
BRANCH  22  23
ATOM     23  C   UNL     1       6.618   4.321  15.148  0.00  0.00    +0.000 C 
BRANCH  23  24
ATOM     24  C   UNL     1       5.687   4.142  13.953  0.00  0.00    +0.000 C 
BRANCH  24  25
ATOM     25  C   UNL     1       6.394   3.518  12.750  0.00  0.00    +0.000 C 
BRANCH  25  27
ATOM     26  N   UNL     1       4.330   3.736  11.490  0.00  0.00    +0.000 N 
ATOM     27  C   UNL     1       5.384   2.912  11.791  0.00  0.00    +0.000 C 
ATOM     28  O   UNL     1       5.498   1.778  11.327  0.00  0.00    +0.000 OA
ATOM     29  H   UNL     1       4.243   4.631  11.956  0.00  0.00    +0.000 HD
BRANCH  26  30
ATOM     30  C   UNL     1       3.261   3.300  10.610  0.00  0.00    +0.000 C 
BRANCH  30  32
ATOM     31  C   UNL     1       2.038   4.905   9.077  0.00  0.00    +0.000 C 
ATOM     32  C   UNL     1       3.264   4.025   9.266  0.00  0.00    +0.000 C 
ENDBRANCH  30  32
ENDBRANCH  26  30
ENDBRANCH  25  27
ENDBRANCH  24  25
ENDBRANCH  23  24
ENDBRANCH  22  23
ENDBRANCH   1  22
TORSDOF 9
ENDMDL
MODEL 2
REMARK VINA RESULT:      -8.0      1.113      1.690
REMARK  Name = 
REMARK  11 active torsions:
REMARK  status: ('A' for Active; 'I' for Inactive)
REMARK    1  A    between atoms: C_1  and  C_2
REMARK    2  A    between atoms: C_2  and  C_3
REMARK    3  A    between atoms: C_3  and  N_4
REMARK    4  A    between atoms: C_5  and  C_7
REMARK    5  A    between atoms: C_7  and  C_8
REMARK    6  A    between atoms: C_8  and  C_9
REMARK    7  A    between atoms: C_9  and  C_10
REMARK    8  A    between atoms: C_10  and  C_11
REMARK    9  A    between atoms: C_13  and  C_14
REMARK   10  A    between atoms: C_16  and  C_17
REMARK   11  A    between atoms: C_20  and  C_21
REMARK                            x       y       z     vdW  Elec       q    Type
REMARK                         _______ _______ _______ _____ _____    ______ ____
ROOT
ATOM      1  C   UNL     1       5.688   5.674  16.361  0.00  0.00    +0.000 A 
ATOM      2  N   UNL     1       5.353   4.578  17.003  0.00  0.00    +0.000 NA
ATOM      3  C   UNL     1       4.245   4.911  17.754  0.00  0.00    +0.000 A 
ATOM      4  C   UNL     1       3.960   6.268  17.650  0.00  0.00    +0.000 A 
ATOM      5  N   UNL     1       4.893   6.724  16.744  0.00  0.00    +0.000 N 
ATOM      6  H   UNL     1       5.000   7.681  16.440  0.00  0.00    +0.000 HD
ENDROOT
BRANCH   4   7
ATOM      7  C   UNL     1       3.035   7.150  18.366  0.00  0.00    +0.000 A 
ATOM      8  C   UNL     1       2.613   6.852  19.679  0.00  0.00    +0.000 A 
ATOM      9  C   UNL     1       1.704   7.679  20.353  0.00  0.00    +0.000 A 
ATOM     10  C   UNL     1       1.234   8.793  19.693  0.00  0.00    +0.000 A 
ATOM     11  C   UNL     1       1.638   9.095  18.417  0.00  0.00    +0.000 A 
ATOM     12  C   UNL     1       2.524   8.296  17.731  0.00  0.00    +0.000 A 
ATOM     13  O   UNL     1       1.063  10.232  17.941  0.00  0.00    +0.000 OA
ATOM     14  C   UNL     1       0.197  10.572  19.041  0.00  0.00    +0.000 C 
ATOM     15  O   UNL     1       0.345   9.698  20.181  0.00  0.00    +0.000 OA
ENDBRANCH   4   7
BRANCH   3  16
ATOM     16  C   UNL     1       3.476   3.920  18.577  0.00  0.00    +0.000 A 
ATOM     17  N   UNL     1       2.225   3.605  18.302  0.00  0.00    +0.000 NA
ATOM     18  C   UNL     1       1.741   2.699  19.223  0.00  0.00    +0.000 A 
ATOM     19  C   UNL     1       0.386   2.130  19.016  0.00  0.00    +0.000 C 
ATOM     20  C   UNL     1       2.609   2.417  20.261  0.00  0.00    +0.000 A 
ATOM     21  S   UNL     1       4.131   3.154  19.966  0.00  0.00    +0.000 S 
ENDBRANCH   3  16
BRANCH   1  22
ATOM     22  C   UNL     1       6.767   5.810  15.340  0.00  0.00    +0.000 C 
BRANCH  22  23
ATOM     23  C   UNL     1       7.059   4.470  14.661  0.00  0.00    +0.000 C 
BRANCH  23  24
ATOM     24  C   UNL     1       5.944   4.097  13.689  0.00  0.00    +0.000 C 
BRANCH  24  25
ATOM     25  C   UNL     1       6.476   3.459  12.406  0.00  0.00    +0.000 C 
BRANCH  25  27
ATOM     26  N   UNL     1       4.342   3.697  11.275  0.00  0.00    +0.000 N 
ATOM     27  C   UNL     1       5.346   2.826  11.614  0.00  0.00    +0.000 C 
ATOM     28  O   UNL     1       5.328   1.635  11.305  0.00  0.00    +0.000 OA
ATOM     29  H   UNL     1       4.367   4.650  11.616  0.00  0.00    +0.000 HD
BRANCH  26  30
ATOM     30  C   UNL     1       3.172   3.248  10.540  0.00  0.00    +0.000 C 
BRANCH  30  32
ATOM     31  C   UNL     1       2.106   5.049   9.112  0.00  0.00    +0.000 C 
ATOM     32  C   UNL     1       3.068   3.872   9.150  0.00  0.00    +0.000 C 
ENDBRANCH  30  32
ENDBRANCH  26  30
ENDBRANCH  25  27
ENDBRANCH  24  25
ENDBRANCH  23  24
ENDBRANCH  22  23
ENDBRANCH   1  22
TORSDOF 9
ENDMDL
MODEL 3
REMARK VINA RESULT:      -7.9      1.010      1.628
REMARK  Name = 
REMARK  11 active torsions:
REMARK  status: ('A' for Active; 'I' for Inactive)
REMARK    1  A    between atoms: C_1  and  C_2
REMARK    2  A    between atoms: C_2  and  C_3
REMARK    3  A    between atoms: C_3  and  N_4
REMARK    4  A    between atoms: C_5  and  C_7
REMARK    5  A    between atoms: C_7  and  C_8
REMARK    6  A    between atoms: C_8  and  C_9
REMARK    7  A    between atoms: C_9  and  C_10
REMARK    8  A    between atoms: C_10  and  C_11
REMARK    9  A    between atoms: C_13  and  C_14
REMARK   10  A    between atoms: C_16  and  C_17
REMARK   11  A    between atoms: C_20  and  C_21
REMARK                            x       y       z     vdW  Elec       q    Type
REMARK                         _______ _______ _______ _____ _____    ______ ____
ROOT
ATOM      1  C   UNL     1       5.650   5.240  17.554  0.00  0.00    +0.000 A 
ATOM      2  N   UNL     1       4.994   4.224  18.066  0.00  0.00    +0.000 NA
ATOM      3  C   UNL     1       3.803   4.744  18.525  0.00  0.00    +0.000 A 
ATOM      4  C   UNL     1       3.774   6.127  18.386  0.00  0.00    +0.000 A 
ATOM      5  N   UNL     1       4.964   6.411  17.752  0.00  0.00    +0.000 N 
ATOM      6  H   UNL     1       5.296   7.333  17.507  0.00  0.00    +0.000 HD
ENDROOT
BRANCH   4   7
ATOM      7  C   UNL     1       2.854   7.160  18.870  0.00  0.00    +0.000 A 
ATOM      8  C   UNL     1       2.329   7.111  20.179  0.00  0.00    +0.000 A 
ATOM      9  C   UNL     1       1.424   8.081  20.633  0.00  0.00    +0.000 A 
ATOM     10  C   UNL     1       1.062   9.084  19.759  0.00  0.00    +0.000 A 
ATOM     11  C   UNL     1       1.567   9.143  18.485  0.00  0.00    +0.000 A 
ATOM     12  C   UNL     1       2.450   8.199  18.013  0.00  0.00    +0.000 A 
ATOM     13  O   UNL     1       1.089  10.203  17.781  0.00  0.00    +0.000 OA
ATOM     14  C   UNL     1       0.171  10.767  18.739  0.00  0.00    +0.000 C 
ATOM     15  O   UNL     1       0.194  10.097  20.019  0.00  0.00    +0.000 OA
ENDBRANCH   4   7
BRANCH   3  16
ATOM     16  C   UNL     1       2.704   3.905  19.107  0.00  0.00    +0.000 A 
ATOM     17  N   UNL     1       2.682   3.568  20.382  0.00  0.00    +0.000 NA
ATOM     18  C   UNL     1       1.588   2.772  20.654  0.00  0.00    +0.000 A 
ATOM     19  C   UNL     1       1.322   2.386  22.062  0.00  0.00    +0.000 C 
ATOM     20  C   UNL     1       0.842   2.425  19.543  0.00  0.00    +0.000 A 
ATOM     21  S   UNL     1       1.416   3.272  18.166  0.00  0.00    +0.000 S 
ENDBRANCH   3  16
BRANCH   1  22
ATOM     22  C   UNL     1       6.957   5.183  16.837  0.00  0.00    +0.000 C 
BRANCH  22  23
ATOM     23  C   UNL     1       6.861   5.835  15.457  0.00  0.00    +0.000 C 
BRANCH  23  24
ATOM     24  C   UNL     1       5.819   5.133  14.593  0.00  0.00    +0.000 C 
BRANCH  24  25
ATOM     25  C   UNL     1       6.249   3.723  14.189  0.00  0.00    +0.000 C 
BRANCH  25  27
ATOM     26  N   UNL     1       4.806   3.280  12.288  0.00  0.00    +0.000 N 
ATOM     27  C   UNL     1       6.094   3.524  12.692  0.00  0.00    +0.000 C 
ATOM     28  O   UNL     1       7.041   3.572  11.907  0.00  0.00    +0.000 OA
ATOM     29  H   UNL     1       4.074   3.175  12.980  0.00  0.00    +0.000 HD
BRANCH  26  30
ATOM     30  C   UNL     1       4.488   3.038  10.892  0.00  0.00    +0.000 C 
BRANCH  30  32
ATOM     31  C   UNL     1       2.872   4.337   9.435  0.00  0.00    +0.000 C 
ATOM     32  C   UNL     1       3.025   3.323  10.558  0.00  0.00    +0.000 C 
ENDBRANCH  30  32
ENDBRANCH  26  30
ENDBRANCH  25  27
ENDBRANCH  24  25
ENDBRANCH  23  24
ENDBRANCH  22  23
ENDBRANCH   1  22
TORSDOF 9
ENDMDL
MODEL 4
REMARK VINA RESULT:      -7.8      0.915      1.098
REMARK  Name = 
REMARK  11 active torsions:
REMARK  status: ('A' for Active; 'I' for Inactive)
REMARK    1  A    between atoms: C_1  and  C_2
REMARK    2  A    between atoms: C_2  and  C_3
REMARK    3  A    between atoms: C_3  and  N_4
REMARK    4  A    between atoms: C_5  and  C_7
REMARK    5  A    between atoms: C_7  and  C_8
REMARK    6  A    between atoms: C_8  and  C_9
REMARK    7  A    between atoms: C_9  and  C_10
REMARK    8  A    between atoms: C_10  and  C_11
REMARK    9  A    between atoms: C_13  and  C_14
REMARK   10  A    between atoms: C_16  and  C_17
REMARK   11  A    between atoms: C_20  and  C_21
REMARK                            x       y       z     vdW  Elec       q    Type
REMARK                         _______ _______ _______ _____ _____    ______ ____
ROOT
ATOM      1  C   UNL     1       5.480   6.135  17.435  0.00  0.00    +0.000 A 
ATOM      2  N   UNL     1       4.925   5.051  17.930  0.00  0.00    +0.000 NA
ATOM      3  C   UNL     1       3.672   5.438  18.358  0.00  0.00    +0.000 A 
ATOM      4  C   UNL     1       3.497   6.810  18.218  0.00  0.00    +0.000 A 
ATOM      5  N   UNL     1       4.665   7.224  17.616  0.00  0.00    +0.000 N 
ATOM      6  H   UNL     1       4.900   8.177  17.380  0.00  0.00    +0.000 HD
ENDROOT
BRANCH   4   7
ATOM      7  C   UNL     1       2.457   7.734  18.679  0.00  0.00    +0.000 A 
ATOM      8  C   UNL     1       1.859   8.657  17.793  0.00  0.00    +0.000 A 
ATOM      9  C   UNL     1       0.887   9.563  18.239  0.00  0.00    +0.000 A 
ATOM     10  C   UNL     1       0.534   9.525  19.571  0.00  0.00    +0.000 A 
ATOM     11  C   UNL     1       1.106   8.633  20.441  0.00  0.00    +0.000 A 
ATOM     12  C   UNL     1       2.068   7.738  20.030  0.00  0.00    +0.000 A 
ATOM     13  O   UNL     1       0.626   8.755  21.707  0.00  0.00    +0.000 OA
ATOM     14  C   UNL     1      -0.266   9.874  21.547  0.00  0.00    +0.000 C 
ATOM     15  O   UNL     1      -0.375  10.330  20.181  0.00  0.00    +0.000 OA
ENDBRANCH   4   7
BRANCH   3  16
ATOM     16  C   UNL     1       2.657   4.482  18.910  0.00  0.00    +0.000 A 
ATOM     17  N   UNL     1       2.717   4.038  20.151  0.00  0.00    +0.000 NA
ATOM     18  C   UNL     1       1.688   3.152  20.399  0.00  0.00    +0.000 A 
ATOM     19  C   UNL     1       1.515   2.632  21.778  0.00  0.00    +0.000 C 
ATOM     20  C   UNL     1       0.914   2.851  19.295  0.00  0.00    +0.000 A 
ATOM     21  S   UNL     1       1.367   3.847  17.973  0.00  0.00    +0.000 S 
ENDBRANCH   3  16
BRANCH   1  22
ATOM     22  C   UNL     1       6.802   6.222  16.753  0.00  0.00    +0.000 C 
BRANCH  22  23
ATOM     23  C   UNL     1       7.162   4.902  16.070  0.00  0.00    +0.000 C 
BRANCH  23  24
ATOM     24  C   UNL     1       6.511   4.804  14.694  0.00  0.00    +0.000 C 
BRANCH  24  25
ATOM     25  C   UNL     1       7.323   3.947  13.723  0.00  0.00    +0.000 C 
BRANCH  25  27
ATOM     26  N   UNL     1       5.588   2.918  12.372  0.00  0.00    +0.000 N 
ATOM     27  C   UNL     1       6.611   3.832  12.387  0.00  0.00    +0.000 C 
ATOM     28  O   UNL     1       6.925   4.497  11.400  0.00  0.00    +0.000 OA
ATOM     29  H   UNL     1       5.418   2.342  13.187  0.00  0.00    +0.000 HD
BRANCH  26  30
ATOM     30  C   UNL     1       4.823   2.664  11.164  0.00  0.00    +0.000 C 
BRANCH  30  32
ATOM     31  C   UNL     1       3.147   3.830   9.663  0.00  0.00    +0.000 C 
ATOM     32  C   UNL     1       3.537   3.487  11.092  0.00  0.00    +0.000 C 
ENDBRANCH  30  32
ENDBRANCH  26  30
ENDBRANCH  25  27
ENDBRANCH  24  25
ENDBRANCH  23  24
ENDBRANCH  22  23
ENDBRANCH   1  22
TORSDOF 9
ENDMDL
MODEL 5
REMARK VINA RESULT:      -7.7      4.038      6.581
REMARK  Name = 
REMARK  11 active torsions:
REMARK  status: ('A' for Active; 'I' for Inactive)
REMARK    1  A    between atoms: C_1  and  C_2
REMARK    2  A    between atoms: C_2  and  C_3
REMARK    3  A    between atoms: C_3  and  N_4
REMARK    4  A    between atoms: C_5  and  C_7
REMARK    5  A    between atoms: C_7  and  C_8
REMARK    6  A    between atoms: C_8  and  C_9
REMARK    7  A    between atoms: C_9  and  C_10
REMARK    8  A    between atoms: C_10  and  C_11
REMARK    9  A    between atoms: C_13  and  C_14
REMARK   10  A    between atoms: C_16  and  C_17
REMARK   11  A    between atoms: C_20  and  C_21
REMARK                            x       y       z     vdW  Elec       q    Type
REMARK                         _______ _______ _______ _____ _____    ______ ____
ROOT
ATOM      1  C   UNL     1       5.384   6.354  17.345  0.00  0.00    +0.000 A 
ATOM      2  N   UNL     1       4.847   5.238  17.785  0.00  0.00    +0.000 NA
ATOM      3  C   UNL     1       3.597   5.586  18.252  0.00  0.00    +0.000 A 
ATOM      4  C   UNL     1       3.406   6.961  18.194  0.00  0.00    +0.000 A 
ATOM      5  N   UNL     1       4.561   7.422  17.600  0.00  0.00    +0.000 N 
ATOM      6  H   UNL     1       4.783   8.390  17.417  0.00  0.00    +0.000 HD
ENDROOT
BRANCH   4   7
ATOM      7  C   UNL     1       2.364   7.847  18.722  0.00  0.00    +0.000 A 
ATOM      8  C   UNL     1       1.747   8.815  17.901  0.00  0.00    +0.000 A 
ATOM      9  C   UNL     1       0.773   9.683  18.412  0.00  0.00    +0.000 A 
ATOM     10  C   UNL     1       0.437   9.563  19.743  0.00  0.00    +0.000 A 
ATOM     11  C   UNL     1       1.028   8.626  20.551  0.00  0.00    +0.000 A 
ATOM     12  C   UNL     1       1.992   7.767  20.075  0.00  0.00    +0.000 A 
ATOM     13  O   UNL     1       0.563   8.667  21.828  0.00  0.00    +0.000 OA
ATOM     14  C   UNL     1      -0.341   9.786  21.746  0.00  0.00    +0.000 C 
ATOM     15  O   UNL     1      -0.472  10.322  20.411  0.00  0.00    +0.000 OA
ENDBRANCH   4   7
BRANCH   3  16
ATOM     16  C   UNL     1       2.599   4.589  18.763  0.00  0.00    +0.000 A 
ATOM     17  N   UNL     1       2.609   4.168  20.013  0.00  0.00    +0.000 NA
ATOM     18  C   UNL     1       1.613   3.235  20.218  0.00  0.00    +0.000 A 
ATOM     19  C   UNL     1       1.385   2.729  21.594  0.00  0.00    +0.000 C 
ATOM     20  C   UNL     1       0.919   2.879  19.077  0.00  0.00    +0.000 A 
ATOM     21  S   UNL     1       1.398   3.876  17.765  0.00  0.00    +0.000 S 
ENDBRANCH   3  16
BRANCH   1  22
ATOM     22  C   UNL     1       6.695   6.495  16.651  0.00  0.00    +0.000 C 
BRANCH  22  23
ATOM     23  C   UNL     1       7.787   6.959  17.617  0.00  0.00    +0.000 C 
BRANCH  23  24
ATOM     24  C   UNL     1       7.876   8.481  17.648  0.00  0.00    +0.000 C 
BRANCH  24  25
ATOM     25  C   UNL     1       8.782   8.991  18.769  0.00  0.00    +0.000 C 
BRANCH  25  27
ATOM     26  N   UNL     1       9.899  10.999  19.549  0.00  0.00    +0.000 N 
ATOM     27  C   UNL     1       9.050  10.477  18.608  0.00  0.00    +0.000 C 
ATOM     28  O   UNL     1       8.546  11.156  17.714  0.00  0.00    +0.000 OA
ATOM     29  H   UNL     1      10.228  10.416  20.309  0.00  0.00    +0.000 HD
BRANCH  26  30
ATOM     30  C   UNL     1      10.238  12.412  19.556  0.00  0.00    +0.000 C 
BRANCH  30  32
ATOM     31  C   UNL     1      10.186  14.262  21.287  0.00  0.00    +0.000 C 
ATOM     32  C   UNL     1       9.379  13.224  20.523  0.00  0.00    +0.000 C 
ENDBRANCH  30  32
ENDBRANCH  26  30
ENDBRANCH  25  27
ENDBRANCH  24  25
ENDBRANCH  23  24
ENDBRANCH  22  23
ENDBRANCH   1  22
TORSDOF 9
ENDMDL
MODEL 6
REMARK VINA RESULT:      -7.6      3.561      7.878
REMARK  Name = 
REMARK  11 active torsions:
REMARK  status: ('A' for Active; 'I' for Inactive)
REMARK    1  A    between atoms: C_1  and  C_2
REMARK    2  A    between atoms: C_2  and  C_3
REMARK    3  A    between atoms: C_3  and  N_4
REMARK    4  A    between atoms: C_5  and  C_7
REMARK    5  A    between atoms: C_7  and  C_8
REMARK    6  A    between atoms: C_8  and  C_9
REMARK    7  A    between atoms: C_9  and  C_10
REMARK    8  A    between atoms: C_10  and  C_11
REMARK    9  A    between atoms: C_13  and  C_14
REMARK   10  A    between atoms: C_16  and  C_17
REMARK   11  A    between atoms: C_20  and  C_21
REMARK                            x       y       z     vdW  Elec       q    Type
REMARK                         _______ _______ _______ _____ _____    ______ ____
ROOT
ATOM      1  C   UNL     1       2.527   8.930  17.822  0.00  0.00    +0.000 A 
ATOM      2  N   UNL     1       3.708   8.562  17.379  0.00  0.00    +0.000 NA
ATOM      3  C   UNL     1       3.764   7.196  17.558  0.00  0.00    +0.000 A 
ATOM      4  C   UNL     1       2.635   6.732  18.222  0.00  0.00    +0.000 A 
ATOM      5  N   UNL     1       1.859   7.863  18.367  0.00  0.00    +0.000 N 
ATOM      6  H   UNL     1       0.963   7.907  18.831  0.00  0.00    +0.000 HD
ENDROOT
BRANCH   4   7
ATOM      7  C   UNL     1       2.285   5.436  18.810  0.00  0.00    +0.000 A 
ATOM      8  C   UNL     1       1.729   4.405  18.022  0.00  0.00    +0.000 A 
ATOM      9  C   UNL     1       1.366   3.177  18.590  0.00  0.00    +0.000 A 
ATOM     10  C   UNL     1       1.567   3.006  19.942  0.00  0.00    +0.000 A 
ATOM     11  C   UNL     1       2.107   3.999  20.718  0.00  0.00    +0.000 A 
ATOM     12  C   UNL     1       2.466   5.217  20.187  0.00  0.00    +0.000 A 
ATOM     13  O   UNL     1       2.224   3.639  22.024  0.00  0.00    +0.000 OA
ATOM     14  C   UNL     1       1.631   2.327  21.992  0.00  0.00    +0.000 C 
ATOM     15  O   UNL     1       1.266   1.894  20.663  0.00  0.00    +0.000 OA
ENDBRANCH   4   7
BRANCH   3  16
ATOM     16  C   UNL     1       4.913   6.349  17.097  0.00  0.00    +0.000 A 
ATOM     17  N   UNL     1       5.050   5.982  15.838  0.00  0.00    +0.000 NA
ATOM     18  C   UNL     1       6.167   5.186  15.684  0.00  0.00    +0.000 A 
ATOM     19  C   UNL     1       6.559   4.768  14.315  0.00  0.00    +0.000 C 
ATOM     20  C   UNL     1       6.810   4.867  16.865  0.00  0.00    +0.000 A 
ATOM     21  S   UNL     1       6.112   5.743  18.165  0.00  0.00    +0.000 S 
ENDBRANCH   3  16
BRANCH   1  22
ATOM     22  C   UNL     1       1.942  10.299  17.758  0.00  0.00    +0.000 C 
BRANCH  22  23
ATOM     23  C   UNL     1       0.679  10.403  18.615  0.00  0.00    +0.000 C 
BRANCH  23  24
ATOM     24  C   UNL     1       0.574  11.779  19.266  0.00  0.00    +0.000 C 
BRANCH  24  25
ATOM     25  C   UNL     1      -0.380  12.708  18.515  0.00  0.00    +0.000 C 
BRANCH  25  27
ATOM     26  N   UNL     1      -2.028  11.687  17.054  0.00  0.00    +0.000 N 
ATOM     27  C   UNL     1      -1.740  12.055  18.344  0.00  0.00    +0.000 C 
ATOM     28  O   UNL     1      -2.520  11.874  19.279  0.00  0.00    +0.000 OA
ATOM     29  H   UNL     1      -1.386  11.926  16.309  0.00  0.00    +0.000 HD
BRANCH  26  30
ATOM     30  C   UNL     1      -3.300  11.075  16.712  0.00  0.00    +0.000 C 
BRANCH  30  32
ATOM     31  C   UNL     1      -3.237  10.211  14.331  0.00  0.00    +0.000 C 
ATOM     32  C   UNL     1      -3.147   9.855  15.806  0.00  0.00    +0.000 C 
ENDBRANCH  30  32
ENDBRANCH  26  30
ENDBRANCH  25  27
ENDBRANCH  24  25
ENDBRANCH  23  24
ENDBRANCH  22  23
ENDBRANCH   1  22
TORSDOF 9
ENDMDL
MODEL 7
REMARK VINA RESULT:      -7.6      1.911      2.515
REMARK  Name = 
REMARK  11 active torsions:
REMARK  status: ('A' for Active; 'I' for Inactive)
REMARK    1  A    between atoms: C_1  and  C_2
REMARK    2  A    between atoms: C_2  and  C_3
REMARK    3  A    between atoms: C_3  and  N_4
REMARK    4  A    between atoms: C_5  and  C_7
REMARK    5  A    between atoms: C_7  and  C_8
REMARK    6  A    between atoms: C_8  and  C_9
REMARK    7  A    between atoms: C_9  and  C_10
REMARK    8  A    between atoms: C_10  and  C_11
REMARK    9  A    between atoms: C_13  and  C_14
REMARK   10  A    between atoms: C_16  and  C_17
REMARK   11  A    between atoms: C_20  and  C_21
REMARK                            x       y       z     vdW  Elec       q    Type
REMARK                         _______ _______ _______ _____ _____    ______ ____
ROOT
ATOM      1  C   UNL     1       4.798   6.442  17.196  0.00  0.00    +0.000 A 
ATOM      2  N   UNL     1       4.349   5.303  17.673  0.00  0.00    +0.000 NA
ATOM      3  C   UNL     1       3.209   5.620  18.380  0.00  0.00    +0.000 A 
ATOM      4  C   UNL     1       3.014   6.996  18.425  0.00  0.00    +0.000 A 
ATOM      5  N   UNL     1       4.040   7.491  17.650  0.00  0.00    +0.000 N 
ATOM      6  H   UNL     1       4.226   8.469  17.475  0.00  0.00    +0.000 HD
ENDROOT
BRANCH   4   7
ATOM      7  C   UNL     1       2.090   7.848  19.179  0.00  0.00    +0.000 A 
ATOM      8  C   UNL     1       1.784   7.575  20.529  0.00  0.00    +0.000 A 
ATOM      9  C   UNL     1       0.877   8.371  21.242  0.00  0.00    +0.000 A 
ATOM     10  C   UNL     1       0.292   9.430  20.582  0.00  0.00    +0.000 A 
ATOM     11  C   UNL     1       0.583   9.707  19.270  0.00  0.00    +0.000 A 
ATOM     12  C   UNL     1       1.464   8.937  18.547  0.00  0.00    +0.000 A 
ATOM     13  O   UNL     1      -0.095  10.789  18.801  0.00  0.00    +0.000 OA
ATOM     14  C   UNL     1      -0.898  11.119  19.951  0.00  0.00    +0.000 C 
ATOM     15  O   UNL     1      -0.613  10.298  21.105  0.00  0.00    +0.000 OA
ENDBRANCH   4   7
BRANCH   3  16
ATOM     16  C   UNL     1       2.320   4.594  19.019  0.00  0.00    +0.000 A 
ATOM     17  N   UNL     1       2.498   4.194  20.264  0.00  0.00    +0.000 NA
ATOM     18  C   UNL     1       1.571   3.226  20.598  0.00  0.00    +0.000 A 
ATOM     19  C   UNL     1       1.532   2.733  21.997  0.00  0.00    +0.000 C 
ATOM     20  C   UNL     1       0.761   2.825  19.553  0.00  0.00    +0.000 A 
ATOM     21  S   UNL     1       1.039   3.818  18.182  0.00  0.00    +0.000 S 
ENDBRANCH   3  16
BRANCH   1  22
ATOM     22  C   UNL     1       5.958   6.624  16.278  0.00  0.00    +0.000 C 
BRANCH  22  23
ATOM     23  C   UNL     1       7.225   5.989  16.853  0.00  0.00    +0.000 C 
BRANCH  23  24
ATOM     24  C   UNL     1       7.607   4.734  16.075  0.00  0.00    +0.000 C 
BRANCH  24  25
ATOM     25  C   UNL     1       6.452   4.195  15.231  0.00  0.00    +0.000 C 
BRANCH  25  27
ATOM     26  N   UNL     1       6.335   3.214  13.014  0.00  0.00    +0.000 N 
ATOM     27  C   UNL     1       6.784   4.279  13.752  0.00  0.00    +0.000 C 
ATOM     28  O   UNL     1       7.406   5.219  13.257  0.00  0.00    +0.000 OA
ATOM     29  H   UNL     1       5.894   2.430  13.479  0.00  0.00    +0.000 HD
BRANCH  26  30
ATOM     30  C   UNL     1       6.593   3.124  11.587  0.00  0.00    +0.000 C 
BRANCH  30  32
ATOM     31  C   UNL     1       6.171   0.676  11.091  0.00  0.00    +0.000 C 
ATOM     32  C   UNL     1       7.206   1.787  11.178  0.00  0.00    +0.000 C 
ENDBRANCH  30  32
ENDBRANCH  26  30
ENDBRANCH  25  27
ENDBRANCH  24  25
ENDBRANCH  23  24
ENDBRANCH  22  23
ENDBRANCH   1  22
TORSDOF 9
ENDMDL
MODEL 8
REMARK VINA RESULT:      -7.5      4.050      5.906
REMARK  Name = 
REMARK  11 active torsions:
REMARK  status: ('A' for Active; 'I' for Inactive)
REMARK    1  A    between atoms: C_1  and  C_2
REMARK    2  A    between atoms: C_2  and  C_3
REMARK    3  A    between atoms: C_3  and  N_4
REMARK    4  A    between atoms: C_5  and  C_7
REMARK    5  A    between atoms: C_7  and  C_8
REMARK    6  A    between atoms: C_8  and  C_9
REMARK    7  A    between atoms: C_9  and  C_10
REMARK    8  A    between atoms: C_10  and  C_11
REMARK    9  A    between atoms: C_13  and  C_14
REMARK   10  A    between atoms: C_16  and  C_17
REMARK   11  A    between atoms: C_20  and  C_21
REMARK                            x       y       z     vdW  Elec       q    Type
REMARK                         _______ _______ _______ _____ _____    ______ ____
ROOT
ATOM      1  C   UNL     1       5.208   6.498  17.352  0.00  0.00    +0.000 A 
ATOM      2  N   UNL     1       4.702   5.373  17.803  0.00  0.00    +0.000 NA
ATOM      3  C   UNL     1       3.463   5.700  18.311  0.00  0.00    +0.000 A 
ATOM      4  C   UNL     1       3.249   7.072  18.264  0.00  0.00    +0.000 A 
ATOM      5  N   UNL     1       4.378   7.552  17.636  0.00  0.00    +0.000 N 
ATOM      6  H   UNL     1       4.579   8.524  17.449  0.00  0.00    +0.000 HD
ENDROOT
BRANCH   4   7
ATOM      7  C   UNL     1       2.211   7.940  18.827  0.00  0.00    +0.000 A 
ATOM      8  C   UNL     1       1.541   8.889  18.026  0.00  0.00    +0.000 A 
ATOM      9  C   UNL     1       0.571   9.741  18.570  0.00  0.00    +0.000 A 
ATOM     10  C   UNL     1       0.291   9.624  19.914  0.00  0.00    +0.000 A 
ATOM     11  C   UNL     1       0.933   8.704  20.703  0.00  0.00    +0.000 A 
ATOM     12  C   UNL     1       1.895   7.862  20.195  0.00  0.00    +0.000 A 
ATOM     13  O   UNL     1       0.518   8.745  21.998  0.00  0.00    +0.000 OA
ATOM     14  C   UNL     1      -0.411   9.844  21.945  0.00  0.00    +0.000 C 
ATOM     15  O   UNL     1      -0.606  10.368  20.613  0.00  0.00    +0.000 OA
ENDBRANCH   4   7
BRANCH   3  16
ATOM     16  C   UNL     1       2.497   4.686  18.849  0.00  0.00    +0.000 A 
ATOM     17  N   UNL     1       2.533   4.284  20.105  0.00  0.00    +0.000 NA
ATOM     18  C   UNL     1       1.563   3.330  20.336  0.00  0.00    +0.000 A 
ATOM     19  C   UNL     1       1.365   2.839  21.723  0.00  0.00    +0.000 C 
ATOM     20  C   UNL     1       0.864   2.939  19.210  0.00  0.00    +0.000 A 
ATOM     21  S   UNL     1       1.302   3.928  17.877  0.00  0.00    +0.000 S 
ENDBRANCH   3  16
BRANCH   1  22
ATOM     22  C   UNL     1       6.495   6.661  16.617  0.00  0.00    +0.000 C 
BRANCH  22  23
ATOM     23  C   UNL     1       7.686   6.260  17.489  0.00  0.00    +0.000 C 
BRANCH  23  24
ATOM     24  C   UNL     1       8.129   7.422  18.374  0.00  0.00    +0.000 C 
BRANCH  24  25
ATOM     25  C   UNL     1       7.977   8.775  17.681  0.00  0.00    +0.000 C 
BRANCH  25  27
ATOM     26  N   UNL     1       8.714  11.083  17.834  0.00  0.00    +0.000 N 
ATOM     27  C   UNL     1       8.728   9.854  18.442  0.00  0.00    +0.000 C 
ATOM     28  O   UNL     1       9.305   9.644  19.508  0.00  0.00    +0.000 OA
ATOM     29  H   UNL     1       8.290  11.187  16.920  0.00  0.00    +0.000 HD
BRANCH  26  30
ATOM     30  C   UNL     1       9.409  12.218  18.414  0.00  0.00    +0.000 C 
BRANCH  30  32
ATOM     31  C   UNL     1       7.742  14.105  18.130  0.00  0.00    +0.000 C 
ATOM     32  C   UNL     1       9.088  13.535  17.711  0.00  0.00    +0.000 C 
ENDBRANCH  30  32
ENDBRANCH  26  30
ENDBRANCH  25  27
ENDBRANCH  24  25
ENDBRANCH  23  24
ENDBRANCH  22  23
ENDBRANCH   1  22
TORSDOF 9
ENDMDL
MODEL 9
REMARK VINA RESULT:      -7.5      4.143      6.052
REMARK  Name = 
REMARK  11 active torsions:
REMARK  status: ('A' for Active; 'I' for Inactive)
REMARK    1  A    between atoms: C_1  and  C_2
REMARK    2  A    between atoms: C_2  and  C_3
REMARK    3  A    between atoms: C_3  and  N_4
REMARK    4  A    between atoms: C_5  and  C_7
REMARK    5  A    between atoms: C_7  and  C_8
REMARK    6  A    between atoms: C_8  and  C_9
REMARK    7  A    between atoms: C_9  and  C_10
REMARK    8  A    between atoms: C_10  and  C_11
REMARK    9  A    between atoms: C_13  and  C_14
REMARK   10  A    between atoms: C_16  and  C_17
REMARK   11  A    between atoms: C_20  and  C_21
REMARK                            x       y       z     vdW  Elec       q    Type
REMARK                         _______ _______ _______ _____ _____    ______ ____
ROOT
ATOM      1  C   UNL     1       5.167   6.543  17.456  0.00  0.00    +0.000 A 
ATOM      2  N   UNL     1       4.672   5.397  17.866  0.00  0.00    +0.000 NA
ATOM      3  C   UNL     1       3.444   5.698  18.417  0.00  0.00    +0.000 A 
ATOM      4  C   UNL     1       3.229   7.071  18.439  0.00  0.00    +0.000 A 
ATOM      5  N   UNL     1       4.343   7.581  17.808  0.00  0.00    +0.000 N 
ATOM      6  H   UNL     1       4.539   8.561  17.662  0.00  0.00    +0.000 HD
ENDROOT
BRANCH   4   7
ATOM      7  C   UNL     1       2.203   7.909  19.065  0.00  0.00    +0.000 A 
ATOM      8  C   UNL     1       1.839   7.727  20.416  0.00  0.00    +0.000 A 
ATOM      9  C   UNL     1       0.836   8.508  21.008  0.00  0.00    +0.000 A 
ATOM     10  C   UNL     1       0.216   9.459  20.227  0.00  0.00    +0.000 A 
ATOM     11  C   UNL     1       0.562   9.647  18.914  0.00  0.00    +0.000 A 
ATOM     12  C   UNL     1       1.537   8.889  18.308  0.00  0.00    +0.000 A 
ATOM     13  O   UNL     1      -0.164  10.629  18.316  0.00  0.00    +0.000 OA
ATOM     14  C   UNL     1      -1.055  10.992  19.389  0.00  0.00    +0.000 C 
ATOM     15  O   UNL     1      -0.780  10.295  20.624  0.00  0.00    +0.000 OA
ENDBRANCH   4   7
BRANCH   3  16
ATOM     16  C   UNL     1       2.491   4.658  18.929  0.00  0.00    +0.000 A 
ATOM     17  N   UNL     1       2.538   4.219  20.171  0.00  0.00    +0.000 NA
ATOM     18  C   UNL     1       1.579   3.248  20.379  0.00  0.00    +0.000 A 
ATOM     19  C   UNL     1       1.394   2.713  21.750  0.00  0.00    +0.000 C 
ATOM     20  C   UNL     1       0.878   2.885  19.244  0.00  0.00    +0.000 A 
ATOM     21  S   UNL     1       1.299   3.918  17.940  0.00  0.00    +0.000 S 
ENDBRANCH   3  16
BRANCH   1  22
ATOM     22  C   UNL     1       6.437   6.742  16.701  0.00  0.00    +0.000 C 
BRANCH  22  23
ATOM     23  C   UNL     1       7.649   6.323  17.535  0.00  0.00    +0.000 C 
BRANCH  23  24
ATOM     24  C   UNL     1       8.106   7.460  18.443  0.00  0.00    +0.000 C 
BRANCH  24  25
ATOM     25  C   UNL     1       8.017   8.825  17.761  0.00  0.00    +0.000 C 
BRANCH  25  27
ATOM     26  N   UNL     1       9.361  10.845  17.678  0.00  0.00    +0.000 N 
ATOM     27  C   UNL     1       8.882   9.843  18.483  0.00  0.00    +0.000 C 
ATOM     28  O   UNL     1       9.137   9.774  19.685  0.00  0.00    +0.000 OA
ATOM     29  H   UNL     1       9.186  10.815  16.681  0.00  0.00    +0.000 HD
BRANCH  26  30
ATOM     30  C   UNL     1      10.228  11.884  18.205  0.00  0.00    +0.000 C 
BRANCH  30  32
ATOM     31  C   UNL     1       8.147  13.229  17.673  0.00  0.00    +0.000 C 
ATOM     32  C   UNL     1       9.558  13.256  18.240  0.00  0.00    +0.000 C 
ENDBRANCH  30  32
ENDBRANCH  26  30
ENDBRANCH  25  27
ENDBRANCH  24  25
ENDBRANCH  23  24
ENDBRANCH  22  23
ENDBRANCH   1  22
TORSDOF 9
ENDMDL
