MODEL 1
REMARK VINA RESULT:      -9.0      0.000      0.000
REMARK  Name = 
REMARK  4 active torsions:
REMARK  status: ('A' for Active; 'I' for Inactive)
REMARK    1  A    between atoms: C_1  and  C_2
REMARK    2  A    between atoms: C_7  and  C_8
REMARK    3  A    between atoms: C_14  and  C_15
REMARK    4  A    between atoms: C_15  and  C_16
REMARK                            x       y       z     vdW  Elec       q    Type
REMARK                         _______ _______ _______ _____ _____    ______ ____
ROOT
ATOM      1  C   UNL     1       3.910   4.141  17.554  0.00  0.00    +0.000 A 
ATOM      2  C   UNL     1       3.102   2.904  17.252  0.00  0.00    +0.000 A 
ATOM      3  C   UNL     1       2.022   2.653  18.002  0.00  0.00    +0.000 A 
ATOM      4  C   UNL     1       1.705   3.520  19.058  0.00  0.00    +0.000 A 
ATOM      5  N   UNL     1       0.731   3.528  19.932  0.00  0.00    +0.000 NA
ATOM      6  N   UNL     1       0.859   4.663  20.688  0.00  0.00    +0.000 NA
ATOM      7  C   UNL     1       1.941   5.310  20.288  0.00  0.00    +0.000 A 
ATOM      8  N   UNL     1       2.530   4.617  19.250  0.00  0.00    +0.000 N 
ATOM      9  N   UNL     1       3.631   4.965  18.524  0.00  0.00    +0.000 NA
ENDROOT
BRANCH   1  16
ATOM     10  C   UNL     1       6.642   5.000  18.586  0.00  0.00    +0.000 C 
ATOM     11  C   UNL     1       6.341   4.795  17.126  0.00  0.00    +0.000 A 
ATOM     12  C   UNL     1       7.381   5.019  16.201  0.00  0.00    +0.000 A 
ATOM     13  C   UNL     1       7.186   4.838  14.833  0.00  0.00    +0.000 A 
ATOM     14  C   UNL     1       5.942   4.449  14.357  0.00  0.00    +0.000 A 
ATOM     15  C   UNL     1       4.892   4.247  15.254  0.00  0.00    +0.000 A 
ATOM     16  C   UNL     1       5.076   4.394  16.642  0.00  0.00    +0.000 A 
ENDBRANCH   1  16
BRANCH   7  17
ATOM     17  C   UNL     1       2.368   6.658  20.721  0.00  0.00    +0.000 C 
BRANCH  17  18
ATOM     18  C   UNL     1       1.350   7.784  20.636  0.00  0.00    +0.000 A 
ATOM     19  C   UNL     1       0.568   8.029  21.792  0.00  0.00    +0.000 A 
ATOM     20  C   UNL     1      -0.242   9.164  21.912  0.00  0.00    +0.000 A 
ATOM     21  C   UNL     1      -0.237  10.115  20.904  0.00  0.00    +0.000 A 
ATOM     22  C   UNL     1       0.553   9.911  19.775  0.00  0.00    +0.000 A 
ATOM     23  C   UNL     1       0.827  11.067  18.888  0.00  0.00    +0.000 A 
ATOM     24  O   UNL     1       0.258  12.152  19.025  0.00  0.00    +0.000 OA
ATOM     25  N   UNL     1       1.821  10.887  17.955  0.00  0.00    +0.000 N 
ATOM     26  C   UNL     1       2.275   9.656  17.570  0.00  0.00    +0.000 A 
ATOM     27  C   UNL     1       2.000   8.567  18.303  0.00  0.00    +0.000 A 
ATOM     28  C   UNL     1       1.287   8.714  19.577  0.00  0.00    +0.000 A 
ATOM     29  H   UNL     1       2.166  11.722  17.498  0.00  0.00    +0.000 HD
ENDBRANCH  17  18
ENDBRANCH   7  17
TORSDOF 3
ENDMDL
MODEL 2
REMARK VINA RESULT:      -8.9      1.045      2.006
REMARK  Name = 
REMARK  4 active torsions:
REMARK  status: ('A' for Active; 'I' for Inactive)
REMARK    1  A    between atoms: C_1  and  C_2
REMARK    2  A    between atoms: C_7  and  C_8
REMARK    3  A    between atoms: C_14  and  C_15
REMARK    4  A    between atoms: C_15  and  C_16
REMARK                            x       y       z     vdW  Elec       q    Type
REMARK                         _______ _______ _______ _____ _____    ______ ____
ROOT
ATOM      1  C   UNL     1       3.936   4.037  17.548  0.00  0.00    +0.000 A 
ATOM      2  C   UNL     1       3.108   2.839  17.158  0.00  0.00    +0.000 A 
ATOM      3  C   UNL     1       2.006   2.571  17.867  0.00  0.00    +0.000 A 
ATOM      4  C   UNL     1       1.682   3.383  18.964  0.00  0.00    +0.000 A 
ATOM      5  N   UNL     1       0.687   3.364  19.814  0.00  0.00    +0.000 NA
ATOM      6  N   UNL     1       0.822   4.451  20.637  0.00  0.00    +0.000 NA
ATOM      7  C   UNL     1       1.928   5.094  20.300  0.00  0.00    +0.000 A 
ATOM      8  N   UNL     1       2.526   4.448  19.237  0.00  0.00    +0.000 N 
ATOM      9  N   UNL     1       3.651   4.811  18.558  0.00  0.00    +0.000 NA
ENDROOT
BRANCH   1  16
ATOM     10  C   UNL     1       6.569   5.082  18.664  0.00  0.00    +0.000 C 
ATOM     11  C   UNL     1       6.348   4.802  17.202  0.00  0.00    +0.000 A 
ATOM     12  C   UNL     1       7.417   5.043  16.316  0.00  0.00    +0.000 A 
ATOM     13  C   UNL     1       7.296   4.797  14.949  0.00  0.00    +0.000 A 
ATOM     14  C   UNL     1       6.097   4.323  14.436  0.00  0.00    +0.000 A 
ATOM     15  C   UNL     1       5.018   4.102  15.292  0.00  0.00    +0.000 A 
ATOM     16  C   UNL     1       5.129   4.315  16.680  0.00  0.00    +0.000 A 
ENDBRANCH   1  16
BRANCH   7  17
ATOM     17  C   UNL     1       2.374   6.405  20.819  0.00  0.00    +0.000 C 
BRANCH  17  18
ATOM     18  C   UNL     1       2.013   7.644  20.015  0.00  0.00    +0.000 A 
ATOM     19  C   UNL     1       2.225   7.585  18.616  0.00  0.00    +0.000 A 
ATOM     20  C   UNL     1       1.737   8.570  17.750  0.00  0.00    +0.000 A 
ATOM     21  C   UNL     1       0.964   9.602  18.257  0.00  0.00    +0.000 A 
ATOM     22  C   UNL     1       0.711   9.659  19.627  0.00  0.00    +0.000 A 
ATOM     23  C   UNL     1      -0.383  10.535  20.106  0.00  0.00    +0.000 A 
ATOM     24  O   UNL     1      -0.966  11.328  19.363  0.00  0.00    +0.000 OA
ATOM     25  N   UNL     1      -0.773  10.352  21.411  0.00  0.00    +0.000 N 
ATOM     26  C   UNL     1       0.000   9.716  22.343  0.00  0.00    +0.000 A 
ATOM     27  C   UNL     1       1.042   8.962  21.965  0.00  0.00    +0.000 A 
ATOM     28  C   UNL     1       1.297   8.743  20.537  0.00  0.00    +0.000 A 
ATOM     29  H   UNL     1      -1.650  10.780  21.684  0.00  0.00    +0.000 HD
ENDBRANCH  17  18
ENDBRANCH   7  17
TORSDOF 3
ENDMDL
MODEL 3
REMARK VINA RESULT:      -8.6      3.160      8.192
REMARK  Name = 
REMARK  4 active torsions:
REMARK  status: ('A' for Active; 'I' for Inactive)
REMARK    1  A    between atoms: C_1  and  C_2
REMARK    2  A    between atoms: C_7  and  C_8
REMARK    3  A    between atoms: C_14  and  C_15
REMARK    4  A    between atoms: C_15  and  C_16
REMARK                            x       y       z     vdW  Elec       q    Type
REMARK                         _______ _______ _______ _____ _____    ______ ____
ROOT
ATOM      1  C   UNL     1       0.180  10.249  20.176  0.00  0.00    +0.000 A 
ATOM      2  C   UNL     1       0.335  10.877  18.814  0.00  0.00    +0.000 A 
ATOM      3  C   UNL     1       1.093  10.250  17.908  0.00  0.00    +0.000 A 
ATOM      4  C   UNL     1       1.744   9.060  18.265  0.00  0.00    +0.000 A 
ATOM      5  N   UNL     1       2.525   8.246  17.601  0.00  0.00    +0.000 NA
ATOM      6  N   UNL     1       2.811   7.184  18.418  0.00  0.00    +0.000 NA
ATOM      7  C   UNL     1       2.231   7.390  19.588  0.00  0.00    +0.000 A 
ATOM      8  N   UNL     1       1.540   8.585  19.552  0.00  0.00    +0.000 N 
ATOM      9  N   UNL     1       0.769   9.140  20.529  0.00  0.00    +0.000 NA
ENDROOT
BRANCH   1  16
ATOM     10  C   UNL     1       0.002   9.541  23.131  0.00  0.00    +0.000 C 
ATOM     11  C   UNL     1      -0.808  10.640  22.498  0.00  0.00    +0.000 A 
ATOM     12  C   UNL     1      -1.691  11.367  23.323  0.00  0.00    +0.000 A 
ATOM     13  C   UNL     1      -2.465  12.409  22.814  0.00  0.00    +0.000 A 
ATOM     14  C   UNL     1      -2.389  12.733  21.467  0.00  0.00    +0.000 A 
ATOM     15  C   UNL     1      -1.540  12.010  20.629  0.00  0.00    +0.000 A 
ATOM     16  C   UNL     1      -0.726  10.974  21.128  0.00  0.00    +0.000 A 
ENDBRANCH   1  16
BRANCH   7  17
ATOM     17  C   UNL     1       2.146   6.428  20.708  0.00  0.00    +0.000 C 
BRANCH  17  18
ATOM     18  C   UNL     1       2.111   4.947  20.367  0.00  0.00    +0.000 A 
ATOM     19  C   UNL     1       0.852   4.301  20.440  0.00  0.00    +0.000 A 
ATOM     20  C   UNL     1       0.653   3.007  19.947  0.00  0.00    +0.000 A 
ATOM     21  C   UNL     1       1.693   2.354  19.307  0.00  0.00    +0.000 A 
ATOM     22  C   UNL     1       2.930   2.985  19.190  0.00  0.00    +0.000 A 
ATOM     23  C   UNL     1       3.908   2.447  18.216  0.00  0.00    +0.000 A 
ATOM     24  O   UNL     1       3.731   1.379  17.627  0.00  0.00    +0.000 OA
ATOM     25  N   UNL     1       4.988   3.251  17.939  0.00  0.00    +0.000 N 
ATOM     26  C   UNL     1       5.381   4.282  18.747  0.00  0.00    +0.000 A 
ATOM     27  C   UNL     1       4.558   4.765  19.689  0.00  0.00    +0.000 A 
ATOM     28  C   UNL     1       3.189   4.244  19.789  0.00  0.00    +0.000 A 
ATOM     29  H   UNL     1       5.539   3.002  17.128  0.00  0.00    +0.000 HD
ENDBRANCH  17  18
ENDBRANCH   7  17
TORSDOF 3
ENDMDL
MODEL 4
REMARK VINA RESULT:      -8.6      3.113      4.577
REMARK  Name = 
REMARK  4 active torsions:
REMARK  status: ('A' for Active; 'I' for Inactive)
REMARK    1  A    between atoms: C_1  and  C_2
REMARK    2  A    between atoms: C_7  and  C_8
REMARK    3  A    between atoms: C_14  and  C_15
REMARK    4  A    between atoms: C_15  and  C_16
REMARK                            x       y       z     vdW  Elec       q    Type
REMARK                         _______ _______ _______ _____ _____    ______ ____
ROOT
ATOM      1  C   UNL     1       2.724   6.810  18.880  0.00  0.00    +0.000 A 
ATOM      2  C   UNL     1       2.553   6.041  20.166  0.00  0.00    +0.000 A 
ATOM      3  C   UNL     1       1.765   6.558  21.115  0.00  0.00    +0.000 A 
ATOM      4  C   UNL     1       1.161   7.806  20.900  0.00  0.00    +0.000 A 
ATOM      5  N   UNL     1       0.355   8.535  21.629  0.00  0.00    +0.000 NA
ATOM      6  N   UNL     1       0.002   9.633  20.889  0.00  0.00    +0.000 NA
ATOM      7  C   UNL     1       0.636   9.575  19.730  0.00  0.00    +0.000 A 
ATOM      8  N   UNL     1       1.403   8.428  19.684  0.00  0.00    +0.000 N 
ATOM      9  N   UNL     1       2.167   7.967  18.654  0.00  0.00    +0.000 NA
ENDROOT
BRANCH   1  16
ATOM     10  C   UNL     1       2.243   3.958  17.932  0.00  0.00    +0.000 C 
ATOM     11  C   UNL     1       3.351   4.826  17.400  0.00  0.00    +0.000 A 
ATOM     12  C   UNL     1       4.203   4.279  16.420  0.00  0.00    +0.000 A 
ATOM     13  C   UNL     1       5.245   5.023  15.868  0.00  0.00    +0.000 A 
ATOM     14  C   UNL     1       5.469   6.323  16.298  0.00  0.00    +0.000 A 
ATOM     15  C   UNL     1       4.653   6.874  17.287  0.00  0.00    +0.000 A 
ATOM     16  C   UNL     1       3.576   6.151  17.835  0.00  0.00    +0.000 A 
ENDBRANCH   1  16
BRANCH   7  17
ATOM     17  C   UNL     1       0.427  10.467  18.569  0.00  0.00    +0.000 C 
BRANCH  17  18
ATOM     18  C   UNL     1      -1.004  10.728  18.126  0.00  0.00    +0.000 A 
ATOM     19  C   UNL     1      -1.573   9.800  17.220  0.00  0.00    +0.000 A 
ATOM     20  C   UNL     1      -2.938   9.810  16.909  0.00  0.00    +0.000 A 
ATOM     21  C   UNL     1      -3.776  10.707  17.551  0.00  0.00    +0.000 A 
ATOM     22  C   UNL     1      -3.243  11.604  18.473  0.00  0.00    +0.000 A 
ATOM     23  C   UNL     1      -4.169  12.299  19.398  0.00  0.00    +0.000 A 
ATOM     24  O   UNL     1      -5.394  12.233  19.277  0.00  0.00    +0.000 OA
ATOM     25  N   UNL     1      -3.584  12.953  20.457  0.00  0.00    +0.000 N 
ATOM     26  C   UNL     1      -2.261  13.298  20.487  0.00  0.00    +0.000 A 
ATOM     27  C   UNL     1      -1.392  12.746  19.629  0.00  0.00    +0.000 A 
ATOM     28  C   UNL     1      -1.848  11.694  18.713  0.00  0.00    +0.000 A 
ATOM     29  H   UNL     1      -4.202  13.240  21.206  0.00  0.00    +0.000 HD
ENDBRANCH  17  18
ENDBRANCH   7  17
TORSDOF 3
ENDMDL
MODEL 5
REMARK VINA RESULT:      -8.6      1.278      1.479
REMARK  Name = 
REMARK  4 active torsions:
REMARK  status: ('A' for Active; 'I' for Inactive)
REMARK    1  A    between atoms: C_1  and  C_2
REMARK    2  A    between atoms: C_7  and  C_8
REMARK    3  A    between atoms: C_14  and  C_15
REMARK    4  A    between atoms: C_15  and  C_16
REMARK                            x       y       z     vdW  Elec       q    Type
REMARK                         _______ _______ _______ _____ _____    ______ ____
ROOT
ATOM      1  C   UNL     1       4.358   4.566  17.902  0.00  0.00    +0.000 A 
ATOM      2  C   UNL     1       4.063   3.174  18.402  0.00  0.00    +0.000 A 
ATOM      3  C   UNL     1       3.169   3.031  19.388  0.00  0.00    +0.000 A 
ATOM      4  C   UNL     1       2.572   4.173  19.943  0.00  0.00    +0.000 A 
ATOM      5  N   UNL     1       1.682   4.332  20.889  0.00  0.00    +0.000 NA
ATOM      6  N   UNL     1       1.393   5.669  20.968  0.00  0.00    +0.000 NA
ATOM      7  C   UNL     1       2.149   6.311  20.092  0.00  0.00    +0.000 A 
ATOM      8  N   UNL     1       2.933   5.401  19.412  0.00  0.00    +0.000 N 
ATOM      9  N   UNL     1       3.810   5.641  18.396  0.00  0.00    +0.000 NA
ENDROOT
BRANCH   1  16
ATOM     10  C   UNL     1       7.296   5.259  18.294  0.00  0.00    +0.000 C 
ATOM     11  C   UNL     1       6.690   4.978  16.946  0.00  0.00    +0.000 A 
ATOM     12  C   UNL     1       7.532   5.048  15.818  0.00  0.00    +0.000 A 
ATOM     13  C   UNL     1       7.049   4.788  14.536  0.00  0.00    +0.000 A 
ATOM     14  C   UNL     1       5.710   4.474  14.352  0.00  0.00    +0.000 A 
ATOM     15  C   UNL     1       4.855   4.426  15.452  0.00  0.00    +0.000 A 
ATOM     16  C   UNL     1       5.328   4.654  16.759  0.00  0.00    +0.000 A 
ENDBRANCH   1  16
BRANCH   7  17
ATOM     17  C   UNL     1       2.051   7.741  19.729  0.00  0.00    +0.000 C 
BRANCH  17  18
ATOM     18  C   UNL     1       1.108   8.614  20.542  0.00  0.00    +0.000 A 
ATOM     19  C   UNL     1       1.247   8.570  21.951  0.00  0.00    +0.000 A 
ATOM     20  C   UNL     1       0.592   9.478  22.790  0.00  0.00    +0.000 A 
ATOM     21  C   UNL     1      -0.164  10.497  22.233  0.00  0.00    +0.000 A 
ATOM     22  C   UNL     1      -0.284  10.582  20.847  0.00  0.00    +0.000 A 
ATOM     23  C   UNL     1      -0.783  11.847  20.259  0.00  0.00    +0.000 A 
ATOM     24  O   UNL     1      -1.240  12.760  20.949  0.00  0.00    +0.000 OA
ATOM     25  N   UNL     1      -0.625  11.982  18.900  0.00  0.00    +0.000 N 
ATOM     26  C   UNL     1      -0.399  10.924  18.062  0.00  0.00    +0.000 A 
ATOM     27  C   UNL     1      -0.009   9.738  18.550  0.00  0.00    +0.000 A 
ATOM     28  C   UNL     1       0.269   9.602  19.984  0.00  0.00    +0.000 A 
ATOM     29  H   UNL     1      -0.755  12.912  18.521  0.00  0.00    +0.000 HD
ENDBRANCH  17  18
ENDBRANCH   7  17
TORSDOF 3
ENDMDL
MODEL 6
REMARK VINA RESULT:      -8.5      2.141      2.988
REMARK  Name = 
REMARK  4 active torsions:
REMARK  status: ('A' for Active; 'I' for Inactive)
REMARK    1  A    between atoms: C_1  and  C_2
REMARK    2  A    between atoms: C_7  and  C_8
REMARK    3  A    between atoms: C_14  and  C_15
REMARK    4  A    between atoms: C_15  and  C_16
REMARK                            x       y       z     vdW  Elec       q    Type
REMARK                         _______ _______ _______ _____ _____    ______ ____
ROOT
ATOM      1  C   UNL     1       4.253   5.832  17.807  0.00  0.00    +0.000 A 
ATOM      2  C   UNL     1       4.094   4.863  18.951  0.00  0.00    +0.000 A 
ATOM      3  C   UNL     1       3.245   5.179  19.936  0.00  0.00    +0.000 A 
ATOM      4  C   UNL     1       2.569   6.406  19.890  0.00  0.00    +0.000 A 
ATOM      5  N   UNL     1       1.696   6.964  20.690  0.00  0.00    +0.000 NA
ATOM      6  N   UNL     1       1.294   8.141  20.114  0.00  0.00    +0.000 NA
ATOM      7  C   UNL     1       1.966   8.301  18.986  0.00  0.00    +0.000 A 
ATOM      8  N   UNL     1       2.806   7.223  18.795  0.00  0.00    +0.000 N 
ATOM      9  N   UNL     1       3.629   6.975  17.738  0.00  0.00    +0.000 NA
ENDROOT
BRANCH   1  16
ATOM     10  C   UNL     1       7.163   6.713  17.665  0.00  0.00    +0.000 C 
ATOM     11  C   UNL     1       6.527   5.808  16.645  0.00  0.00    +0.000 A 
ATOM     12  C   UNL     1       7.326   5.357  15.575  0.00  0.00    +0.000 A 
ATOM     13  C   UNL     1       6.814   4.506  14.596  0.00  0.00    +0.000 A 
ATOM     14  C   UNL     1       5.488   4.103  14.655  0.00  0.00    +0.000 A 
ATOM     15  C   UNL     1       4.673   4.559  15.692  0.00  0.00    +0.000 A 
ATOM     16  C   UNL     1       5.178   5.394  16.708  0.00  0.00    +0.000 A 
ENDBRANCH   1  16
BRANCH   7  17
ATOM     17  C   UNL     1       1.735   9.349  17.968  0.00  0.00    +0.000 C 
BRANCH  17  18
ATOM     18  C   UNL     1       0.498  10.222  18.120  0.00  0.00    +0.000 A 
ATOM     19  C   UNL     1      -0.728   9.682  17.661  0.00  0.00    +0.000 A 
ATOM     20  C   UNL     1      -1.957  10.291  17.938  0.00  0.00    +0.000 A 
ATOM     21  C   UNL     1      -1.991  11.420  18.740  0.00  0.00    +0.000 A 
ATOM     22  C   UNL     1      -0.800  11.948  19.234  0.00  0.00    +0.000 A 
ATOM     23  C   UNL     1      -0.867  12.915  20.354  0.00  0.00    +0.000 A 
ATOM     24  O   UNL     1      -1.933  13.385  20.755  0.00  0.00    +0.000 OA
ATOM     25  N   UNL     1       0.325  13.192  20.982  0.00  0.00    +0.000 N 
ATOM     26  C   UNL     1       1.546  12.937  20.421  0.00  0.00    +0.000 A 
ATOM     27  C   UNL     1       1.654  12.119  19.364  0.00  0.00    +0.000 A 
ATOM     28  C   UNL     1       0.464  11.419  18.866  0.00  0.00    +0.000 A 
ATOM     29  H   UNL     1       0.264  13.670  21.872  0.00  0.00    +0.000 HD
ENDBRANCH  17  18
ENDBRANCH   7  17
TORSDOF 3
ENDMDL
MODEL 7
REMARK VINA RESULT:      -8.4      1.376      1.638
REMARK  Name = 
REMARK  4 active torsions:
REMARK  status: ('A' for Active; 'I' for Inactive)
REMARK    1  A    between atoms: C_1  and  C_2
REMARK    2  A    between atoms: C_7  and  C_8
REMARK    3  A    between atoms: C_14  and  C_15
REMARK    4  A    between atoms: C_15  and  C_16
REMARK                            x       y       z     vdW  Elec       q    Type
REMARK                         _______ _______ _______ _____ _____    ______ ____
ROOT
ATOM      1  C   UNL     1       4.531   4.697  17.876  0.00  0.00    +0.000 A 
ATOM      2  C   UNL     1       4.437   3.387  18.617  0.00  0.00    +0.000 A 
ATOM      3  C   UNL     1       3.622   3.314  19.675  0.00  0.00    +0.000 A 
ATOM      4  C   UNL     1       2.919   4.459  20.080  0.00  0.00    +0.000 A 
ATOM      5  N   UNL     1       2.068   4.676  21.049  0.00  0.00    +0.000 NA
ATOM      6  N   UNL     1       1.620   5.965  20.930  0.00  0.00    +0.000 NA
ATOM      7  C   UNL     1       2.243   6.529  19.908  0.00  0.00    +0.000 A 
ATOM      8  N   UNL     1       3.097   5.611  19.330  0.00  0.00    +0.000 N 
ATOM      9  N   UNL     1       3.883   5.772  18.228  0.00  0.00    +0.000 NA
ENDROOT
BRANCH   1  16
ATOM     10  C   UNL     1       7.477   5.454  18.007  0.00  0.00    +0.000 C 
ATOM     11  C   UNL     1       6.787   5.053  16.732  0.00  0.00    +0.000 A 
ATOM     12  C   UNL     1       7.550   5.034  15.547  0.00  0.00    +0.000 A 
ATOM     13  C   UNL     1       6.986   4.661  14.327  0.00  0.00    +0.000 A 
ATOM     14  C   UNL     1       5.644   4.317  14.262  0.00  0.00    +0.000 A 
ATOM     15  C   UNL     1       4.865   4.354  15.419  0.00  0.00    +0.000 A 
ATOM     16  C   UNL     1       5.421   4.698  16.667  0.00  0.00    +0.000 A 
ENDBRANCH   1  16
BRANCH   7  17
ATOM     17  C   UNL     1       1.951   7.857  19.326  0.00  0.00    +0.000 C 
BRANCH  17  18
ATOM     18  C   UNL     1       1.124   8.826  20.155  0.00  0.00    +0.000 A 
ATOM     19  C   UNL     1       0.580   8.332  21.366  0.00  0.00    +0.000 A 
ATOM     20  C   UNL     1      -0.012   9.177  22.312  0.00  0.00    +0.000 A 
ATOM     21  C   UNL     1      -0.011  10.546  22.098  0.00  0.00    +0.000 A 
ATOM     22  C   UNL     1       0.552  11.057  20.931  0.00  0.00    +0.000 A 
ATOM     23  C   UNL     1       0.866  12.504  20.874  0.00  0.00    +0.000 A 
ATOM     24  O   UNL     1       0.504  13.291  21.750  0.00  0.00    +0.000 OA
ATOM     25  N   UNL     1       1.661  12.907  19.827  0.00  0.00    +0.000 N 
ATOM     26  C   UNL     1       1.849  12.159  18.697  0.00  0.00    +0.000 A 
ATOM     27  C   UNL     1       1.522  10.859  18.676  0.00  0.00    +0.000 A 
ATOM     28  C   UNL     1       1.046  10.213  19.904  0.00  0.00    +0.000 A 
ATOM     29  H   UNL     1       2.060  13.835  19.896  0.00  0.00    +0.000 HD
ENDBRANCH  17  18
ENDBRANCH   7  17
TORSDOF 3
ENDMDL
MODEL 8
REMARK VINA RESULT:      -8.3      3.020      7.912
REMARK  Name = 
REMARK  4 active torsions:
REMARK  status: ('A' for Active; 'I' for Inactive)
REMARK    1  A    between atoms: C_1  and  C_2
REMARK    2  A    between atoms: C_7  and  C_8
REMARK    3  A    between atoms: C_14  and  C_15
REMARK    4  A    between atoms: C_15  and  C_16
REMARK                            x       y       z     vdW  Elec       q    Type
REMARK                         _______ _______ _______ _____ _____    ______ ____
ROOT
ATOM      1  C   UNL     1       0.885  10.659  20.074  0.00  0.00    +0.000 A 
ATOM      2  C   UNL     1       0.327  10.349  21.440  0.00  0.00    +0.000 A 
ATOM      3  C   UNL     1       0.447   9.101  21.907  0.00  0.00    +0.000 A 
ATOM      4  C   UNL     1       1.047   8.123  21.100  0.00  0.00    +0.000 A 
ATOM      5  N   UNL     1       1.300   6.853  21.292  0.00  0.00    +0.000 NA
ATOM      6  N   UNL     1       1.986   6.395  20.198  0.00  0.00    +0.000 NA
ATOM      7  C   UNL     1       2.103   7.389  19.334  0.00  0.00    +0.000 A 
ATOM      8  N   UNL     1       1.510   8.521  19.856  0.00  0.00    +0.000 N 
ATOM      9  N   UNL     1       1.455   9.769  19.310  0.00  0.00    +0.000 NA
ENDROOT
BRANCH   1  16
ATOM     10  C   UNL     1      -1.483  11.687  18.462  0.00  0.00    +0.000 C 
ATOM     11  C   UNL     1      -0.332  12.561  18.882  0.00  0.00    +0.000 A 
ATOM     12  C   UNL     1      -0.362  13.917  18.500  0.00  0.00    +0.000 A 
ATOM     13  C   UNL     1       0.660  14.794  18.862  0.00  0.00    +0.000 A 
ATOM     14  C   UNL     1       1.743  14.330  19.595  0.00  0.00    +0.000 A 
ATOM     15  C   UNL     1       1.803  12.985  19.960  0.00  0.00    +0.000 A 
ATOM     16  C   UNL     1       0.767  12.089  19.632  0.00  0.00    +0.000 A 
ENDBRANCH   1  16
BRANCH   7  17
ATOM     17  C   UNL     1       2.905   7.383  18.092  0.00  0.00    +0.000 C 
BRANCH  17  18
ATOM     18  C   UNL     1       3.747   6.150  17.800  0.00  0.00    +0.000 A 
ATOM     19  C   UNL     1       3.050   4.946  17.532  0.00  0.00    +0.000 A 
ATOM     20  C   UNL     1       3.699   3.808  17.042  0.00  0.00    +0.000 A 
ATOM     21  C   UNL     1       5.051   3.869  16.744  0.00  0.00    +0.000 A 
ATOM     22  C   UNL     1       5.749   5.055  16.965  0.00  0.00    +0.000 A 
ATOM     23  C   UNL     1       7.075   5.223  16.326  0.00  0.00    +0.000 A 
ATOM     24  O   UNL     1       7.647   4.299  15.743  0.00  0.00    +0.000 OA
ATOM     25  N   UNL     1       7.595   6.495  16.343  0.00  0.00    +0.000 N 
ATOM     26  C   UNL     1       7.161   7.471  17.198  0.00  0.00    +0.000 A 
ATOM     27  C   UNL     1       5.998   7.339  17.851  0.00  0.00    +0.000 A 
ATOM     28  C   UNL     1       5.140   6.181  17.574  0.00  0.00    +0.000 A 
ATOM     29  H   UNL     1       8.381   6.669  15.729  0.00  0.00    +0.000 HD
ENDBRANCH  17  18
ENDBRANCH   7  17
TORSDOF 3
ENDMDL
MODEL 9
REMARK VINA RESULT:      -8.2      4.169      7.153
REMARK  Name = 
REMARK  4 active torsions:
REMARK  status: ('A' for Active; 'I' for Inactive)
REMARK    1  A    between atoms: C_1  and  C_2
REMARK    2  A    between atoms: C_7  and  C_8
REMARK    3  A    between atoms: C_14  and  C_15
REMARK    4  A    between atoms: C_15  and  C_16
REMARK                            x       y       z     vdW  Elec       q    Type
REMARK                         _______ _______ _______ _____ _____    ______ ____
ROOT
ATOM      1  C   UNL     1       0.783   9.269  20.832  0.00  0.00    +0.000 A 
ATOM      2  C   UNL     1       0.711   8.794  22.261  0.00  0.00    +0.000 A 
ATOM      3  C   UNL     1      -0.011   9.509  23.131  0.00  0.00    +0.000 A 
ATOM      4  C   UNL     1      -0.636  10.688  22.697  0.00  0.00    +0.000 A 
ATOM      5  N   UNL     1      -1.392  11.563  23.309  0.00  0.00    +0.000 NA
ATOM      6  N   UNL     1      -1.805  12.481  22.379  0.00  0.00    +0.000 NA
ATOM      7  C   UNL     1      -1.255  12.170  21.216  0.00  0.00    +0.000 A 
ATOM      8  N   UNL     1      -0.487  11.033  21.363  0.00  0.00    +0.000 N 
ATOM      9  N   UNL     1       0.204  10.355  20.403  0.00  0.00    +0.000 NA
ENDROOT
BRANCH   1  16
ATOM     10  C   UNL     1       1.551  10.150  18.021  0.00  0.00    +0.000 C 
ATOM     11  C   UNL     1       1.915   8.805  18.589  0.00  0.00    +0.000 A 
ATOM     12  C   UNL     1       2.642   7.918  17.770  0.00  0.00    +0.000 A 
ATOM     13  C   UNL     1       3.028   6.659  18.229  0.00  0.00    +0.000 A 
ATOM     14  C   UNL     1       2.678   6.252  19.508  0.00  0.00    +0.000 A 
ATOM     15  C   UNL     1       1.936   7.105  20.326  0.00  0.00    +0.000 A 
ATOM     16  C   UNL     1       1.563   8.393  19.894  0.00  0.00    +0.000 A 
ENDBRANCH   1  16
BRANCH   7  17
ATOM     17  C   UNL     1      -1.552  12.795  19.910  0.00  0.00    +0.000 C 
BRANCH  17  18
ATOM     18  C   UNL     1      -2.593  12.126  19.025  0.00  0.00    +0.000 A 
ATOM     19  C   UNL     1      -2.117  11.211  18.055  0.00  0.00    +0.000 A 
ATOM     20  C   UNL     1      -2.980  10.378  17.334  0.00  0.00    +0.000 A 
ATOM     21  C   UNL     1      -4.336  10.394  17.619  0.00  0.00    +0.000 A 
ATOM     22  C   UNL     1      -4.822  11.259  18.596  0.00  0.00    +0.000 A 
ATOM     23  C   UNL     1      -6.181  11.023  19.136  0.00  0.00    +0.000 A 
ATOM     24  O   UNL     1      -6.950  10.195  18.644  0.00  0.00    +0.000 OA
ATOM     25  N   UNL     1      -6.507  11.719  20.276  0.00  0.00    +0.000 N 
ATOM     26  C   UNL     1      -5.831  12.833  20.692  0.00  0.00    +0.000 A 
ATOM     27  C   UNL     1      -4.624  13.128  20.188  0.00  0.00    +0.000 A 
ATOM     28  C   UNL     1      -3.984  12.197  19.251  0.00  0.00    +0.000 A 
ATOM     29  H   UNL     1      -7.332  11.410  20.773  0.00  0.00    +0.000 HD
ENDBRANCH  17  18
ENDBRANCH   7  17
TORSDOF 3
ENDMDL
