MODEL 1
REMARK VINA RESULT:      -6.2      0.000      0.000
REMARK  Name = 
REMARK  7 active torsions:
REMARK  status: ('A' for Active; 'I' for Inactive)
REMARK    1  A    between atoms: C_1  and  C_2
REMARK    2  A    between atoms: C_2  and  C_3
REMARK    3  A    between atoms: C_3  and  N_4
REMARK    4  A    between atoms: C_5  and  C_7
REMARK    5  A    between atoms: C_12  and  S_13
REMARK    6  A    between atoms: S_13  and  C_14
REMARK    7  A    between atoms: C_14  and  C_15
REMARK                            x       y       z     vdW  Elec       q    Type
REMARK                         _______ _______ _______ _____ _____    ______ ____
ROOT
ATOM      1  C   UNL     1       5.840   4.610  17.145  0.00  0.00    +0.000 A 
ATOM      2  C   UNL     1       5.401   3.865  16.036  0.00  0.00    +0.000 A 
ATOM      3  C   UNL     1       6.010   4.012  14.795  0.00  0.00    +0.000 A 
ATOM      4  C   UNL     1       7.047   4.913  14.695  0.00  0.00    +0.000 A 
ATOM      5  N   UNL     1       7.506   5.644  15.734  0.00  0.00    +0.000 NA
ATOM      6  C   UNL     1       6.905   5.499  16.949  0.00  0.00    +0.000 A 
ENDROOT
BRANCH   1   8
ATOM      7  N   UNL     1       3.813   4.899  18.518  0.00  0.00    +0.000 N 
ATOM      8  C   UNL     1       5.080   4.377  18.404  0.00  0.00    +0.000 C 
ATOM      9  O   UNL     1       5.618   3.763  19.323  0.00  0.00    +0.000 OA
ATOM     10  H   UNL     1       3.406   5.393  17.730  0.00  0.00    +0.000 HD
BRANCH   7  11
ATOM     11  C   UNL     1       3.033   4.763  19.729  0.00  0.00    +0.000 C 
BRANCH  11  13
ATOM     12  C   UNL     1       1.251   3.426  20.945  0.00  0.00    +0.000 C 
ATOM     13  C   UNL     1       2.182   3.494  19.743  0.00  0.00    +0.000 C 
ENDBRANCH  11  13
ENDBRANCH   7  11
ENDBRANCH   1   8
BRANCH   6  14
ATOM     14  S   UNL     1       7.639   6.498  18.248  0.00  0.00    +0.000 S 
BRANCH  14  15
ATOM     15  C   UNL     1       7.559   8.161  17.496  0.00  0.00    +0.000 C 
ATOM     16  C   UNL     1       8.465   9.125  18.248  0.00  0.00    +0.000 C 
ENDBRANCH  14  15
ENDBRANCH   6  14
TORSDOF 5
ENDMDL
MODEL 2
REMARK VINA RESULT:      -6.1      1.028      1.051
REMARK  Name = 
REMARK  7 active torsions:
REMARK  status: ('A' for Active; 'I' for Inactive)
REMARK    1  A    between atoms: C_1  and  C_2
REMARK    2  A    between atoms: C_2  and  C_3
REMARK    3  A    between atoms: C_3  and  N_4
REMARK    4  A    between atoms: C_5  and  C_7
REMARK    5  A    between atoms: C_12  and  S_13
REMARK    6  A    between atoms: S_13  and  C_14
REMARK    7  A    between atoms: C_14  and  C_15
REMARK                            x       y       z     vdW  Elec       q    Type
REMARK                         _______ _______ _______ _____ _____    ______ ____
ROOT
ATOM      1  C   UNL     1       5.699   4.609  16.958  0.00  0.00    +0.000 A 
ATOM      2  C   UNL     1       5.283   3.898  15.817  0.00  0.00    +0.000 A 
ATOM      3  C   UNL     1       5.964   4.026  14.613  0.00  0.00    +0.000 A 
ATOM      4  C   UNL     1       7.051   4.872  14.580  0.00  0.00    +0.000 A 
ATOM      5  N   UNL     1       7.489   5.568  15.650  0.00  0.00    +0.000 NA
ATOM      6  C   UNL     1       6.817   5.444  16.830  0.00  0.00    +0.000 A 
ENDROOT
BRANCH   1   8
ATOM      7  N   UNL     1       4.817   3.151  18.739  0.00  0.00    +0.000 N 
ATOM      8  C   UNL     1       4.861   4.403  18.172  0.00  0.00    +0.000 C 
ATOM      9  O   UNL     1       4.199   5.342  18.608  0.00  0.00    +0.000 OA
ATOM     10  H   UNL     1       5.387   2.407  18.349  0.00  0.00    +0.000 HD
BRANCH   7  11
ATOM     11  C   UNL     1       3.985   2.858  19.886  0.00  0.00    +0.000 C 
BRANCH  11  13
ATOM     12  C   UNL     1       1.471   2.970  20.219  0.00  0.00    +0.000 C 
ATOM     13  C   UNL     1       2.623   2.286  19.496  0.00  0.00    +0.000 C 
ENDBRANCH  11  13
ENDBRANCH   7  11
ENDBRANCH   1   8
BRANCH   6  14
ATOM     14  S   UNL     1       7.530   6.390  18.178  0.00  0.00    +0.000 S 
BRANCH  14  15
ATOM     15  C   UNL     1       7.531   8.071  17.463  0.00  0.00    +0.000 C 
ATOM     16  C   UNL     1       8.438   8.988  18.268  0.00  0.00    +0.000 C 
ENDBRANCH  14  15
ENDBRANCH   6  14
TORSDOF 5
ENDMDL
MODEL 3
REMARK VINA RESULT:      -5.8      2.463      5.352
REMARK  Name = 
REMARK  7 active torsions:
REMARK  status: ('A' for Active; 'I' for Inactive)
REMARK    1  A    between atoms: C_1  and  C_2
REMARK    2  A    between atoms: C_2  and  C_3
REMARK    3  A    between atoms: C_3  and  N_4
REMARK    4  A    between atoms: C_5  and  C_7
REMARK    5  A    between atoms: C_12  and  S_13
REMARK    6  A    between atoms: S_13  and  C_14
REMARK    7  A    between atoms: C_14  and  C_15
REMARK                            x       y       z     vdW  Elec       q    Type
REMARK                         _______ _______ _______ _____ _____    ______ ____
ROOT
ATOM      1  C   UNL     1       3.709   3.823  17.865  0.00  0.00    +0.000 A 
ATOM      2  C   UNL     1       3.481   2.442  17.729  0.00  0.00    +0.000 A 
ATOM      3  C   UNL     1       2.279   1.876  18.138  0.00  0.00    +0.000 A 
ATOM      4  C   UNL     1       1.331   2.714  18.681  0.00  0.00    +0.000 A 
ATOM      5  N   UNL     1       1.504   4.046  18.825  0.00  0.00    +0.000 NA
ATOM      6  C   UNL     1       2.684   4.597  18.426  0.00  0.00    +0.000 A 
ENDROOT
BRANCH   1   8
ATOM      7  N   UNL     1       6.102   4.224  18.297  0.00  0.00    +0.000 N 
ATOM      8  C   UNL     1       5.049   4.290  17.415  0.00  0.00    +0.000 C 
ATOM      9  O   UNL     1       5.171   4.762  16.287  0.00  0.00    +0.000 OA
ATOM     10  H   UNL     1       5.957   3.819  19.217  0.00  0.00    +0.000 HD
BRANCH   7  11
ATOM     11  C   UNL     1       7.422   4.709  17.954  0.00  0.00    +0.000 C 
BRANCH  11  13
ATOM     12  C   UNL     1       7.584   7.209  17.550  0.00  0.00    +0.000 C 
ATOM     13  C   UNL     1       7.724   6.079  18.559  0.00  0.00    +0.000 C 
ENDBRANCH  11  13
ENDBRANCH   7  11
ENDBRANCH   1   8
BRANCH   6  14
ATOM     14  S   UNL     1       2.764   6.379  18.635  0.00  0.00    +0.000 S 
BRANCH  14  15
ATOM     15  C   UNL     1       1.984   6.572  20.275  0.00  0.00    +0.000 C 
ATOM     16  C   UNL     1       1.572   8.020  20.497  0.00  0.00    +0.000 C 
ENDBRANCH  14  15
ENDBRANCH   6  14
TORSDOF 5
ENDMDL
MODEL 4
REMARK VINA RESULT:      -5.8      1.861      4.701
REMARK  Name = 
REMARK  7 active torsions:
REMARK  status: ('A' for Active; 'I' for Inactive)
REMARK    1  A    between atoms: C_1  and  C_2
REMARK    2  A    between atoms: C_2  and  C_3
REMARK    3  A    between atoms: C_3  and  N_4
REMARK    4  A    between atoms: C_5  and  C_7
REMARK    5  A    between atoms: C_12  and  S_13
REMARK    6  A    between atoms: S_13  and  C_14
REMARK    7  A    between atoms: C_14  and  C_15
REMARK                            x       y       z     vdW  Elec       q    Type
REMARK                         _______ _______ _______ _____ _____    ______ ____
ROOT
ATOM      1  C   UNL     1       5.722   4.666  16.952  0.00  0.00    +0.000 A 
ATOM      2  C   UNL     1       4.456   4.068  16.814  0.00  0.00    +0.000 A 
ATOM      3  C   UNL     1       3.538   4.099  17.857  0.00  0.00    +0.000 A 
ATOM      4  C   UNL     1       3.916   4.729  19.023  0.00  0.00    +0.000 A 
ATOM      5  N   UNL     1       5.117   5.322  19.196  0.00  0.00    +0.000 NA
ATOM      6  C   UNL     1       6.017   5.287  18.172  0.00  0.00    +0.000 A 
ENDROOT
BRANCH   1   8
ATOM      7  N   UNL     1       6.054   4.533  14.513  0.00  0.00    +0.000 N 
ATOM      8  C   UNL     1       6.616   4.532  15.768  0.00  0.00    +0.000 C 
ATOM      9  O   UNL     1       7.822   4.381  15.944  0.00  0.00    +0.000 OA
ATOM     10  H   UNL     1       5.053   4.669  14.415  0.00  0.00    +0.000 HD
BRANCH   7  11
ATOM     11  C   UNL     1       6.849   4.353  13.317  0.00  0.00    +0.000 C 
BRANCH  11  13
ATOM     12  C   UNL     1       4.788   3.523  12.092  0.00  0.00    +0.000 C 
ATOM     13  C   UNL     1       6.267   3.301  12.374  0.00  0.00    +0.000 C 
ENDBRANCH  11  13
ENDBRANCH   7  11
ENDBRANCH   1   8
BRANCH   6  14
ATOM     14  S   UNL     1       7.553   6.147  18.522  0.00  0.00    +0.000 S 
BRANCH  14  15
ATOM     15  C   UNL     1       7.372   7.629  17.469  0.00  0.00    +0.000 C 
ATOM     16  C   UNL     1       8.216   8.771  18.015  0.00  0.00    +0.000 C 
ENDBRANCH  14  15
ENDBRANCH   6  14
TORSDOF 5
ENDMDL
MODEL 5
REMARK VINA RESULT:      -5.7      2.506      5.301
REMARK  Name = 
REMARK  7 active torsions:
REMARK  status: ('A' for Active; 'I' for Inactive)
REMARK    1  A    between atoms: C_1  and  C_2
REMARK    2  A    between atoms: C_2  and  C_3
REMARK    3  A    between atoms: C_3  and  N_4
REMARK    4  A    between atoms: C_5  and  C_7
REMARK    5  A    between atoms: C_12  and  S_13
REMARK    6  A    between atoms: S_13  and  C_14
REMARK    7  A    between atoms: C_14  and  C_15
REMARK                            x       y       z     vdW  Elec       q    Type
REMARK                         _______ _______ _______ _____ _____    ______ ____
ROOT
ATOM      1  C   UNL     1       3.524   3.652  18.643  0.00  0.00    +0.000 A 
ATOM      2  C   UNL     1       3.173   2.323  18.346  0.00  0.00    +0.000 A 
ATOM      3  C   UNL     1       1.880   1.863  18.570  0.00  0.00    +0.000 A 
ATOM      4  C   UNL     1       0.968   2.751  19.095  0.00  0.00    +0.000 A 
ATOM      5  N   UNL     1       1.259   4.037  19.388  0.00  0.00    +0.000 NA
ATOM      6  C   UNL     1       2.528   4.484  19.170  0.00  0.00    +0.000 A 
ENDROOT
BRANCH   1   8
ATOM      7  N   UNL     1       5.372   4.119  17.079  0.00  0.00    +0.000 N 
ATOM      8  C   UNL     1       4.948   4.002  18.382  0.00  0.00    +0.000 C 
ATOM      9  O   UNL     1       5.716   4.134  19.333  0.00  0.00    +0.000 OA
ATOM     10  H   UNL     1       4.701   4.010  16.326  0.00  0.00    +0.000 HD
BRANCH   7  11
ATOM     11  C   UNL     1       6.751   4.403  16.744  0.00  0.00    +0.000 C 
BRANCH  11  13
ATOM     12  C   UNL     1       5.702   4.344  14.433  0.00  0.00    +0.000 C 
ATOM     13  C   UNL     1       6.965   4.598  15.243  0.00  0.00    +0.000 C 
ENDBRANCH  11  13
ENDBRANCH   7  11
ENDBRANCH   1   8
BRANCH   6  14
ATOM     14  S   UNL     1       2.767   6.219  19.565  0.00  0.00    +0.000 S 
BRANCH  14  15
ATOM     15  C   UNL     1       2.771   6.960  17.895  0.00  0.00    +0.000 C 
ATOM     16  C   UNL     1       2.383   8.428  17.967  0.00  0.00    +0.000 C 
ENDBRANCH  14  15
ENDBRANCH   6  14
TORSDOF 5
ENDMDL
MODEL 6
REMARK VINA RESULT:      -5.7      2.059      3.528
REMARK  Name = 
REMARK  7 active torsions:
REMARK  status: ('A' for Active; 'I' for Inactive)
REMARK    1  A    between atoms: C_1  and  C_2
REMARK    2  A    between atoms: C_2  and  C_3
REMARK    3  A    between atoms: C_3  and  N_4
REMARK    4  A    between atoms: C_5  and  C_7
REMARK    5  A    between atoms: C_12  and  S_13
REMARK    6  A    between atoms: S_13  and  C_14
REMARK    7  A    between atoms: C_14  and  C_15
REMARK                            x       y       z     vdW  Elec       q    Type
REMARK                         _______ _______ _______ _____ _____    ______ ____
ROOT
ATOM      1  C   UNL     1       5.215   5.041  17.937  0.00  0.00    +0.000 A 
ATOM      2  C   UNL     1       5.759   5.107  19.233  0.00  0.00    +0.000 A 
ATOM      3  C   UNL     1       7.052   5.574  19.438  0.00  0.00    +0.000 A 
ATOM      4  C   UNL     1       7.775   5.961  18.332  0.00  0.00    +0.000 A 
ATOM      5  N   UNL     1       7.292   5.921  17.071  0.00  0.00    +0.000 NA
ATOM      6  C   UNL     1       6.024   5.460  16.872  0.00  0.00    +0.000 A 
ENDROOT
BRANCH   1   8
ATOM      7  N   UNL     1       3.658   3.131  17.914  0.00  0.00    +0.000 N 
ATOM      8  C   UNL     1       3.833   4.494  17.858  0.00  0.00    +0.000 C 
ATOM      9  O   UNL     1       2.891   5.267  17.702  0.00  0.00    +0.000 OA
ATOM     10  H   UNL     1       4.465   2.530  18.052  0.00  0.00    +0.000 HD
BRANCH   7  11
ATOM     11  C   UNL     1       2.352   2.519  17.789  0.00  0.00    +0.000 C 
BRANCH  11  13
ATOM     12  C   UNL     1       0.934   3.135  19.801  0.00  0.00    +0.000 C 
ATOM     13  C   UNL     1       1.782   2.064  19.132  0.00  0.00    +0.000 C 
ENDBRANCH  11  13
ENDBRANCH   7  11
ENDBRANCH   1   8
BRANCH   6  14
ATOM     14  S   UNL     1       5.496   5.499  15.157  0.00  0.00    +0.000 S 
BRANCH  14  15
ATOM     15  C   UNL     1       6.754   4.428  14.379  0.00  0.00    +0.000 C 
ATOM     16  C   UNL     1       6.157   3.686  13.193  0.00  0.00    +0.000 C 
ENDBRANCH  14  15
ENDBRANCH   6  14
TORSDOF 5
ENDMDL
MODEL 7
REMARK VINA RESULT:      -5.7      2.758      3.292
REMARK  Name = 
REMARK  7 active torsions:
REMARK  status: ('A' for Active; 'I' for Inactive)
REMARK    1  A    between atoms: C_1  and  C_2
REMARK    2  A    between atoms: C_2  and  C_3
REMARK    3  A    between atoms: C_3  and  N_4
REMARK    4  A    between atoms: C_5  and  C_7
REMARK    5  A    between atoms: C_12  and  S_13
REMARK    6  A    between atoms: S_13  and  C_14
REMARK    7  A    between atoms: C_14  and  C_15
REMARK                            x       y       z     vdW  Elec       q    Type
REMARK                         _______ _______ _______ _____ _____    ______ ____
ROOT
ATOM      1  C   UNL     1       3.968   4.521  17.244  0.00  0.00    +0.000 A 
ATOM      2  C   UNL     1       4.996   3.980  16.450  0.00  0.00    +0.000 A 
ATOM      3  C   UNL     1       5.962   4.801  15.882  0.00  0.00    +0.000 A 
ATOM      4  C   UNL     1       5.872   6.155  16.122  0.00  0.00    +0.000 A 
ATOM      5  N   UNL     1       4.907   6.716  16.882  0.00  0.00    +0.000 NA
ATOM      6  C   UNL     1       3.959   5.908  17.436  0.00  0.00    +0.000 A 
ENDROOT
BRANCH   1   8
ATOM      7  N   UNL     1       3.071   3.142  19.080  0.00  0.00    +0.000 N 
ATOM      8  C   UNL     1       2.984   3.531  17.764  0.00  0.00    +0.000 C 
ATOM      9  O   UNL     1       2.150   3.057  16.996  0.00  0.00    +0.000 OA
ATOM     10  H   UNL     1       3.772   3.567  19.680  0.00  0.00    +0.000 HD
BRANCH   7  11
ATOM     11  C   UNL     1       2.187   2.145  19.645  0.00  0.00    +0.000 C 
BRANCH  11  13
ATOM     12  C   UNL     1       0.943   4.154  20.571  0.00  0.00    +0.000 C 
ATOM     13  C   UNL     1       1.325   2.696  20.780  0.00  0.00    +0.000 C 
ENDBRANCH  11  13
ENDBRANCH   7  11
ENDBRANCH   1   8
BRANCH   6  14
ATOM     14  S   UNL     1       2.764   6.779  18.454  0.00  0.00    +0.000 S 
BRANCH  14  15
ATOM     15  C   UNL     1       2.752   8.421  17.652  0.00  0.00    +0.000 C 
ATOM     16  C   UNL     1       1.513   9.201  18.064  0.00  0.00    +0.000 C 
ENDBRANCH  14  15
ENDBRANCH   6  14
TORSDOF 5
ENDMDL
MODEL 8
REMARK VINA RESULT:      -5.6      2.517      5.744
REMARK  Name = 
REMARK  7 active torsions:
REMARK  status: ('A' for Active; 'I' for Inactive)
REMARK    1  A    between atoms: C_1  and  C_2
REMARK    2  A    between atoms: C_2  and  C_3
REMARK    3  A    between atoms: C_3  and  N_4
REMARK    4  A    between atoms: C_5  and  C_7
REMARK    5  A    between atoms: C_12  and  S_13
REMARK    6  A    between atoms: S_13  and  C_14
REMARK    7  A    between atoms: C_14  and  C_15
REMARK                            x       y       z     vdW  Elec       q    Type
REMARK                         _______ _______ _______ _____ _____    ______ ____
ROOT
ATOM      1  C   UNL     1       6.314   5.223  16.831  0.00  0.00    +0.000 A 
ATOM      2  C   UNL     1       7.398   6.000  17.277  0.00  0.00    +0.000 A 
ATOM      3  C   UNL     1       7.680   6.114  18.633  0.00  0.00    +0.000 A 
ATOM      4  C   UNL     1       6.860   5.445  19.515  0.00  0.00    +0.000 A 
ATOM      5  N   UNL     1       5.813   4.683  19.131  0.00  0.00    +0.000 NA
ATOM      6  C   UNL     1       5.537   4.575  17.801  0.00  0.00    +0.000 A 
ENDROOT
BRANCH   1   8
ATOM      7  N   UNL     1       6.616   4.164  14.625  0.00  0.00    +0.000 N 
ATOM      8  C   UNL     1       6.108   5.213  15.356  0.00  0.00    +0.000 C 
ATOM      9  O   UNL     1       5.530   6.159  14.826  0.00  0.00    +0.000 OA
ATOM     10  H   UNL     1       7.080   3.400  15.107  0.00  0.00    +0.000 HD
BRANCH   7  11
ATOM     11  C   UNL     1       6.506   4.110  13.183  0.00  0.00    +0.000 C 
BRANCH  11  13
ATOM     12  C   UNL     1       5.521   2.358  11.634  0.00  0.00    +0.000 C 
ATOM     13  C   UNL     1       5.241   3.392  12.715  0.00  0.00    +0.000 C 
ENDBRANCH  11  13
ENDBRANCH   7  11
ENDBRANCH   1   8
BRANCH   6  14
ATOM     14  S   UNL     1       4.147   3.501  17.429  0.00  0.00    +0.000 S 
BRANCH  14  15
ATOM     15  C   UNL     1       2.809   4.327  18.359  0.00  0.00    +0.000 C 
ATOM     16  C   UNL     1       1.492   3.596  18.151  0.00  0.00    +0.000 C 
ENDBRANCH  14  15
ENDBRANCH   6  14
TORSDOF 5
ENDMDL
MODEL 9
REMARK VINA RESULT:      -5.6      2.379      5.201
REMARK  Name = 
REMARK  7 active torsions:
REMARK  status: ('A' for Active; 'I' for Inactive)
REMARK    1  A    between atoms: C_1  and  C_2
REMARK    2  A    between atoms: C_2  and  C_3
REMARK    3  A    between atoms: C_3  and  N_4
REMARK    4  A    between atoms: C_5  and  C_7
REMARK    5  A    between atoms: C_12  and  S_13
REMARK    6  A    between atoms: S_13  and  C_14
REMARK    7  A    between atoms: C_14  and  C_15
REMARK                            x       y       z     vdW  Elec       q    Type
REMARK                         _______ _______ _______ _____ _____    ______ ____
ROOT
ATOM      1  C   UNL     1       3.640   3.714  18.630  0.00  0.00    +0.000 A 
ATOM      2  C   UNL     1       3.384   2.381  18.260  0.00  0.00    +0.000 A 
ATOM      3  C   UNL     1       2.094   1.866  18.308  0.00  0.00    +0.000 A 
ATOM      4  C   UNL     1       1.086   2.704  18.732  0.00  0.00    +0.000 A 
ATOM      5  N   UNL     1       1.285   3.991  19.090  0.00  0.00    +0.000 NA
ATOM      6  C   UNL     1       2.552   4.493  19.045  0.00  0.00    +0.000 A 
ENDROOT
BRANCH   1   8
ATOM      7  N   UNL     1       5.638   4.335  17.326  0.00  0.00    +0.000 N 
ATOM      8  C   UNL     1       5.070   4.125  18.561  0.00  0.00    +0.000 C 
ATOM      9  O   UNL     1       5.715   4.223  19.602  0.00  0.00    +0.000 OA
ATOM     10  H   UNL     1       5.064   4.250  16.493  0.00  0.00    +0.000 HD
BRANCH   7  11
ATOM     11  C   UNL     1       7.034   4.683  17.173  0.00  0.00    +0.000 C 
BRANCH  11  13
ATOM     12  C   UNL     1       7.789   6.892  18.168  0.00  0.00    +0.000 C 
ATOM     13  C   UNL     1       7.248   6.177  16.938  0.00  0.00    +0.000 C 
ENDBRANCH  11  13
ENDBRANCH   7  11
ENDBRANCH   1   8
BRANCH   6  14
ATOM     14  S   UNL     1       2.667   6.224  19.505  0.00  0.00    +0.000 S 
BRANCH  14  15
ATOM     15  C   UNL     1       2.574   7.028  17.868  0.00  0.00    +0.000 C 
ATOM     16  C   UNL     1       2.431   8.534  18.026  0.00  0.00    +0.000 C 
ENDBRANCH  14  15
ENDBRANCH   6  14
TORSDOF 5
ENDMDL
