MODEL 1
REMARK VINA RESULT:      -4.9      0.000      0.000
REMARK  Name = 
REMARK  7 active torsions:
REMARK  status: ('A' for Active; 'I' for Inactive)
REMARK    1  A    between atoms: C_1  and  N_2
REMARK    2  A    between atoms: N_2  and  C_3
REMARK    3  A    between atoms: C_3  and  C_4
REMARK    4  A    between atoms: C_4  and  N_5
REMARK    5  A    between atoms: C_4  and  P_6
REMARK    6  A    between atoms: P_6  and  O_8
REMARK    7  A    between atoms: P_6  and  O_9
REMARK                            x       y       z     vdW  Elec       q    Type
REMARK                         _______ _______ _______ _____ _____    ______ ____
ROOT
ATOM      1  C   UNL     1       6.109   5.416  18.611  0.00  0.00    +0.000 C 
ENDROOT
BRANCH   1   2
ATOM      2  N   UNL     1       7.089   5.399  19.739  0.00  0.00    +0.000 NA
ATOM      3  H   UNL     1       8.025   5.314  19.327  0.00  0.00    +0.000 HD
ATOM      4  H   UNL     1       6.939   4.532  20.258  0.00  0.00    +0.000 HD
ENDBRANCH   1   2
BRANCH   1   5
ATOM      5  P   UNL     1       7.066   4.919  17.147  0.00  0.00    +0.000 P 
ATOM      6  O   UNL     1       7.455   5.982  16.178  0.00  0.00    +0.000 OA
BRANCH   5   7
ATOM      7  O   UNL     1       8.282   4.067  17.764  0.00  0.00    +0.000 OA
ATOM      8  H   UNL     1       9.125   4.357  17.348  0.00  0.00    +0.000 HD
ENDBRANCH   5   7
BRANCH   5   9
ATOM      9  O   UNL     1       6.216   3.727  16.483  0.00  0.00    +0.000 OA
ATOM     10  H   UNL     1       6.815   3.093  16.042  0.00  0.00    +0.000 HD
ENDBRANCH   5   9
ENDBRANCH   1   5
BRANCH   1  11
ATOM     11  C   UNL     1       4.906   4.480  18.797  0.00  0.00    +0.000 C 
BRANCH  11  13
ATOM     12  C   UNL     1       4.223   2.497  19.961  0.00  0.00    +0.000 C 
ATOM     13  N   UNL     1       5.292   3.111  19.174  0.00  0.00    +0.000 NA
ATOM     14  H   UNL     1       5.439   2.548  18.337  0.00  0.00    +0.000 HD
ENDBRANCH  11  13
ENDBRANCH   1  11
TORSDOF 6
ENDMDL
MODEL 2
REMARK VINA RESULT:      -4.5      1.444      2.123
REMARK  Name = 
REMARK  7 active torsions:
REMARK  status: ('A' for Active; 'I' for Inactive)
REMARK    1  A    between atoms: C_1  and  N_2
REMARK    2  A    between atoms: N_2  and  C_3
REMARK    3  A    between atoms: C_3  and  C_4
REMARK    4  A    between atoms: C_4  and  N_5
REMARK    5  A    between atoms: C_4  and  P_6
REMARK    6  A    between atoms: P_6  and  O_8
REMARK    7  A    between atoms: P_6  and  O_9
REMARK                            x       y       z     vdW  Elec       q    Type
REMARK                         _______ _______ _______ _____ _____    ______ ____
ROOT
ATOM      1  C   UNL     1       6.079   5.951  17.216  0.00  0.00    +0.000 C 
ENDROOT
BRANCH   1   2
ATOM      2  N   UNL     1       6.993   7.124  17.075  0.00  0.00    +0.000 NA
ATOM      3  H   UNL     1       7.954   6.770  17.144  0.00  0.00    +0.000 HD
ATOM      4  H   UNL     1       6.859   7.715  17.898  0.00  0.00    +0.000 HD
ENDBRANCH   1   2
BRANCH   1   5
ATOM      5  P   UNL     1       6.820   4.648  16.188  0.00  0.00    +0.000 P 
ATOM      6  O   UNL     1       5.932   3.550  15.712  0.00  0.00    +0.000 OA
BRANCH   5   7
ATOM      7  O   UNL     1       7.586   5.468  15.036  0.00  0.00    +0.000 OA
ATOM      8  H   UNL     1       7.203   5.233  14.161  0.00  0.00    +0.000 HD
ENDBRANCH   5   7
BRANCH   5   9
ATOM      9  O   UNL     1       8.086   4.127  17.031  0.00  0.00    +0.000 OA
ATOM     10  H   UNL     1       8.354   4.802  17.685  0.00  0.00    +0.000 HD
ENDBRANCH   5   9
ENDBRANCH   1   5
BRANCH   1  11
ATOM     11  C   UNL     1       5.904   5.449  18.657  0.00  0.00    +0.000 C 
BRANCH  11  13
ATOM     12  C   UNL     1       4.582   3.552  19.296  0.00  0.00    +0.000 C 
ATOM     13  N   UNL     1       5.872   3.981  18.758  0.00  0.00    +0.000 NA
ATOM     14  H   UNL     1       5.991   3.567  17.836  0.00  0.00    +0.000 HD
ENDBRANCH  11  13
ENDBRANCH   1  11
TORSDOF 6
ENDMDL
MODEL 3
REMARK VINA RESULT:      -4.4      2.987      3.850
REMARK  Name = 
REMARK  7 active torsions:
REMARK  status: ('A' for Active; 'I' for Inactive)
REMARK    1  A    between atoms: C_1  and  N_2
REMARK    2  A    between atoms: N_2  and  C_3
REMARK    3  A    between atoms: C_3  and  C_4
REMARK    4  A    between atoms: C_4  and  N_5
REMARK    5  A    between atoms: C_4  and  P_6
REMARK    6  A    between atoms: P_6  and  O_8
REMARK    7  A    between atoms: P_6  and  O_9
REMARK                            x       y       z     vdW  Elec       q    Type
REMARK                         _______ _______ _______ _____ _____    ______ ____
ROOT
ATOM      1  C   UNL     1       6.801   4.647  17.192  0.00  0.00    +0.000 C 
ENDROOT
BRANCH   1   2
ATOM      2  N   UNL     1       8.112   4.150  17.708  0.00  0.00    +0.000 NA
ATOM      3  H   UNL     1       8.477   4.864  18.347  0.00  0.00    +0.000 HD
ATOM      4  H   UNL     1       8.761   4.130  16.919  0.00  0.00    +0.000 HD
ENDBRANCH   1   2
BRANCH   1   5
ATOM      5  P   UNL     1       5.760   4.852  18.668  0.00  0.00    +0.000 P 
ATOM      6  O   UNL     1       4.534   5.689  18.542  0.00  0.00    +0.000 OA
BRANCH   5   7
ATOM      7  O   UNL     1       5.520   3.344  19.172  0.00  0.00    +0.000 OA
ATOM      8  H   UNL     1       5.457   3.337  20.154  0.00  0.00    +0.000 HD
ENDBRANCH   5   7
BRANCH   5   9
ATOM      9  O   UNL     1       6.766   5.360  19.816  0.00  0.00    +0.000 OA
ATOM     10  H   UNL     1       6.716   4.767  20.592  0.00  0.00    +0.000 HD
ENDBRANCH   5   9
ENDBRANCH   1   5
BRANCH   1  11
ATOM     11  C   UNL     1       6.882   5.971  16.417  0.00  0.00    +0.000 C 
BRANCH  11  13
ATOM     12  C   UNL     1       7.761   7.910  17.523  0.00  0.00    +0.000 C 
ATOM     13  N   UNL     1       6.547   7.145  17.240  0.00  0.00    +0.000 NA
ATOM     14  H   UNL     1       5.896   7.746  16.738  0.00  0.00    +0.000 HD
ENDBRANCH  11  13
ENDBRANCH   1  11
TORSDOF 6
ENDMDL
MODEL 4
REMARK VINA RESULT:      -4.4      2.357      3.628
REMARK  Name = 
REMARK  7 active torsions:
REMARK  status: ('A' for Active; 'I' for Inactive)
REMARK    1  A    between atoms: C_1  and  N_2
REMARK    2  A    between atoms: N_2  and  C_3
REMARK    3  A    between atoms: C_3  and  C_4
REMARK    4  A    between atoms: C_4  and  N_5
REMARK    5  A    between atoms: C_4  and  P_6
REMARK    6  A    between atoms: P_6  and  O_8
REMARK    7  A    between atoms: P_6  and  O_9
REMARK                            x       y       z     vdW  Elec       q    Type
REMARK                         _______ _______ _______ _____ _____    ______ ____
ROOT
ATOM      1  C   UNL     1       7.327   4.977  17.685  0.00  0.00    +0.000 C 
ENDROOT
BRANCH   1   2
ATOM      2  N   UNL     1       6.494   4.098  18.561  0.00  0.00    +0.000 NA
ATOM      3  H   UNL     1       7.135   3.471  19.059  0.00  0.00    +0.000 HD
ATOM      4  H   UNL     1       5.942   3.494  17.949  0.00  0.00    +0.000 HD
ENDBRANCH   1   2
BRANCH   1   5
ATOM      5  P   UNL     1       6.454   5.016  16.090  0.00  0.00    +0.000 P 
ATOM      6  O   UNL     1       5.268   5.910  15.969  0.00  0.00    +0.000 OA
BRANCH   5   7
ATOM      7  O   UNL     1       7.629   5.276  15.025  0.00  0.00    +0.000 OA
ATOM      8  H   UNL     1       8.145   4.448  14.902  0.00  0.00    +0.000 HD
ENDBRANCH   5   7
BRANCH   5   9
ATOM      9  O   UNL     1       6.131   3.476  15.759  0.00  0.00    +0.000 OA
ATOM     10  H   UNL     1       6.316   2.919  16.540  0.00  0.00    +0.000 HD
ENDBRANCH   5   9
ENDBRANCH   1   5
BRANCH   1  11
ATOM     11  C   UNL     1       7.520   6.406  18.214  0.00  0.00    +0.000 C 
BRANCH  11  13
ATOM     12  C   UNL     1       7.930   8.715  17.713  0.00  0.00    +0.000 C 
ATOM     13  N   UNL     1       7.570   7.417  17.146  0.00  0.00    +0.000 NA
ATOM     14  H   UNL     1       8.274   7.159  16.457  0.00  0.00    +0.000 HD
ENDBRANCH  11  13
ENDBRANCH   1  11
TORSDOF 6
ENDMDL
MODEL 5
REMARK VINA RESULT:      -4.4      2.372      3.057
REMARK  Name = 
REMARK  7 active torsions:
REMARK  status: ('A' for Active; 'I' for Inactive)
REMARK    1  A    between atoms: C_1  and  N_2
REMARK    2  A    between atoms: N_2  and  C_3
REMARK    3  A    between atoms: C_3  and  C_4
REMARK    4  A    between atoms: C_4  and  N_5
REMARK    5  A    between atoms: C_4  and  P_6
REMARK    6  A    between atoms: P_6  and  O_8
REMARK    7  A    between atoms: P_6  and  O_9
REMARK                            x       y       z     vdW  Elec       q    Type
REMARK                         _______ _______ _______ _____ _____    ______ ____
ROOT
ATOM      1  C   UNL     1       5.565   4.780  17.790  0.00  0.00    +0.000 C 
ENDROOT
BRANCH   1   2
ATOM      2  N   UNL     1       5.580   3.559  18.651  0.00  0.00    +0.000 NA
ATOM      3  H   UNL     1       4.756   3.002  18.401  0.00  0.00    +0.000 HD
ATOM      4  H   UNL     1       5.423   3.864  19.613  0.00  0.00    +0.000 HD
ENDBRANCH   1   2
BRANCH   1   5
ATOM      5  P   UNL     1       7.279   5.386  17.800  0.00  0.00    +0.000 P 
ATOM      6  O   UNL     1       7.753   6.108  19.015  0.00  0.00    +0.000 OA
BRANCH   5   7
ATOM      7  O   UNL     1       8.138   4.093  17.384  0.00  0.00    +0.000 OA
ATOM      8  H   UNL     1       8.488   3.661  18.196  0.00  0.00    +0.000 HD
ENDBRANCH   5   7
BRANCH   5   9
ATOM      9  O   UNL     1       7.421   6.247  16.449  0.00  0.00    +0.000 OA
ATOM     10  H   UNL     1       8.241   6.778  16.474  0.00  0.00    +0.000 HD
ENDBRANCH   5   9
ENDBRANCH   1   5
BRANCH   1  11
ATOM     11  C   UNL     1       5.101   4.537  16.346  0.00  0.00    +0.000 C 
BRANCH  11  13
ATOM     12  C   UNL     1       5.951   4.060  14.154  0.00  0.00    +0.000 C 
ATOM     13  N   UNL     1       6.036   3.706  15.570  0.00  0.00    +0.000 NA
ATOM     14  H   UNL     1       6.990   3.869  15.886  0.00  0.00    +0.000 HD
ENDBRANCH  11  13
ENDBRANCH   1  11
TORSDOF 6
ENDMDL
MODEL 6
REMARK VINA RESULT:      -4.3      1.298      1.306
REMARK  Name = 
REMARK  7 active torsions:
REMARK  status: ('A' for Active; 'I' for Inactive)
REMARK    1  A    between atoms: C_1  and  N_2
REMARK    2  A    between atoms: N_2  and  C_3
REMARK    3  A    between atoms: C_3  and  C_4
REMARK    4  A    between atoms: C_4  and  N_5
REMARK    5  A    between atoms: C_4  and  P_6
REMARK    6  A    between atoms: P_6  and  O_8
REMARK    7  A    between atoms: P_6  and  O_9
REMARK                            x       y       z     vdW  Elec       q    Type
REMARK                         _______ _______ _______ _____ _____    ______ ____
ROOT
ATOM      1  C   UNL     1       5.475   5.538  17.557  0.00  0.00    +0.000 C 
ENDROOT
BRANCH   1   2
ATOM      2  N   UNL     1       5.726   6.998  17.368  0.00  0.00    +0.000 NA
ATOM      3  H   UNL     1       6.408   7.283  18.079  0.00  0.00    +0.000 HD
ATOM      4  H   UNL     1       4.861   7.488  17.605  0.00  0.00    +0.000 HD
ENDBRANCH   1   2
BRANCH   1   5
ATOM      5  P   UNL     1       6.754   4.707  16.568  0.00  0.00    +0.000 P 
ATOM      6  O   UNL     1       7.387   5.479  15.462  0.00  0.00    +0.000 OA
BRANCH   5   7
ATOM      7  O   UNL     1       7.765   4.124  17.673  0.00  0.00    +0.000 OA
ATOM      8  H   UNL     1       7.298   4.056  18.536  0.00  0.00    +0.000 HD
ENDBRANCH   5   7
BRANCH   5   9
ATOM      9  O   UNL     1       6.073   3.334  16.080  0.00  0.00    +0.000 OA
ATOM     10  H   UNL     1       6.703   2.594  16.179  0.00  0.00    +0.000 HD
ENDBRANCH   5   9
ENDBRANCH   1   5
BRANCH   1  11
ATOM     11  C   UNL     1       5.546   5.062  19.016  0.00  0.00    +0.000 C 
BRANCH  11  13
ATOM     12  C   UNL     1       4.027   3.259  19.457  0.00  0.00    +0.000 C 
ATOM     13  N   UNL     1       5.415   3.603  19.156  0.00  0.00    +0.000 NA
ATOM     14  H   UNL     1       5.680   3.145  18.285  0.00  0.00    +0.000 HD
ENDBRANCH  11  13
ENDBRANCH   1  11
TORSDOF 6
ENDMDL
MODEL 7
REMARK VINA RESULT:      -4.3      4.710      5.674
REMARK  Name = 
REMARK  7 active torsions:
REMARK  status: ('A' for Active; 'I' for Inactive)
REMARK    1  A    between atoms: C_1  and  N_2
REMARK    2  A    between atoms: N_2  and  C_3
REMARK    3  A    between atoms: C_3  and  C_4
REMARK    4  A    between atoms: C_4  and  N_5
REMARK    5  A    between atoms: C_4  and  P_6
REMARK    6  A    between atoms: P_6  and  O_8
REMARK    7  A    between atoms: P_6  and  O_9
REMARK                            x       y       z     vdW  Elec       q    Type
REMARK                         _______ _______ _______ _____ _____    ______ ____
ROOT
ATOM      1  C   UNL     1       2.800   2.799  19.519  0.00  0.00    +0.000 C 
ENDROOT
BRANCH   1   2
ATOM      2  N   UNL     1       1.964   1.706  18.936  0.00  0.00    +0.000 NA
ATOM      3  H   UNL     1       2.491   1.306  18.152  0.00  0.00    +0.000 HD
ATOM      4  H   UNL     1       1.141   2.142  18.519  0.00  0.00    +0.000 HD
ENDBRANCH   1   2
BRANCH   1   5
ATOM      5  P   UNL     1       1.860   3.396  20.956  0.00  0.00    +0.000 P 
ATOM      6  O   UNL     1       1.775   2.507  22.148  0.00  0.00    +0.000 OA
BRANCH   5   7
ATOM      7  O   UNL     1       2.473   4.858  21.225  0.00  0.00    +0.000 OA
ATOM      8  H   UNL     1       1.900   5.337  21.866  0.00  0.00    +0.000 HD
ENDBRANCH   5   7
BRANCH   5   9
ATOM      9  O   UNL     1       0.424   3.814  20.366  0.00  0.00    +0.000 OA
ATOM     10  H   UNL     1      -0.086   4.304  21.041  0.00  0.00    +0.000 HD
ENDBRANCH   5   9
ENDBRANCH   1   5
BRANCH   1  11
ATOM     11  C   UNL     1       4.207   2.363  19.954  0.00  0.00    +0.000 C 
BRANCH  11  13
ATOM     12  C   UNL     1       4.748   3.984  18.271  0.00  0.00    +0.000 C 
ATOM     13  N   UNL     1       5.274   3.206  19.391  0.00  0.00    +0.000 NA
ATOM     14  H   UNL     1       5.617   3.852  20.101  0.00  0.00    +0.000 HD
ENDBRANCH  11  13
ENDBRANCH   1  11
TORSDOF 6
ENDMDL
MODEL 8
REMARK VINA RESULT:      -4.3      2.227      2.796
REMARK  Name = 
REMARK  7 active torsions:
REMARK  status: ('A' for Active; 'I' for Inactive)
REMARK    1  A    between atoms: C_1  and  N_2
REMARK    2  A    between atoms: N_2  and  C_3
REMARK    3  A    between atoms: C_3  and  C_4
REMARK    4  A    between atoms: C_4  and  N_5
REMARK    5  A    between atoms: C_4  and  P_6
REMARK    6  A    between atoms: P_6  and  O_8
REMARK    7  A    between atoms: P_6  and  O_9
REMARK                            x       y       z     vdW  Elec       q    Type
REMARK                         _______ _______ _______ _____ _____    ______ ____
ROOT
ATOM      1  C   UNL     1       5.615   4.958  18.617  0.00  0.00    +0.000 C 
ENDROOT
BRANCH   1   2
ATOM      2  N   UNL     1       5.597   3.602  19.241  0.00  0.00    +0.000 NA
ATOM      3  H   UNL     1       6.017   3.691  20.173  0.00  0.00    +0.000 HD
ATOM      4  H   UNL     1       6.238   3.012  18.707  0.00  0.00    +0.000 HD
ENDBRANCH   1   2
BRANCH   1   5
ATOM      5  P   UNL     1       7.366   5.449  18.605  0.00  0.00    +0.000 P 
ATOM      6  O   UNL     1       7.732   6.700  17.884  0.00  0.00    +0.000 OA
BRANCH   5   7
ATOM      7  O   UNL     1       7.782   5.397  20.157  0.00  0.00    +0.000 OA
ATOM      8  H   UNL     1       8.255   4.554  20.338  0.00  0.00    +0.000 HD
ENDBRANCH   5   7
BRANCH   5   9
ATOM      9  O   UNL     1       8.155   4.152  18.075  0.00  0.00    +0.000 OA
ATOM     10  H   UNL     1       7.730   3.809  17.264  0.00  0.00    +0.000 HD
ENDBRANCH   5   9
ENDBRANCH   1   5
BRANCH   1  11
ATOM     11  C   UNL     1       5.044   5.013  17.192  0.00  0.00    +0.000 C 
BRANCH  11  13
ATOM     12  C   UNL     1       6.006   3.954  15.267  0.00  0.00    +0.000 C 
ATOM     13  N   UNL     1       6.083   5.112  16.155  0.00  0.00    +0.000 NA
ATOM     14  H   UNL     1       5.940   5.954  15.600  0.00  0.00    +0.000 HD
ENDBRANCH  11  13
ENDBRANCH   1  11
TORSDOF 6
ENDMDL
MODEL 9
REMARK VINA RESULT:      -4.3      1.623      1.830
REMARK  Name = 
REMARK  7 active torsions:
REMARK  status: ('A' for Active; 'I' for Inactive)
REMARK    1  A    between atoms: C_1  and  N_2
REMARK    2  A    between atoms: N_2  and  C_3
REMARK    3  A    between atoms: C_3  and  C_4
REMARK    4  A    between atoms: C_4  and  N_5
REMARK    5  A    between atoms: C_4  and  P_6
REMARK    6  A    between atoms: P_6  and  O_8
REMARK    7  A    between atoms: P_6  and  O_9
REMARK                            x       y       z     vdW  Elec       q    Type
REMARK                         _______ _______ _______ _____ _____    ______ ____
ROOT
ATOM      1  C   UNL     1       7.058   5.075  17.686  0.00  0.00    +0.000 C 
ENDROOT
BRANCH   1   2
ATOM      2  N   UNL     1       8.192   4.103  17.677  0.00  0.00    +0.000 NA
ATOM      3  H   UNL     1       7.809   3.188  17.937  0.00  0.00    +0.000 HD
ATOM      4  H   UNL     1       8.821   4.363  18.439  0.00  0.00    +0.000 HD
ENDBRANCH   1   2
BRANCH   1   5
ATOM      5  P   UNL     1       6.349   4.990  16.014  0.00  0.00    +0.000 P 
ATOM      6  O   UNL     1       5.077   5.724  15.760  0.00  0.00    +0.000 OA
BRANCH   5   7
ATOM      7  O   UNL     1       7.581   5.391  15.062  0.00  0.00    +0.000 OA
ATOM      8  H   UNL     1       8.348   5.656  15.619  0.00  0.00    +0.000 HD
ENDBRANCH   5   7
BRANCH   5   9
ATOM      9  O   UNL     1       6.258   3.419  15.683  0.00  0.00    +0.000 OA
ATOM     10  H   UNL     1       7.050   2.958  16.025  0.00  0.00    +0.000 HD
ENDBRANCH   5   9
ENDBRANCH   1   5
BRANCH   1  11
ATOM     11  C   UNL     1       5.973   4.780  18.733  0.00  0.00    +0.000 C 
BRANCH  11  13
ATOM     12  C   UNL     1       4.271   3.268  19.487  0.00  0.00    +0.000 C 
ATOM     13  N   UNL     1       5.068   3.690  18.336  0.00  0.00    +0.000 NA
ATOM     14  H   UNL     1       4.435   4.012  17.607  0.00  0.00    +0.000 HD
ENDBRANCH  11  13
ENDBRANCH   1  11
TORSDOF 6
ENDMDL
