MODEL 1
REMARK VINA RESULT:      -8.3      0.000      0.000
REMARK  Name = 
REMARK  6 active torsions:
REMARK  status: ('A' for Active; 'I' for Inactive)
REMARK    1  A    between atoms: C_2  and  C_3
REMARK    2  A    between atoms: C_3  and  N_4
REMARK    3  A    between atoms: N_4  and  C_5
REMARK    4  A    between atoms: N_4  and  S_11
REMARK    5  A    between atoms: S_11  and  C_14
REMARK    6  A    between atoms: C_19  and  N_20
REMARK                            x       y       z     vdW  Elec       q    Type
REMARK                         _______ _______ _______ _____ _____    ______ ____
ROOT
ATOM      1  N   UNL     1       4.225   5.485  17.188  0.00  0.00    +0.000 N 
ENDROOT
BRANCH   1   2
ATOM      2  C   UNL     1       3.457   6.486  17.890  0.00  0.00    +0.000 A 
ATOM      3  C   UNL     1       3.155   6.383  19.251  0.00  0.00    +0.000 A 
ATOM      4  C   UNL     1       2.346   7.333  19.888  0.00  0.00    +0.000 A 
ATOM      5  C   UNL     1       1.881   8.430  19.180  0.00  0.00    +0.000 A 
ATOM      6  C   UNL     1       2.225   8.577  17.836  0.00  0.00    +0.000 A 
ATOM      7  C   UNL     1       2.999   7.603  17.193  0.00  0.00    +0.000 A 
ENDBRANCH   1   2
BRANCH   1   8
ATOM      8  S   UNL     1       5.459   5.940  16.114  0.00  0.00    +0.000 S 
ATOM      9  O   UNL     1       6.112   4.755  15.602  0.00  0.00    +0.000 OA
ATOM     10  O   UNL     1       4.896   6.937  15.243  0.00  0.00    +0.000 OA
BRANCH   8  11
ATOM     11  C   UNL     1       6.705   6.784  17.075  0.00  0.00    +0.000 A 
ATOM     12  C   UNL     1       6.916   8.156  16.925  0.00  0.00    +0.000 A 
ATOM     13  C   UNL     1       7.730   8.863  17.812  0.00  0.00    +0.000 A 
ATOM     14  C   UNL     1       8.431   8.190  18.806  0.00  0.00    +0.000 A 
ATOM     15  C   UNL     1       8.312   6.806  18.912  0.00  0.00    +0.000 A 
ATOM     16  C   UNL     1       7.432   6.111  18.061  0.00  0.00    +0.000 A 
BRANCH  16  17
ATOM     17  N   UNL     1       7.386   4.668  18.219  0.00  0.00    +0.000 N 
ATOM     18  O   UNL     1       8.297   4.014  17.706  0.00  0.00    +0.000 OA
ATOM     19  O   UNL     1       6.507   4.217  18.966  0.00  0.00    +0.000 OA
ENDBRANCH  16  17
ENDBRANCH   8  11
ENDBRANCH   1   8
BRANCH   1  20
ATOM     20  C   UNL     1       3.798   4.064  17.199  0.00  0.00    +0.000 C 
BRANCH  20  22
ATOM     21  O   UNL     1       1.397   4.089  17.137  0.00  0.00    +0.000 OA
ATOM     22  C   UNL     1       2.408   3.835  17.802  0.00  0.00    +0.000 C 
ATOM     23  N   UNL     1       2.300   3.269  19.062  0.00  0.00    +0.000 N 
ATOM     24  C   UNL     1       1.002   2.926  19.624  0.00  0.00    +0.000 C 
ATOM     25  C   UNL     1       1.208   3.002  21.126  0.00  0.00    +0.000 C 
ATOM     26  C   UNL     1       2.644   2.522  21.296  0.00  0.00    +0.000 C 
ATOM     27  C   UNL     1       3.357   3.050  20.052  0.00  0.00    +0.000 C 
ENDBRANCH  20  22
ENDBRANCH   1  20
TORSDOF 6
ENDMDL
MODEL 2
REMARK VINA RESULT:      -8.1      2.299      5.714
REMARK  Name = 
REMARK  6 active torsions:
REMARK  status: ('A' for Active; 'I' for Inactive)
REMARK    1  A    between atoms: C_2  and  C_3
REMARK    2  A    between atoms: C_3  and  N_4
REMARK    3  A    between atoms: N_4  and  C_5
REMARK    4  A    between atoms: N_4  and  S_11
REMARK    5  A    between atoms: S_11  and  C_14
REMARK    6  A    between atoms: C_19  and  N_20
REMARK                            x       y       z     vdW  Elec       q    Type
REMARK                         _______ _______ _______ _____ _____    ______ ____
ROOT
ATOM      1  N   UNL     1       4.299   4.548  17.475  0.00  0.00    +0.000 N 
ENDROOT
BRANCH   1   2
ATOM      2  C   UNL     1       5.256   4.612  16.397  0.00  0.00    +0.000 A 
ATOM      3  C   UNL     1       4.914   4.329  15.071  0.00  0.00    +0.000 A 
ATOM      4  C   UNL     1       5.880   4.328  14.058  0.00  0.00    +0.000 A 
ATOM      5  C   UNL     1       7.190   4.671  14.352  0.00  0.00    +0.000 A 
ATOM      6  C   UNL     1       7.533   5.015  15.660  0.00  0.00    +0.000 A 
ATOM      7  C   UNL     1       6.572   4.973  16.678  0.00  0.00    +0.000 A 
ENDBRANCH   1   2
BRANCH   1   8
ATOM      8  S   UNL     1       3.139   3.308  17.528  0.00  0.00    +0.000 S 
ATOM      9  O   UNL     1       2.000   3.679  16.717  0.00  0.00    +0.000 OA
ATOM     10  O   UNL     1       3.850   2.074  17.323  0.00  0.00    +0.000 OA
BRANCH   8  11
ATOM     11  C   UNL     1       2.522   3.239  19.202  0.00  0.00    +0.000 A 
ATOM     12  C   UNL     1       1.212   3.623  19.497  0.00  0.00    +0.000 A 
ATOM     13  C   UNL     1       0.653   3.377  20.752  0.00  0.00    +0.000 A 
ATOM     14  C   UNL     1       1.429   2.834  21.769  0.00  0.00    +0.000 A 
ATOM     15  C   UNL     1       2.767   2.533  21.526  0.00  0.00    +0.000 A 
ATOM     16  C   UNL     1       3.304   2.716  20.237  0.00  0.00    +0.000 A 
BRANCH  16  17
ATOM     17  N   UNL     1       4.711   2.404  20.072  0.00  0.00    +0.000 N 
ATOM     18  O   UNL     1       5.490   3.354  19.949  0.00  0.00    +0.000 OA
ATOM     19  O   UNL     1       5.039   1.217  20.198  0.00  0.00    +0.000 OA
ENDBRANCH  16  17
ENDBRANCH   8  11
ENDBRANCH   1   8
BRANCH   1  20
ATOM     20  C   UNL     1       4.147   5.685  18.416  0.00  0.00    +0.000 C 
BRANCH  20  22
ATOM     21  O   UNL     1       3.838   7.280  16.647  0.00  0.00    +0.000 OA
ATOM     22  C   UNL     1       3.516   6.933  17.790  0.00  0.00    +0.000 C 
ATOM     23  N   UNL     1       2.532   7.617  18.484  0.00  0.00    +0.000 N 
ATOM     24  C   UNL     1       1.824   8.736  17.879  0.00  0.00    +0.000 C 
ATOM     25  C   UNL     1       1.392   9.591  19.058  0.00  0.00    +0.000 C 
ATOM     26  C   UNL     1       1.101   8.558  20.138  0.00  0.00    +0.000 C 
ATOM     27  C   UNL     1       2.135   7.461  19.886  0.00  0.00    +0.000 C 
ENDBRANCH  20  22
ENDBRANCH   1  20
TORSDOF 6
ENDMDL
MODEL 3
REMARK VINA RESULT:      -7.9      2.304      5.691
REMARK  Name = 
REMARK  6 active torsions:
REMARK  status: ('A' for Active; 'I' for Inactive)
REMARK    1  A    between atoms: C_2  and  C_3
REMARK    2  A    between atoms: C_3  and  N_4
REMARK    3  A    between atoms: N_4  and  C_5
REMARK    4  A    between atoms: N_4  and  S_11
REMARK    5  A    between atoms: S_11  and  C_14
REMARK    6  A    between atoms: C_19  and  N_20
REMARK                            x       y       z     vdW  Elec       q    Type
REMARK                         _______ _______ _______ _____ _____    ______ ____
ROOT
ATOM      1  N   UNL     1       4.314   4.541  17.528  0.00  0.00    +0.000 N 
ENDROOT
BRANCH   1   2
ATOM      2  C   UNL     1       5.296   4.585  16.472  0.00  0.00    +0.000 A 
ATOM      3  C   UNL     1       6.637   4.905  16.706  0.00  0.00    +0.000 A 
ATOM      4  C   UNL     1       7.551   5.012  15.650  0.00  0.00    +0.000 A 
ATOM      5  C   UNL     1       7.145   4.739  14.354  0.00  0.00    +0.000 A 
ATOM      6  C   UNL     1       5.824   4.359  14.113  0.00  0.00    +0.000 A 
ATOM      7  C   UNL     1       4.903   4.294  15.167  0.00  0.00    +0.000 A 
ENDBRANCH   1   2
BRANCH   1   8
ATOM      8  S   UNL     1       3.141   3.313  17.566  0.00  0.00    +0.000 S 
ATOM      9  O   UNL     1       2.008   3.705  16.756  0.00  0.00    +0.000 OA
ATOM     10  O   UNL     1       3.839   2.074  17.352  0.00  0.00    +0.000 OA
BRANCH   8  11
ATOM     11  C   UNL     1       2.518   3.236  19.238  0.00  0.00    +0.000 A 
ATOM     12  C   UNL     1       1.210   3.627  19.532  0.00  0.00    +0.000 A 
ATOM     13  C   UNL     1       0.646   3.374  20.784  0.00  0.00    +0.000 A 
ATOM     14  C   UNL     1       1.415   2.817  21.799  0.00  0.00    +0.000 A 
ATOM     15  C   UNL     1       2.752   2.509  21.556  0.00  0.00    +0.000 A 
ATOM     16  C   UNL     1       3.293   2.699  20.271  0.00  0.00    +0.000 A 
BRANCH  16  17
ATOM     17  N   UNL     1       4.699   2.378  20.107  0.00  0.00    +0.000 N 
ATOM     18  O   UNL     1       5.004   1.182  20.064  0.00  0.00    +0.000 OA
ATOM     19  O   UNL     1       5.467   3.325  19.894  0.00  0.00    +0.000 OA
ENDBRANCH  16  17
ENDBRANCH   8  11
ENDBRANCH   1   8
BRANCH   1  20
ATOM     20  C   UNL     1       4.152   5.689  18.454  0.00  0.00    +0.000 C 
BRANCH  20  22
ATOM     21  O   UNL     1       3.867   7.265  16.665  0.00  0.00    +0.000 OA
ATOM     22  C   UNL     1       3.530   6.931  17.807  0.00  0.00    +0.000 C 
ATOM     23  N   UNL     1       2.538   7.623  18.481  0.00  0.00    +0.000 N 
ATOM     24  C   UNL     1       1.839   8.736  17.855  0.00  0.00    +0.000 C 
ATOM     25  C   UNL     1       1.393   9.604  19.019  0.00  0.00    +0.000 C 
ATOM     26  C   UNL     1       1.088   8.583  20.107  0.00  0.00    +0.000 C 
ATOM     27  C   UNL     1       2.123   7.483  19.879  0.00  0.00    +0.000 C 
ENDBRANCH  20  22
ENDBRANCH   1  20
TORSDOF 6
ENDMDL
MODEL 4
REMARK VINA RESULT:      -7.8      2.253      4.759
REMARK  Name = 
REMARK  6 active torsions:
REMARK  status: ('A' for Active; 'I' for Inactive)
REMARK    1  A    between atoms: C_2  and  C_3
REMARK    2  A    between atoms: C_3  and  N_4
REMARK    3  A    between atoms: N_4  and  C_5
REMARK    4  A    between atoms: N_4  and  S_11
REMARK    5  A    between atoms: S_11  and  C_14
REMARK    6  A    between atoms: C_19  and  N_20
REMARK                            x       y       z     vdW  Elec       q    Type
REMARK                         _______ _______ _______ _____ _____    ______ ____
ROOT
ATOM      1  N   UNL     1       3.702   4.962  19.401  0.00  0.00    +0.000 N 
ENDROOT
BRANCH   1   2
ATOM      2  C   UNL     1       2.566   4.083  19.532  0.00  0.00    +0.000 A 
ATOM      3  C   UNL     1       1.875   3.579  18.425  0.00  0.00    +0.000 A 
ATOM      4  C   UNL     1       0.730   2.788  18.584  0.00  0.00    +0.000 A 
ATOM      5  C   UNL     1       0.302   2.440  19.856  0.00  0.00    +0.000 A 
ATOM      6  C   UNL     1       1.017   2.885  20.968  0.00  0.00    +0.000 A 
ATOM      7  C   UNL     1       2.137   3.712  20.805  0.00  0.00    +0.000 A 
ENDBRANCH   1   2
BRANCH   1   8
ATOM      8  S   UNL     1       5.261   4.329  19.161  0.00  0.00    +0.000 S 
ATOM      9  O   UNL     1       6.239   5.230  19.731  0.00  0.00    +0.000 OA
ATOM     10  O   UNL     1       5.199   2.939  19.527  0.00  0.00    +0.000 OA
BRANCH   8  11
ATOM     11  C   UNL     1       5.569   4.353  17.402  0.00  0.00    +0.000 A 
ATOM     12  C   UNL     1       4.560   4.025  16.495  0.00  0.00    +0.000 A 
ATOM     13  C   UNL     1       4.722   4.243  15.125  0.00  0.00    +0.000 A 
ATOM     14  C   UNL     1       5.938   4.699  14.628  0.00  0.00    +0.000 A 
ATOM     15  C   UNL     1       6.991   4.940  15.507  0.00  0.00    +0.000 A 
ATOM     16  C   UNL     1       6.797   4.787  16.893  0.00  0.00    +0.000 A 
BRANCH  16  17
ATOM     17  N   UNL     1       7.952   5.033  17.738  0.00  0.00    +0.000 N 
ATOM     18  O   UNL     1       8.684   4.071  17.988  0.00  0.00    +0.000 OA
ATOM     19  O   UNL     1       8.185   6.212  18.036  0.00  0.00    +0.000 OA
ENDBRANCH  16  17
ENDBRANCH   8  11
ENDBRANCH   1   8
BRANCH   1  20
ATOM     20  C   UNL     1       3.577   6.407  19.716  0.00  0.00    +0.000 C 
BRANCH  20  22
ATOM     21  O   UNL     1       3.462   7.070  17.411  0.00  0.00    +0.000 OA
ATOM     22  C   UNL     1       3.038   7.253  18.558  0.00  0.00    +0.000 C 
ATOM     23  N   UNL     1       2.023   8.164  18.799  0.00  0.00    +0.000 N 
ATOM     24  C   UNL     1       1.402   8.903  17.710  0.00  0.00    +0.000 C 
ATOM     25  C   UNL     1       0.903  10.183  18.358  0.00  0.00    +0.000 C 
ATOM     26  C   UNL     1       0.494   9.721  19.750  0.00  0.00    +0.000 C 
ATOM     27  C   UNL     1       1.509   8.631  20.089  0.00  0.00    +0.000 C 
ENDBRANCH  20  22
ENDBRANCH   1  20
TORSDOF 6
ENDMDL
MODEL 5
REMARK VINA RESULT:      -7.8      2.791      6.105
REMARK  Name = 
REMARK  6 active torsions:
REMARK  status: ('A' for Active; 'I' for Inactive)
REMARK    1  A    between atoms: C_2  and  C_3
REMARK    2  A    between atoms: C_3  and  N_4
REMARK    3  A    between atoms: N_4  and  C_5
REMARK    4  A    between atoms: N_4  and  S_11
REMARK    5  A    between atoms: S_11  and  C_14
REMARK    6  A    between atoms: C_19  and  N_20
REMARK                            x       y       z     vdW  Elec       q    Type
REMARK                         _______ _______ _______ _____ _____    ______ ____
ROOT
ATOM      1  N   UNL     1       3.131   5.956  19.151  0.00  0.00    +0.000 N 
ENDROOT
BRANCH   1   2
ATOM      2  C   UNL     1       2.313   4.797  19.416  0.00  0.00    +0.000 A 
ATOM      3  C   UNL     1       1.990   4.387  20.714  0.00  0.00    +0.000 A 
ATOM      4  C   UNL     1       1.255   3.217  20.941  0.00  0.00    +0.000 A 
ATOM      5  C   UNL     1       0.782   2.478  19.869  0.00  0.00    +0.000 A 
ATOM      6  C   UNL     1       1.045   2.909  18.568  0.00  0.00    +0.000 A 
ATOM      7  C   UNL     1       1.816   4.057  18.345  0.00  0.00    +0.000 A 
ENDBRANCH   1   2
BRANCH   1   8
ATOM      8  S   UNL     1       2.466   7.333  18.412  0.00  0.00    +0.000 S 
ATOM      9  O   UNL     1       3.532   8.186  17.935  0.00  0.00    +0.000 OA
ATOM     10  O   UNL     1       1.417   6.866  17.545  0.00  0.00    +0.000 OA
BRANCH   8  11
ATOM     11  C   UNL     1       1.652   8.273  19.695  0.00  0.00    +0.000 A 
ATOM     12  C   UNL     1       1.689   7.848  21.024  0.00  0.00    +0.000 A 
ATOM     13  C   UNL     1       1.244   8.674  22.058  0.00  0.00    +0.000 A 
ATOM     14  C   UNL     1       0.658   9.902  21.770  0.00  0.00    +0.000 A 
ATOM     15  C   UNL     1       0.522  10.302  20.443  0.00  0.00    +0.000 A 
ATOM     16  C   UNL     1       1.039   9.497  19.411  0.00  0.00    +0.000 A 
BRANCH  16  17
ATOM     17  N   UNL     1       0.833   9.973  18.055  0.00  0.00    +0.000 N 
ATOM     18  O   UNL     1      -0.288   9.814  17.565  0.00  0.00    +0.000 OA
ATOM     19  O   UNL     1       1.758  10.617  17.543  0.00  0.00    +0.000 OA
ENDBRANCH  16  17
ENDBRANCH   8  11
ENDBRANCH   1   8
BRANCH   1  20
ATOM     20  C   UNL     1       4.607   5.882  19.288  0.00  0.00    +0.000 C 
BRANCH  20  22
ATOM     21  O   UNL     1       5.561   3.682  19.157  0.00  0.00    +0.000 OA
ATOM     22  C   UNL     1       5.245   4.707  18.541  0.00  0.00    +0.000 C 
ATOM     23  N   UNL     1       5.392   4.776  17.165  0.00  0.00    +0.000 N 
ATOM     24  C   UNL     1       5.884   3.638  16.403  0.00  0.00    +0.000 C 
ATOM     25  C   UNL     1       6.527   4.256  15.174  0.00  0.00    +0.000 C 
ATOM     26  C   UNL     1       5.643   5.465  14.901  0.00  0.00    +0.000 C 
ATOM     27  C   UNL     1       5.231   5.942  16.293  0.00  0.00    +0.000 C 
ENDBRANCH  20  22
ENDBRANCH   1  20
TORSDOF 6
ENDMDL
MODEL 6
REMARK VINA RESULT:      -7.8      2.311      4.767
REMARK  Name = 
REMARK  6 active torsions:
REMARK  status: ('A' for Active; 'I' for Inactive)
REMARK    1  A    between atoms: C_2  and  C_3
REMARK    2  A    between atoms: C_3  and  N_4
REMARK    3  A    between atoms: N_4  and  C_5
REMARK    4  A    between atoms: N_4  and  S_11
REMARK    5  A    between atoms: S_11  and  C_14
REMARK    6  A    between atoms: C_19  and  N_20
REMARK                            x       y       z     vdW  Elec       q    Type
REMARK                         _______ _______ _______ _____ _____    ______ ____
ROOT
ATOM      1  N   UNL     1       3.270   5.097  18.808  0.00  0.00    +0.000 N 
ENDROOT
BRANCH   1   2
ATOM      2  C   UNL     1       2.304   4.107  19.220  0.00  0.00    +0.000 A 
ATOM      3  C   UNL     1       2.077   3.794  20.564  0.00  0.00    +0.000 A 
ATOM      4  C   UNL     1       1.186   2.777  20.930  0.00  0.00    +0.000 A 
ATOM      5  C   UNL     1       0.466   2.105  19.955  0.00  0.00    +0.000 A 
ATOM      6  C   UNL     1       0.639   2.449  18.614  0.00  0.00    +0.000 A 
ATOM      7  C   UNL     1       1.562   3.437  18.250  0.00  0.00    +0.000 A 
ENDBRANCH   1   2
BRANCH   1   8
ATOM      8  S   UNL     1       4.933   4.817  19.010  0.00  0.00    +0.000 S 
ATOM      9  O   UNL     1       5.545   5.976  19.622  0.00  0.00    +0.000 OA
ATOM     10  O   UNL     1       5.061   3.499  19.575  0.00  0.00    +0.000 OA
BRANCH   8  11
ATOM     11  C   UNL     1       5.650   4.715  17.377  0.00  0.00    +0.000 A 
ATOM     12  C   UNL     1       4.901   4.243  16.297  0.00  0.00    +0.000 A 
ATOM     13  C   UNL     1       5.373   4.357  14.988  0.00  0.00    +0.000 A 
ATOM     14  C   UNL     1       6.649   4.852  14.744  0.00  0.00    +0.000 A 
ATOM     15  C   UNL     1       7.451   5.238  15.816  0.00  0.00    +0.000 A 
ATOM     16  C   UNL     1       6.941   5.189  17.127  0.00  0.00    +0.000 A 
BRANCH  16  17
ATOM     17  N   UNL     1       7.849   5.583  18.189  0.00  0.00    +0.000 N 
ATOM     18  O   UNL     1       8.414   4.681  18.813  0.00  0.00    +0.000 OA
ATOM     19  O   UNL     1       8.085   6.794  18.301  0.00  0.00    +0.000 OA
ENDBRANCH  16  17
ENDBRANCH   8  11
ENDBRANCH   1   8
BRANCH   1  20
ATOM     20  C   UNL     1       2.834   6.464  18.431  0.00  0.00    +0.000 C 
BRANCH  20  22
ATOM     21  O   UNL     1       2.191   6.789  20.722  0.00  0.00    +0.000 OA
ATOM     22  C   UNL     1       2.180   7.248  19.573  0.00  0.00    +0.000 C 
ATOM     23  N   UNL     1       1.652   8.503  19.320  0.00  0.00    +0.000 N 
ATOM     24  C   UNL     1       1.128   9.330  20.397  0.00  0.00    +0.000 C 
ATOM     25  C   UNL     1       0.093  10.215  19.725  0.00  0.00    +0.000 C 
ATOM     26  C   UNL     1       0.693  10.452  18.346  0.00  0.00    +0.000 C 
ATOM     27  C   UNL     1       1.405   9.139  18.023  0.00  0.00    +0.000 C 
ENDBRANCH  20  22
ENDBRANCH   1  20
TORSDOF 6
ENDMDL
MODEL 7
REMARK VINA RESULT:      -7.7      2.202      4.638
REMARK  Name = 
REMARK  6 active torsions:
REMARK  status: ('A' for Active; 'I' for Inactive)
REMARK    1  A    between atoms: C_2  and  C_3
REMARK    2  A    between atoms: C_3  and  N_4
REMARK    3  A    between atoms: N_4  and  C_5
REMARK    4  A    between atoms: N_4  and  S_11
REMARK    5  A    between atoms: S_11  and  C_14
REMARK    6  A    between atoms: C_19  and  N_20
REMARK                            x       y       z     vdW  Elec       q    Type
REMARK                         _______ _______ _______ _____ _____    ______ ____
ROOT
ATOM      1  N   UNL     1       3.937   5.225  19.200  0.00  0.00    +0.000 N 
ENDROOT
BRANCH   1   2
ATOM      2  C   UNL     1       2.758   4.397  19.290  0.00  0.00    +0.000 A 
ATOM      3  C   UNL     1       2.107   4.146  20.501  0.00  0.00    +0.000 A 
ATOM      4  C   UNL     1       1.009   3.279  20.568  0.00  0.00    +0.000 A 
ATOM      5  C   UNL     1       0.513   2.701  19.410  0.00  0.00    +0.000 A 
ATOM      6  C   UNL     1       1.117   2.990  18.185  0.00  0.00    +0.000 A 
ATOM      7  C   UNL     1       2.240   3.824  18.129  0.00  0.00    +0.000 A 
ENDBRANCH   1   2
BRANCH   1   8
ATOM      8  S   UNL     1       5.479   4.522  19.083  0.00  0.00    +0.000 S 
ATOM      9  O   UNL     1       6.439   5.350  19.780  0.00  0.00    +0.000 OA
ATOM     10  O   UNL     1       5.316   3.125  19.385  0.00  0.00    +0.000 OA
BRANCH   8  11
ATOM     11  C   UNL     1       5.958   4.595  17.364  0.00  0.00    +0.000 A 
ATOM     12  C   UNL     1       5.597   3.578  16.479  0.00  0.00    +0.000 A 
ATOM     13  C   UNL     1       5.778   3.721  15.101  0.00  0.00    +0.000 A 
ATOM     14  C   UNL     1       6.420   4.846  14.594  0.00  0.00    +0.000 A 
ATOM     15  C   UNL     1       6.876   5.829  15.469  0.00  0.00    +0.000 A 
ATOM     16  C   UNL     1       6.624   5.711  16.849  0.00  0.00    +0.000 A 
BRANCH  16  17
ATOM     17  N   UNL     1       7.155   6.764  17.695  0.00  0.00    +0.000 N 
ATOM     18  O   UNL     1       8.174   6.509  18.343  0.00  0.00    +0.000 OA
ATOM     19  O   UNL     1       6.621   7.878  17.602  0.00  0.00    +0.000 OA
ENDBRANCH  16  17
ENDBRANCH   8  11
ENDBRANCH   1   8
BRANCH   1  20
ATOM     20  C   UNL     1       3.852   6.685  19.453  0.00  0.00    +0.000 C 
BRANCH  20  22
ATOM     21  O   UNL     1       3.460   7.332  17.173  0.00  0.00    +0.000 OA
ATOM     22  C   UNL     1       3.123   7.467  18.356  0.00  0.00    +0.000 C 
ATOM     23  N   UNL     1       2.039   8.260  18.694  0.00  0.00    +0.000 N 
ATOM     24  C   UNL     1       1.246   8.926  17.671  0.00  0.00    +0.000 C 
ATOM     25  C   UNL     1       0.669  10.143  18.373  0.00  0.00    +0.000 C 
ATOM     26  C   UNL     1       0.438   9.639  19.791  0.00  0.00    +0.000 C 
ATOM     27  C   UNL     1       1.594   8.667  20.029  0.00  0.00    +0.000 C 
ENDBRANCH  20  22
ENDBRANCH   1  20
TORSDOF 6
ENDMDL
MODEL 8
REMARK VINA RESULT:      -7.6      2.849      5.967
REMARK  Name = 
REMARK  6 active torsions:
REMARK  status: ('A' for Active; 'I' for Inactive)
REMARK    1  A    between atoms: C_2  and  C_3
REMARK    2  A    between atoms: C_3  and  N_4
REMARK    3  A    between atoms: N_4  and  C_5
REMARK    4  A    between atoms: N_4  and  S_11
REMARK    5  A    between atoms: S_11  and  C_14
REMARK    6  A    between atoms: C_19  and  N_20
REMARK                            x       y       z     vdW  Elec       q    Type
REMARK                         _______ _______ _______ _____ _____    ______ ____
ROOT
ATOM      1  N   UNL     1       5.412   5.382  16.814  0.00  0.00    +0.000 N 
ENDROOT
BRANCH   1   2
ATOM      2  C   UNL     1       6.455   6.143  17.460  0.00  0.00    +0.000 A 
ATOM      3  C   UNL     1       7.269   5.603  18.459  0.00  0.00    +0.000 A 
ATOM      4  C   UNL     1       8.224   6.388  19.119  0.00  0.00    +0.000 A 
ATOM      5  C   UNL     1       8.415   7.707  18.740  0.00  0.00    +0.000 A 
ATOM      6  C   UNL     1       7.650   8.242  17.703  0.00  0.00    +0.000 A 
ATOM      7  C   UNL     1       6.668   7.465  17.075  0.00  0.00    +0.000 A 
ENDBRANCH   1   2
BRANCH   1   8
ATOM      8  S   UNL     1       4.583   4.164  17.659  0.00  0.00    +0.000 S 
ATOM      9  O   UNL     1       3.684   3.479  16.756  0.00  0.00    +0.000 OA
ATOM     10  O   UNL     1       5.570   3.459  18.433  0.00  0.00    +0.000 OA
BRANCH   8  11
ATOM     11  C   UNL     1       3.526   4.977  18.847  0.00  0.00    +0.000 A 
ATOM     12  C   UNL     1       3.367   6.364  18.830  0.00  0.00    +0.000 A 
ATOM     13  C   UNL     1       2.389   6.988  19.607  0.00  0.00    +0.000 A 
ATOM     14  C   UNL     1       1.620   6.243  20.494  0.00  0.00    +0.000 A 
ATOM     15  C   UNL     1       1.829   4.870  20.598  0.00  0.00    +0.000 A 
ATOM     16  C   UNL     1       2.766   4.238  19.759  0.00  0.00    +0.000 A 
BRANCH  16  17
ATOM     17  N   UNL     1       2.943   2.810  19.948  0.00  0.00    +0.000 N 
ATOM     18  O   UNL     1       3.706   2.450  20.849  0.00  0.00    +0.000 OA
ATOM     19  O   UNL     1       2.217   2.063  19.278  0.00  0.00    +0.000 OA
ENDBRANCH  16  17
ENDBRANCH   8  11
ENDBRANCH   1   8
BRANCH   1  20
ATOM     20  C   UNL     1       5.210   5.475  15.347  0.00  0.00    +0.000 C 
BRANCH  20  22
ATOM     21  O   UNL     1       7.543   5.271  14.815  0.00  0.00    +0.000 OA
ATOM     22  C   UNL     1       6.387   4.946  14.521  0.00  0.00    +0.000 C 
ATOM     23  N   UNL     1       6.146   4.043  13.498  0.00  0.00    +0.000 N 
ATOM     24  C   UNL     1       7.242   3.426  12.766  0.00  0.00    +0.000 C 
ATOM     25  C   UNL     1       6.652   3.101  11.405  0.00  0.00    +0.000 C 
ATOM     26  C   UNL     1       5.210   2.742  11.738  0.00  0.00    +0.000 C 
ATOM     27  C   UNL     1       4.861   3.666  12.904  0.00  0.00    +0.000 C 
ENDBRANCH  20  22
ENDBRANCH   1  20
TORSDOF 6
ENDMDL
MODEL 9
REMARK VINA RESULT:      -7.5      2.855      6.062
REMARK  Name = 
REMARK  6 active torsions:
REMARK  status: ('A' for Active; 'I' for Inactive)
REMARK    1  A    between atoms: C_2  and  C_3
REMARK    2  A    between atoms: C_3  and  N_4
REMARK    3  A    between atoms: N_4  and  C_5
REMARK    4  A    between atoms: N_4  and  S_11
REMARK    5  A    between atoms: S_11  and  C_14
REMARK    6  A    between atoms: C_19  and  N_20
REMARK                            x       y       z     vdW  Elec       q    Type
REMARK                         _______ _______ _______ _____ _____    ______ ____
ROOT
ATOM      1  N   UNL     1       5.325   5.220  17.017  0.00  0.00    +0.000 N 
ENDROOT
BRANCH   1   2
ATOM      2  C   UNL     1       6.340   6.086  17.568  0.00  0.00    +0.000 A 
ATOM      3  C   UNL     1       6.514   7.406  17.141  0.00  0.00    +0.000 A 
ATOM      4  C   UNL     1       7.554   8.199  17.642  0.00  0.00    +0.000 A 
ATOM      5  C   UNL     1       8.395   7.697  18.622  0.00  0.00    +0.000 A 
ATOM      6  C   UNL     1       8.195   6.402  19.101  0.00  0.00    +0.000 A 
ATOM      7  C   UNL     1       7.179   5.598  18.567  0.00  0.00    +0.000 A 
ENDBRANCH   1   2
BRANCH   1   8
ATOM      8  S   UNL     1       4.585   4.034  17.981  0.00  0.00    +0.000 S 
ATOM      9  O   UNL     1       3.740   3.200  17.155  0.00  0.00    +0.000 OA
ATOM     10  O   UNL     1       5.619   3.483  18.816  0.00  0.00    +0.000 OA
BRANCH   8  11
ATOM     11  C   UNL     1       3.469   4.882  19.088  0.00  0.00    +0.000 A 
ATOM     12  C   UNL     1       3.345   6.272  19.051  0.00  0.00    +0.000 A 
ATOM     13  C   UNL     1       2.331   6.925  19.755  0.00  0.00    +0.000 A 
ATOM     14  C   UNL     1       1.485   6.206  20.592  0.00  0.00    +0.000 A 
ATOM     15  C   UNL     1       1.653   4.830  20.719  0.00  0.00    +0.000 A 
ATOM     16  C   UNL     1       2.630   4.168  19.950  0.00  0.00    +0.000 A 
BRANCH  16  17
ATOM     17  N   UNL     1       2.759   2.738  20.160  0.00  0.00    +0.000 N 
ATOM     18  O   UNL     1       2.066   1.999  19.456  0.00  0.00    +0.000 OA
ATOM     19  O   UNL     1       3.648   2.365  20.938  0.00  0.00    +0.000 OA
ENDBRANCH  16  17
ENDBRANCH   8  11
ENDBRANCH   1   8
BRANCH   1  20
ATOM     20  C   UNL     1       5.084   5.179  15.553  0.00  0.00    +0.000 C 
BRANCH  20  22
ATOM     21  O   UNL     1       7.429   4.867  15.140  0.00  0.00    +0.000 OA
ATOM     22  C   UNL     1       6.276   4.669  14.738  0.00  0.00    +0.000 C 
ATOM     23  N   UNL     1       6.046   3.922  13.594  0.00  0.00    +0.000 N 
ATOM     24  C   UNL     1       7.147   3.319  12.856  0.00  0.00    +0.000 C 
ATOM     25  C   UNL     1       6.632   3.212  11.431  0.00  0.00    +0.000 C 
ATOM     26  C   UNL     1       5.149   2.925  11.628  0.00  0.00    +0.000 C 
ATOM     27  C   UNL     1       4.784   3.720  12.880  0.00  0.00    +0.000 C 
ENDBRANCH  20  22
ENDBRANCH   1  20
TORSDOF 6
ENDMDL
