MODEL 1
REMARK VINA RESULT:      -6.6      0.000      0.000
REMARK  Name = 
REMARK  4 active torsions:
REMARK  status: ('A' for Active; 'I' for Inactive)
REMARK    1  A    between atoms: C_2  and  C_3
REMARK    2  A    between atoms: C_3  and  C_4
REMARK    3  A    between atoms: C_14  and  O_15
REMARK    4  A    between atoms: C_14  and  C_16
REMARK                            x       y       z     vdW  Elec       q    Type
REMARK                         _______ _______ _______ _____ _____    ______ ____
ROOT
ATOM      1  C   UNL     1       5.062   3.691  18.250  0.00  0.00    +0.000 C 
ATOM      2  O   UNL     1       5.771   4.617  18.651  0.00  0.00    +0.000 OA
ATOM      3  N   UNL     1       4.952   3.294  16.934  0.00  0.00    +0.000 N 
ATOM      4  C   UNL     1       5.751   3.840  15.908  0.00  0.00    +0.000 A 
ATOM      5  C   UNL     1       5.403   3.589  14.584  0.00  0.00    +0.000 A 
ATOM      6  C   UNL     1       6.169   4.158  13.561  0.00  0.00    +0.000 A 
ATOM      7  C   UNL     1       7.271   4.940  13.883  0.00  0.00    +0.000 A 
ATOM      8 CL   UNL     1       8.232   5.664  12.662  0.00  0.00    +0.000 Cl
ATOM      9  C   UNL     1       7.564   5.118  15.220  0.00  0.00    +0.000 A 
ATOM     10  N   UNL     1       6.828   4.585  16.222  0.00  0.00    +0.000 NA
ATOM     11  H   UNL     1       4.241   2.634  16.651  0.00  0.00    +0.000 HD
ENDROOT
BRANCH   1  12
ATOM     12  C   UNL     1       4.209   2.987  19.261  0.00  0.00    +0.000 C 
ATOM     13  C   UNL     1       2.859   3.160  19.249  0.00  0.00    +0.000 C 
BRANCH  13  14
ATOM     14  C   UNL     1       1.944   2.534  20.231  0.00  0.00    +0.000 C 
ATOM     15  C   UNL     1       1.720   3.191  21.572  0.00  0.00    +0.000 C 
ATOM     16  C   UNL     1       0.633   3.213  20.539  0.00  0.00    +0.000 C 
ENDBRANCH  13  14
BRANCH  12  18
ATOM     17  N   UNL     1       5.311   1.391  21.254  0.00  0.00    +0.000 NA
ATOM     18  C   UNL     1       4.811   2.114  20.350  0.00  0.00    +0.000 C 
ENDBRANCH  12  18
BRANCH  13  19
ATOM     19  O   UNL     1       2.222   3.971  18.311  0.00  0.00    +0.000 OA
ATOM     20  H   UNL     1       2.459   4.913  18.475  0.00  0.00    +0.000 HD
ENDBRANCH  13  19
ENDBRANCH   1  12
TORSDOF 4
ENDMDL
MODEL 2
REMARK VINA RESULT:      -6.3      4.876      6.770
REMARK  Name = 
REMARK  4 active torsions:
REMARK  status: ('A' for Active; 'I' for Inactive)
REMARK    1  A    between atoms: C_2  and  C_3
REMARK    2  A    between atoms: C_3  and  C_4
REMARK    3  A    between atoms: C_14  and  O_15
REMARK    4  A    between atoms: C_14  and  C_16
REMARK                            x       y       z     vdW  Elec       q    Type
REMARK                         _______ _______ _______ _____ _____    ______ ____
ROOT
ATOM      1  C   UNL     1       3.286   5.603  18.609  0.00  0.00    +0.000 C 
ATOM      2  O   UNL     1       2.896   5.274  19.732  0.00  0.00    +0.000 OA
ATOM      3  N   UNL     1       2.952   6.780  17.971  0.00  0.00    +0.000 N 
ATOM      4  C   UNL     1       2.213   7.801  18.603  0.00  0.00    +0.000 A 
ATOM      5  C   UNL     1       1.691   8.828  17.822  0.00  0.00    +0.000 A 
ATOM      6  C   UNL     1       0.925   9.825  18.435  0.00  0.00    +0.000 A 
ATOM      7  C   UNL     1       0.720   9.785  19.809  0.00  0.00    +0.000 A 
ATOM      8 CL   UNL     1      -0.219  10.980  20.601  0.00  0.00    +0.000 Cl
ATOM      9  C   UNL     1       1.296   8.748  20.514  0.00  0.00    +0.000 A 
ATOM     10  N   UNL     1       2.029   7.769  19.936  0.00  0.00    +0.000 NA
ATOM     11  H   UNL     1       3.177   6.920  16.996  0.00  0.00    +0.000 HD
ENDROOT
BRANCH   1  12
ATOM     12  C   UNL     1       4.136   4.623  17.859  0.00  0.00    +0.000 C 
ATOM     13  C   UNL     1       5.200   5.064  17.134  0.00  0.00    +0.000 C 
BRANCH  13  14
ATOM     14  C   UNL     1       6.071   4.173  16.333  0.00  0.00    +0.000 C 
ATOM     15  C   UNL     1       5.852   4.050  14.844  0.00  0.00    +0.000 C 
ATOM     16  C   UNL     1       7.048   4.790  15.364  0.00  0.00    +0.000 C 
ENDBRANCH  13  14
BRANCH  12  18
ATOM     17  N   UNL     1       3.551   1.905  17.814  0.00  0.00    +0.000 NA
ATOM     18  C   UNL     1       3.816   3.138  17.834  0.00  0.00    +0.000 C 
ENDBRANCH  12  18
BRANCH  13  19
ATOM     19  O   UNL     1       5.548   6.412  17.067  0.00  0.00    +0.000 OA
ATOM     20  H   UNL     1       4.792   6.963  17.378  0.00  0.00    +0.000 HD
ENDBRANCH  13  19
ENDBRANCH   1  12
TORSDOF 4
ENDMDL
MODEL 3
REMARK VINA RESULT:      -6.2      5.493      7.075
REMARK  Name = 
REMARK  4 active torsions:
REMARK  status: ('A' for Active; 'I' for Inactive)
REMARK    1  A    between atoms: C_2  and  C_3
REMARK    2  A    between atoms: C_3  and  C_4
REMARK    3  A    between atoms: C_14  and  O_15
REMARK    4  A    between atoms: C_14  and  C_16
REMARK                            x       y       z     vdW  Elec       q    Type
REMARK                         _______ _______ _______ _____ _____    ______ ____
ROOT
ATOM      1  C   UNL     1       2.961   6.892  18.918  0.00  0.00    +0.000 C 
ATOM      2  O   UNL     1       3.123   7.749  18.046  0.00  0.00    +0.000 OA
ATOM      3  N   UNL     1       2.250   7.077  20.085  0.00  0.00    +0.000 N 
ATOM      4  C   UNL     1       1.518   8.254  20.347  0.00  0.00    +0.000 A 
ATOM      5  C   UNL     1       1.053   8.477  21.639  0.00  0.00    +0.000 A 
ATOM      6  C   UNL     1       0.358   9.659  21.916  0.00  0.00    +0.000 A 
ATOM      7  C   UNL     1       0.125  10.573  20.897  0.00  0.00    +0.000 A 
ATOM      8 CL   UNL     1      -0.714  12.038  21.192  0.00  0.00    +0.000 Cl
ATOM      9  C   UNL     1       0.595  10.263  19.636  0.00  0.00    +0.000 A 
ATOM     10  N   UNL     1       1.280   9.130  19.353  0.00  0.00    +0.000 NA
ATOM     11  H   UNL     1       2.284   6.390  20.825  0.00  0.00    +0.000 HD
ENDROOT
BRANCH   1  12
ATOM     12  C   UNL     1       3.641   5.570  18.721  0.00  0.00    +0.000 C 
ATOM     13  C   UNL     1       2.958   4.531  18.169  0.00  0.00    +0.000 C 
BRANCH  13  14
ATOM     14  C   UNL     1       3.536   3.182  17.972  0.00  0.00    +0.000 C 
ATOM     15  C   UNL     1       3.359   2.127  19.037  0.00  0.00    +0.000 C 
ATOM     16  C   UNL     1       2.606   2.017  17.745  0.00  0.00    +0.000 C 
ENDBRANCH  13  14
BRANCH  12  18
ATOM     17  N   UNL     1       6.259   5.130  19.549  0.00  0.00    +0.000 NA
ATOM     18  C   UNL     1       5.072   5.330  19.173  0.00  0.00    +0.000 C 
ENDBRANCH  12  18
BRANCH  13  19
ATOM     19  O   UNL     1       1.630   4.648  17.759  0.00  0.00    +0.000 OA
ATOM     20  H   UNL     1       1.342   5.587  17.838  0.00  0.00    +0.000 HD
ENDBRANCH  13  19
ENDBRANCH   1  12
TORSDOF 4
ENDMDL
MODEL 4
REMARK VINA RESULT:      -6.1      5.766      7.111
REMARK  Name = 
REMARK  4 active torsions:
REMARK  status: ('A' for Active; 'I' for Inactive)
REMARK    1  A    between atoms: C_2  and  C_3
REMARK    2  A    between atoms: C_3  and  C_4
REMARK    3  A    between atoms: C_14  and  O_15
REMARK    4  A    between atoms: C_14  and  C_16
REMARK                            x       y       z     vdW  Elec       q    Type
REMARK                         _______ _______ _______ _____ _____    ______ ____
ROOT
ATOM      1  C   UNL     1       8.043   8.027  17.978  0.00  0.00    +0.000 C 
ATOM      2  O   UNL     1       7.849   8.513  16.862  0.00  0.00    +0.000 OA
ATOM      3  N   UNL     1       8.680   8.670  19.019  0.00  0.00    +0.000 N 
ATOM      4  C   UNL     1       9.071  10.023  18.947  0.00  0.00    +0.000 A 
ATOM      5  C   UNL     1       9.935  10.521  19.918  0.00  0.00    +0.000 A 
ATOM      6  C   UNL     1      10.358  11.851  19.834  0.00  0.00    +0.000 A 
ATOM      7  C   UNL     1       9.893  12.655  18.801  0.00  0.00    +0.000 A 
ATOM      8 CL   UNL     1      10.391  14.288  18.653  0.00  0.00    +0.000 Cl
ATOM      9  C   UNL     1       9.016  12.092  17.895  0.00  0.00    +0.000 A 
ATOM     10  N   UNL     1       8.606  10.804  17.955  0.00  0.00    +0.000 NA
ATOM     11  H   UNL     1       8.944   8.166  19.854  0.00  0.00    +0.000 HD
ENDROOT
BRANCH   1  12
ATOM     12  C   UNL     1       7.611   6.609  18.198  0.00  0.00    +0.000 C 
ATOM     13  C   UNL     1       6.909   5.956  17.233  0.00  0.00    +0.000 C 
BRANCH  13  14
ATOM     14  C   UNL     1       6.409   4.569  17.379  0.00  0.00    +0.000 C 
ATOM     15  C   UNL     1       4.965   4.327  17.745  0.00  0.00    +0.000 C 
ATOM     16  C   UNL     1       5.442   4.032  16.355  0.00  0.00    +0.000 C 
ENDBRANCH  13  14
BRANCH  12  18
ATOM     17  N   UNL     1       8.115   5.275  20.586  0.00  0.00    +0.000 NA
ATOM     18  C   UNL     1       7.886   5.880  19.504  0.00  0.00    +0.000 C 
ENDBRANCH  12  18
BRANCH  13  19
ATOM     19  O   UNL     1       6.577   6.556  16.019  0.00  0.00    +0.000 OA
ATOM     20  H   UNL     1       7.066   7.407  15.928  0.00  0.00    +0.000 HD
ENDBRANCH  13  19
ENDBRANCH   1  12
TORSDOF 4
ENDMDL
MODEL 5
REMARK VINA RESULT:      -6.1      5.639      7.706
REMARK  Name = 
REMARK  4 active torsions:
REMARK  status: ('A' for Active; 'I' for Inactive)
REMARK    1  A    between atoms: C_2  and  C_3
REMARK    2  A    between atoms: C_3  and  C_4
REMARK    3  A    between atoms: C_14  and  O_15
REMARK    4  A    between atoms: C_14  and  C_16
REMARK                            x       y       z     vdW  Elec       q    Type
REMARK                         _______ _______ _______ _____ _____    ______ ____
ROOT
ATOM      1  C   UNL     1       2.614   7.173  18.382  0.00  0.00    +0.000 C 
ATOM      2  O   UNL     1       2.741   8.145  17.633  0.00  0.00    +0.000 OA
ATOM      3  N   UNL     1       2.081   7.221  19.653  0.00  0.00    +0.000 N 
ATOM      4  C   UNL     1       1.502   8.390  20.189  0.00  0.00    +0.000 A 
ATOM      5  C   UNL     1       1.232   8.437  21.553  0.00  0.00    +0.000 A 
ATOM      6  C   UNL     1       0.692   9.606  22.099  0.00  0.00    +0.000 A 
ATOM      7  C   UNL     1       0.415  10.686  21.270  0.00  0.00    +0.000 A 
ATOM      8 CL   UNL     1      -0.239  12.141  21.896  0.00  0.00    +0.000 Cl
ATOM      9  C   UNL     1       0.686  10.548  19.923  0.00  0.00    +0.000 A 
ATOM     10  N   UNL     1       1.219   9.429  19.380  0.00  0.00    +0.000 NA
ATOM     11  H   UNL     1       2.146   6.424  20.271  0.00  0.00    +0.000 HD
ENDROOT
BRANCH   1  12
ATOM     12  C   UNL     1       3.136   5.855  17.897  0.00  0.00    +0.000 C 
ATOM     13  C   UNL     1       4.433   5.744  17.498  0.00  0.00    +0.000 C 
BRANCH  13  14
ATOM     14  C   UNL     1       5.024   4.492  16.970  0.00  0.00    +0.000 C 
ATOM     15  C   UNL     1       5.294   4.356  15.491  0.00  0.00    +0.000 C 
ATOM     16  C   UNL     1       6.438   4.519  16.448  0.00  0.00    +0.000 C 
ENDBRANCH  13  14
BRANCH  12  18
ATOM     17  N   UNL     1       1.501   3.615  17.688  0.00  0.00    +0.000 NA
ATOM     18  C   UNL     1       2.243   4.631  17.783  0.00  0.00    +0.000 C 
ENDBRANCH  12  18
BRANCH  13  19
ATOM     19  O   UNL     1       5.316   6.821  17.532  0.00  0.00    +0.000 OA
ATOM     20  H   UNL     1       6.142   6.556  18.000  0.00  0.00    +0.000 HD
ENDBRANCH  13  19
ENDBRANCH   1  12
TORSDOF 4
ENDMDL
MODEL 6
REMARK VINA RESULT:      -6.1      5.774      7.639
REMARK  Name = 
REMARK  4 active torsions:
REMARK  status: ('A' for Active; 'I' for Inactive)
REMARK    1  A    between atoms: C_2  and  C_3
REMARK    2  A    between atoms: C_3  and  C_4
REMARK    3  A    between atoms: C_14  and  O_15
REMARK    4  A    between atoms: C_14  and  C_16
REMARK                            x       y       z     vdW  Elec       q    Type
REMARK                         _______ _______ _______ _____ _____    ______ ____
ROOT
ATOM      1  C   UNL     1       2.607   7.639  18.258  0.00  0.00    +0.000 C 
ATOM      2  O   UNL     1       2.474   8.637  17.546  0.00  0.00    +0.000 OA
ATOM      3  N   UNL     1       2.186   7.541  19.567  0.00  0.00    +0.000 N 
ATOM      4  C   UNL     1       1.434   8.554  20.199  0.00  0.00    +0.000 A 
ATOM      5  C   UNL     1       1.278   8.506  21.581  0.00  0.00    +0.000 A 
ATOM      6  C   UNL     1       0.566   9.526  22.220  0.00  0.00    +0.000 A 
ATOM      7  C   UNL     1       0.010  10.552  21.465  0.00  0.00    +0.000 A 
ATOM      8 CL   UNL     1      -0.863  11.827  22.206  0.00  0.00    +0.000 Cl
ATOM      9  C   UNL     1       0.188  10.510  20.096  0.00  0.00    +0.000 A 
ATOM     10  N   UNL     1       0.884   9.538  19.463  0.00  0.00    +0.000 NA
ATOM     11  H   UNL     1       2.460   6.756  20.141  0.00  0.00    +0.000 HD
ENDROOT
BRANCH   1  12
ATOM     12  C   UNL     1       3.337   6.467  17.674  0.00  0.00    +0.000 C 
ATOM     13  C   UNL     1       2.855   5.208  17.858  0.00  0.00    +0.000 C 
BRANCH  13  14
ATOM     14  C   UNL     1       3.529   3.990  17.350  0.00  0.00    +0.000 C 
ATOM     15  C   UNL     1       4.084   2.979  18.324  0.00  0.00    +0.000 C 
ATOM     16  C   UNL     1       2.853   2.655  17.532  0.00  0.00    +0.000 C 
ENDBRANCH  13  14
BRANCH  12  18
ATOM     17  N   UNL     1       5.730   6.770  16.290  0.00  0.00    +0.000 NA
ATOM     18  C   UNL     1       4.645   6.633  16.918  0.00  0.00    +0.000 C 
ENDBRANCH  12  18
BRANCH  13  19
ATOM     19  O   UNL     1       1.683   4.956  18.569  0.00  0.00    +0.000 OA
ATOM     20  H   UNL     1       1.847   5.091  19.532  0.00  0.00    +0.000 HD
ENDBRANCH  13  19
ENDBRANCH   1  12
TORSDOF 4
ENDMDL
MODEL 7
REMARK VINA RESULT:      -5.9      5.246      6.067
REMARK  Name = 
REMARK  4 active torsions:
REMARK  status: ('A' for Active; 'I' for Inactive)
REMARK    1  A    between atoms: C_2  and  C_3
REMARK    2  A    between atoms: C_3  and  C_4
REMARK    3  A    between atoms: C_14  and  O_15
REMARK    4  A    between atoms: C_14  and  C_16
REMARK                            x       y       z     vdW  Elec       q    Type
REMARK                         _______ _______ _______ _____ _____    ______ ____
ROOT
ATOM      1  C   UNL     1       2.119   8.438  18.355  0.00  0.00    +0.000 C 
ATOM      2  O   UNL     1       2.653   9.074  17.443  0.00  0.00    +0.000 OA
ATOM      3  N   UNL     1       2.295   7.090  18.585  0.00  0.00    +0.000 N 
ATOM      4  C   UNL     1       3.219   6.312  17.858  0.00  0.00    +0.000 A 
ATOM      5  C   UNL     1       3.151   4.925  17.959  0.00  0.00    +0.000 A 
ATOM      6  C   UNL     1       4.039   4.145  17.212  0.00  0.00    +0.000 A 
ATOM      7  C   UNL     1       4.985   4.765  16.405  0.00  0.00    +0.000 A 
ATOM      8 CL   UNL     1       6.088   3.849  15.467  0.00  0.00    +0.000 Cl
ATOM      9  C   UNL     1       5.005   6.145  16.383  0.00  0.00    +0.000 A 
ATOM     10  N   UNL     1       4.145   6.915  17.089  0.00  0.00    +0.000 NA
ATOM     11  H   UNL     1       1.713   6.599  19.250  0.00  0.00    +0.000 HD
ENDROOT
BRANCH   1  12
ATOM     12  C   UNL     1       1.160   9.174  19.241  0.00  0.00    +0.000 C 
ATOM     13  C   UNL     1       1.178   8.963  20.585  0.00  0.00    +0.000 C 
BRANCH  13  14
ATOM     14  C   UNL     1       0.244   9.617  21.530  0.00  0.00    +0.000 C 
ATOM     15  C   UNL     1      -0.710   8.776  22.344  0.00  0.00    +0.000 C 
ATOM     16  C   UNL     1       0.461   9.434  23.011  0.00  0.00    +0.000 C 
ENDBRANCH  13  14
BRANCH  12  18
ATOM     17  N   UNL     1      -0.754  10.909  18.210  0.00  0.00    +0.000 NA
ATOM     18  C   UNL     1       0.114  10.123  18.677  0.00  0.00    +0.000 C 
ENDBRANCH  12  18
BRANCH  13  19
ATOM     19  O   UNL     1       2.077   8.084  21.188  0.00  0.00    +0.000 OA
ATOM     20  H   UNL     1       2.947   8.531  21.304  0.00  0.00    +0.000 HD
ENDBRANCH  13  19
ENDBRANCH   1  12
TORSDOF 4
ENDMDL
MODEL 8
REMARK VINA RESULT:      -5.9      4.999      7.225
REMARK  Name = 
REMARK  4 active torsions:
REMARK  status: ('A' for Active; 'I' for Inactive)
REMARK    1  A    between atoms: C_2  and  C_3
REMARK    2  A    between atoms: C_3  and  C_4
REMARK    3  A    between atoms: C_14  and  O_15
REMARK    4  A    between atoms: C_14  and  C_16
REMARK                            x       y       z     vdW  Elec       q    Type
REMARK                         _______ _______ _______ _____ _____    ______ ____
ROOT
ATOM      1  C   UNL     1       3.792   6.826  17.985  0.00  0.00    +0.000 C 
ATOM      2  O   UNL     1       3.853   7.849  17.300  0.00  0.00    +0.000 OA
ATOM      3  N   UNL     1       3.016   6.679  19.117  0.00  0.00    +0.000 N 
ATOM      4  C   UNL     1       2.102   7.665  19.541  0.00  0.00    +0.000 A 
ATOM      5  C   UNL     1       1.559   7.567  20.819  0.00  0.00    +0.000 A 
ATOM      6  C   UNL     1       0.680   8.560  21.262  0.00  0.00    +0.000 A 
ATOM      7  C   UNL     1       0.348   9.610  20.415  0.00  0.00    +0.000 A 
ATOM      8 CL   UNL     1      -0.718  10.854  20.918  0.00  0.00    +0.000 Cl
ATOM      9  C   UNL     1       0.908   9.619  19.153  0.00  0.00    +0.000 A 
ATOM     10  N   UNL     1       1.769   8.673  18.713  0.00  0.00    +0.000 NA
ATOM     11  H   UNL     1       3.127   5.875  19.718  0.00  0.00    +0.000 HD
ENDROOT
BRANCH   1  12
ATOM     12  C   UNL     1       4.675   5.680  17.595  0.00  0.00    +0.000 C 
ATOM     13  C   UNL     1       5.299   5.685  16.386  0.00  0.00    +0.000 C 
BRANCH  13  14
ATOM     14  C   UNL     1       6.158   4.580  15.902  0.00  0.00    +0.000 C 
ATOM     15  C   UNL     1       5.825   3.884  14.603  0.00  0.00    +0.000 C 
ATOM     16  C   UNL     1       7.009   4.802  14.677  0.00  0.00    +0.000 C 
ENDBRANCH  13  14
BRANCH  12  18
ATOM     17  N   UNL     1       5.010   3.461  19.237  0.00  0.00    +0.000 NA
ATOM     18  C   UNL     1       4.858   4.467  18.493  0.00  0.00    +0.000 C 
ENDBRANCH  12  18
BRANCH  13  19
ATOM     19  O   UNL     1       5.160   6.737  15.481  0.00  0.00    +0.000 OA
ATOM     20  H   UNL     1       5.881   6.692  14.811  0.00  0.00    +0.000 HD
ENDBRANCH  13  19
ENDBRANCH   1  12
TORSDOF 4
ENDMDL
MODEL 9
REMARK VINA RESULT:      -5.9      6.227      6.905
REMARK  Name = 
REMARK  4 active torsions:
REMARK  status: ('A' for Active; 'I' for Inactive)
REMARK    1  A    between atoms: C_2  and  C_3
REMARK    2  A    between atoms: C_3  and  C_4
REMARK    3  A    between atoms: C_14  and  O_15
REMARK    4  A    between atoms: C_14  and  C_16
REMARK                            x       y       z     vdW  Elec       q    Type
REMARK                         _______ _______ _______ _____ _____    ______ ____
ROOT
ATOM      1  C   UNL     1       1.723   8.935  18.547  0.00  0.00    +0.000 C 
ATOM      2  O   UNL     1       2.168   9.472  17.530  0.00  0.00    +0.000 OA
ATOM      3  N   UNL     1       2.009   7.647  18.949  0.00  0.00    +0.000 N 
ATOM      4  C   UNL     1       2.958   6.840  18.288  0.00  0.00    +0.000 A 
ATOM      5  C   UNL     1       2.997   5.480  18.580  0.00  0.00    +0.000 A 
ATOM      6  C   UNL     1       3.910   4.665  17.902  0.00  0.00    +0.000 A 
ATOM      7  C   UNL     1       4.772   5.229  16.970  0.00  0.00    +0.000 A 
ATOM      8 CL   UNL     1       5.900   4.269  16.109  0.00  0.00    +0.000 Cl
ATOM      9  C   UNL     1       4.687   6.591  16.758  0.00  0.00    +0.000 A 
ATOM     10  N   UNL     1       3.803   7.392  17.397  0.00  0.00    +0.000 NA
ATOM     11  H   UNL     1       1.494   7.215  19.704  0.00  0.00    +0.000 HD
ENDROOT
BRANCH   1  12
ATOM     12  C   UNL     1       0.749   9.720  19.372  0.00  0.00    +0.000 C 
ATOM     13  C   UNL     1      -0.332  10.296  18.780  0.00  0.00    +0.000 C 
BRANCH  13  14
ATOM     14  C   UNL     1      -1.325  11.119  19.509  0.00  0.00    +0.000 C 
ATOM     15  C   UNL     1      -1.278  12.624  19.398  0.00  0.00    +0.000 C 
ATOM     16  C   UNL     1      -2.376  11.859  18.722  0.00  0.00    +0.000 C 
ENDBRANCH  13  14
BRANCH  12  18
ATOM     17  N   UNL     1       1.129  10.130  22.096  0.00  0.00    +0.000 NA
ATOM     18  C   UNL     1       0.957   9.944  20.861  0.00  0.00    +0.000 C 
ENDBRANCH  12  18
BRANCH  13  19
ATOM     19  O   UNL     1      -0.585  10.177  17.414  0.00  0.00    +0.000 OA
ATOM     20  H   UNL     1       0.117   9.624  16.997  0.00  0.00    +0.000 HD
ENDBRANCH  13  19
ENDBRANCH   1  12
TORSDOF 4
ENDMDL
