MODEL 1
REMARK VINA RESULT:      -6.7      0.000      0.000
REMARK  Name = 
REMARK  11 active torsions:
REMARK  status: ('A' for Active; 'I' for Inactive)
REMARK    1  A    between atoms: C_1  and  O_2
REMARK    2  A    between atoms: O_2  and  C_3
REMARK    3  A    between atoms: C_5  and  C_6
REMARK    4  A    between atoms: C_7  and  N_8
REMARK    5  A    between atoms: N_14  and  C_15
REMARK    6  A    between atoms: C_15  and  C_16
REMARK    7  A    between atoms: C_15  and  C_21
REMARK    8  A    between atoms: C_16  and  O_17
REMARK    9  A    between atoms: O_17  and  C_18
REMARK   10  A    between atoms: C_18  and  C_19
REMARK   11  A    between atoms: C_27  and  C_28
REMARK                            x       y       z     vdW  Elec       q    Type
REMARK                         _______ _______ _______ _____ _____    ______ ____
ROOT
ATOM      1  N   UNL     1       2.586   7.923  18.550  0.00  0.00    +0.000 N 
ATOM      2  C   UNL     1       1.743   8.742  19.299  0.00  0.00    +0.000 A 
ATOM      3  N   UNL     1       1.386   8.470  20.521  0.00  0.00    +0.000 NA
ATOM      4  C   UNL     1       0.691   9.412  21.222  0.00  0.00    +0.000 A 
ATOM      5 CL   UNL     1       0.289   8.992  22.850  0.00  0.00    +0.000 Cl
ATOM      6  C   UNL     1       0.395  10.633  20.764  0.00  0.00    +0.000 A 
ATOM      7  N   UNL     1       0.713  11.006  19.467  0.00  0.00    +0.000 N 
ATOM      8  C   UNL     1       1.301  10.075  18.613  0.00  0.00    +0.000 A 
ATOM      9  O   UNL     1       1.542  10.231  17.423  0.00  0.00    +0.000 OA
ATOM     10  H   UNL     1       3.085   8.356  17.787  0.00  0.00    +0.000 HD
ENDROOT
BRANCH   1  15
ATOM     11  C   UNL     1       3.329   3.827  19.392  0.00  0.00    +0.000 A 
ATOM     12  C   UNL     1       4.193   4.545  18.562  0.00  0.00    +0.000 A 
ATOM     13  C   UNL     1       3.962   5.903  18.255  0.00  0.00    +0.000 A 
ATOM     14  C   UNL     1       4.965   6.601  17.379  0.00  0.00    +0.000 C 
ATOM     15  C   UNL     1       2.816   6.546  18.763  0.00  0.00    +0.000 A 
ATOM     16  C   UNL     1       1.937   5.787  19.557  0.00  0.00    +0.000 A 
ATOM     17  C   UNL     1       2.177   4.443  19.878  0.00  0.00    +0.000 A 
ATOM     18  C   UNL     1       1.216   3.719  20.777  0.00  0.00    +0.000 C 
BRANCH  11  20
ATOM     19  C   UNL     1       3.531   1.593  18.658  0.00  0.00    +0.000 C 
ATOM     20  O   UNL     1       3.528   2.517  19.743  0.00  0.00    +0.000 OA
ENDBRANCH  11  20
ENDBRANCH   1  15
BRANCH   7  21
ATOM     21  C   UNL     1       0.554  12.420  19.066  0.00  0.00    +0.000 C 
BRANCH  21  22
ATOM     22  C   UNL     1       1.230  13.388  20.014  0.00  0.00    +0.000 C 
ATOM     23  C   UNL     1       2.726  13.529  20.165  0.00  0.00    +0.000 C 
ATOM     24  C   UNL     1       1.957  14.573  19.410  0.00  0.00    +0.000 C 
ENDBRANCH  21  22
BRANCH  21  25
ATOM     25  C   UNL     1      -0.939  12.791  18.892  0.00  0.00    +0.000 C 
BRANCH  25  26
ATOM     26  O   UNL     1      -1.427  12.295  17.641  0.00  0.00    +0.000 OA
BRANCH  26  27
ATOM     27  C   UNL     1      -2.473  11.342  17.829  0.00  0.00    +0.000 C 
BRANCH  27  28
ATOM     28  C   UNL     1      -2.110  10.043  17.133  0.00  0.00    +0.000 C 
ATOM     29  F   UNL     1      -3.239   9.319  16.919  0.00  0.00    +0.000 F 
ENDBRANCH  27  28
ENDBRANCH  26  27
ENDBRANCH  25  26
ENDBRANCH  21  25
ENDBRANCH   7  21
TORSDOF 8
ENDMDL
MODEL 2
REMARK VINA RESULT:      -6.6      2.416      8.253
REMARK  Name = 
REMARK  11 active torsions:
REMARK  status: ('A' for Active; 'I' for Inactive)
REMARK    1  A    between atoms: C_1  and  O_2
REMARK    2  A    between atoms: O_2  and  C_3
REMARK    3  A    between atoms: C_5  and  C_6
REMARK    4  A    between atoms: C_7  and  N_8
REMARK    5  A    between atoms: N_14  and  C_15
REMARK    6  A    between atoms: C_15  and  C_16
REMARK    7  A    between atoms: C_15  and  C_21
REMARK    8  A    between atoms: C_16  and  O_17
REMARK    9  A    between atoms: O_17  and  C_18
REMARK   10  A    between atoms: C_18  and  C_19
REMARK   11  A    between atoms: C_27  and  C_28
REMARK                            x       y       z     vdW  Elec       q    Type
REMARK                         _______ _______ _______ _____ _____    ______ ____
ROOT
ATOM      1  N   UNL     1       1.137  10.659  18.297  0.00  0.00    +0.000 N 
ATOM      2  C   UNL     1       1.318   9.758  19.345  0.00  0.00    +0.000 A 
ATOM      3  N   UNL     1       0.911   9.988  20.560  0.00  0.00    +0.000 NA
ATOM      4  C   UNL     1       0.993   8.980  21.477  0.00  0.00    +0.000 A 
ATOM      5 CL   UNL     1       0.395   9.349  23.056  0.00  0.00    +0.000 Cl
ATOM      6  C   UNL     1       1.410   7.739  21.203  0.00  0.00    +0.000 A 
ATOM      7  N   UNL     1       1.884   7.406  19.943  0.00  0.00    +0.000 N 
ATOM      8  C   UNL     1       1.978   8.394  18.965  0.00  0.00    +0.000 A 
ATOM      9  O   UNL     1       2.468   8.269  17.850  0.00  0.00    +0.000 OA
ATOM     10  H   UNL     1       1.148  10.281  17.362  0.00  0.00    +0.000 HD
ENDROOT
BRANCH   1  15
ATOM     11  C   UNL     1       0.578  14.831  18.866  0.00  0.00    +0.000 A 
ATOM     12  C   UNL     1      -0.524  13.982  18.738  0.00  0.00    +0.000 A 
ATOM     13  C   UNL     1      -0.367  12.594  18.534  0.00  0.00    +0.000 A 
ATOM     14  C   UNL     1      -1.612  11.757  18.440  0.00  0.00    +0.000 C 
ATOM     15  C   UNL     1       0.928  12.050  18.420  0.00  0.00    +0.000 A 
ATOM     16  C   UNL     1       2.019  12.934  18.505  0.00  0.00    +0.000 A 
ATOM     17  C   UNL     1       1.863  14.310  18.727  0.00  0.00    +0.000 A 
ATOM     18  C   UNL     1       3.083  15.177  18.859  0.00  0.00    +0.000 C 
BRANCH  11  20
ATOM     19  C   UNL     1      -0.323  16.894  18.155  0.00  0.00    +0.000 C 
ATOM     20  O   UNL     1       0.475  16.179  19.095  0.00  0.00    +0.000 OA
ENDBRANCH  11  20
ENDBRANCH   1  15
BRANCH   7  21
ATOM     21  C   UNL     1       2.143   5.986  19.625  0.00  0.00    +0.000 C 
BRANCH  21  22
ATOM     22  C   UNL     1       1.350   5.027  20.489  0.00  0.00    +0.000 C 
ATOM     23  C   UNL     1       1.094   3.580  20.143  0.00  0.00    +0.000 C 
ATOM     24  C   UNL     1       2.110   3.920  21.192  0.00  0.00    +0.000 C 
ENDBRANCH  21  22
BRANCH  21  25
ATOM     25  C   UNL     1       3.654   5.657  19.704  0.00  0.00    +0.000 C 
BRANCH  25  26
ATOM     26  O   UNL     1       4.214   5.599  18.388  0.00  0.00    +0.000 OA
BRANCH  26  27
ATOM     27  C   UNL     1       3.375   4.868  17.495  0.00  0.00    +0.000 C 
BRANCH  27  28
ATOM     28  C   UNL     1       3.751   3.398  17.530  0.00  0.00    +0.000 C 
ATOM     29  F   UNL     1       2.673   2.652  17.174  0.00  0.00    +0.000 F 
ENDBRANCH  27  28
ENDBRANCH  26  27
ENDBRANCH  25  26
ENDBRANCH  21  25
ENDBRANCH   7  21
TORSDOF 8
ENDMDL
MODEL 3
REMARK VINA RESULT:      -6.4      3.658      7.937
REMARK  Name = 
REMARK  11 active torsions:
REMARK  status: ('A' for Active; 'I' for Inactive)
REMARK    1  A    between atoms: C_1  and  O_2
REMARK    2  A    between atoms: O_2  and  C_3
REMARK    3  A    between atoms: C_5  and  C_6
REMARK    4  A    between atoms: C_7  and  N_8
REMARK    5  A    between atoms: N_14  and  C_15
REMARK    6  A    between atoms: C_15  and  C_16
REMARK    7  A    between atoms: C_15  and  C_21
REMARK    8  A    between atoms: C_16  and  O_17
REMARK    9  A    between atoms: O_17  and  C_18
REMARK   10  A    between atoms: C_18  and  C_19
REMARK   11  A    between atoms: C_27  and  C_28
REMARK                            x       y       z     vdW  Elec       q    Type
REMARK                         _______ _______ _______ _____ _____    ______ ____
ROOT
ATOM      1  N   UNL     1       2.080   8.166  18.980  0.00  0.00    +0.000 N 
ATOM      2  C   UNL     1       2.641   6.935  19.316  0.00  0.00    +0.000 A 
ATOM      3  N   UNL     1       2.137   6.146  20.221  0.00  0.00    +0.000 NA
ATOM      4  C   UNL     1       2.667   4.896  20.363  0.00  0.00    +0.000 A 
ATOM      5 CL   UNL     1       1.917   3.894  21.557  0.00  0.00    +0.000 Cl
ATOM      6  C   UNL     1       3.637   4.391  19.594  0.00  0.00    +0.000 A 
ATOM      7  N   UNL     1       4.251   5.164  18.620  0.00  0.00    +0.000 N 
ATOM      8  C   UNL     1       3.887   6.501  18.479  0.00  0.00    +0.000 A 
ATOM      9  O   UNL     1       4.411   7.323  17.737  0.00  0.00    +0.000 OA
ATOM     10  H   UNL     1       2.301   8.534  18.066  0.00  0.00    +0.000 HD
ENDROOT
BRANCH   1  15
ATOM     11  C   UNL     1      -0.600  10.322  21.470  0.00  0.00    +0.000 A 
ATOM     12  C   UNL     1      -0.648  10.475  20.082  0.00  0.00    +0.000 A 
ATOM     13  C   UNL     1       0.241   9.781  19.233  0.00  0.00    +0.000 A 
ATOM     14  C   UNL     1       0.091   9.986  17.750  0.00  0.00    +0.000 C 
ATOM     15  C   UNL     1       1.224   8.942  19.791  0.00  0.00    +0.000 A 
ATOM     16  C   UNL     1       1.282   8.843  21.193  0.00  0.00    +0.000 A 
ATOM     17  C   UNL     1       0.386   9.517  22.037  0.00  0.00    +0.000 A 
ATOM     18  C   UNL     1       0.481   9.314  23.522  0.00  0.00    +0.000 C 
BRANCH  11  20
ATOM     19  C   UNL     1      -1.617  12.351  22.119  0.00  0.00    +0.000 C 
ATOM     20  O   UNL     1      -1.460  10.951  22.333  0.00  0.00    +0.000 OA
ENDBRANCH  11  20
ENDBRANCH   1  15
BRANCH   7  21
ATOM     21  C   UNL     1       5.171   4.515  17.662  0.00  0.00    +0.000 C 
BRANCH  21  22
ATOM     22  C   UNL     1       6.480   5.259  17.494  0.00  0.00    +0.000 C 
ATOM     23  C   UNL     1       7.439   5.560  18.620  0.00  0.00    +0.000 C 
ATOM     24  C   UNL     1       7.764   4.467  17.644  0.00  0.00    +0.000 C 
ENDBRANCH  21  22
BRANCH  21  25
ATOM     25  C   UNL     1       4.493   4.302  16.286  0.00  0.00    +0.000 C 
BRANCH  25  26
ATOM     26  O   UNL     1       5.151   5.086  15.286  0.00  0.00    +0.000 OA
BRANCH  26  27
ATOM     27  C   UNL     1       5.291   4.363  14.064  0.00  0.00    +0.000 C 
BRANCH  27  28
ATOM     28  C   UNL     1       6.764   4.211  13.728  0.00  0.00    +0.000 C 
ATOM     29  F   UNL     1       6.886   3.649  12.498  0.00  0.00    +0.000 F 
ENDBRANCH  27  28
ENDBRANCH  26  27
ENDBRANCH  25  26
ENDBRANCH  21  25
ENDBRANCH   7  21
TORSDOF 8
ENDMDL
MODEL 4
REMARK VINA RESULT:      -6.3      2.761      3.684
REMARK  Name = 
REMARK  11 active torsions:
REMARK  status: ('A' for Active; 'I' for Inactive)
REMARK    1  A    between atoms: C_1  and  O_2
REMARK    2  A    between atoms: O_2  and  C_3
REMARK    3  A    between atoms: C_5  and  C_6
REMARK    4  A    between atoms: C_7  and  N_8
REMARK    5  A    between atoms: N_14  and  C_15
REMARK    6  A    between atoms: C_15  and  C_16
REMARK    7  A    between atoms: C_15  and  C_21
REMARK    8  A    between atoms: C_16  and  O_17
REMARK    9  A    between atoms: O_17  and  C_18
REMARK   10  A    between atoms: C_18  and  C_19
REMARK   11  A    between atoms: C_27  and  C_28
REMARK                            x       y       z     vdW  Elec       q    Type
REMARK                         _______ _______ _______ _____ _____    ______ ____
ROOT
ATOM      1  N   UNL     1       1.362   9.023  20.569  0.00  0.00    +0.000 N 
ATOM      2  C   UNL     1       0.437   9.936  20.064  0.00  0.00    +0.000 A 
ATOM      3  N   UNL     1      -0.510   9.605  19.234  0.00  0.00    +0.000 NA
ATOM      4  C   UNL     1      -1.458  10.536  18.923  0.00  0.00    +0.000 A 
ATOM      5 CL   UNL     1      -2.705  10.009  17.848  0.00  0.00    +0.000 Cl
ATOM      6  C   UNL     1      -1.524  11.760  19.459  0.00  0.00    +0.000 A 
ATOM      7  N   UNL     1      -0.546  12.210  20.334  0.00  0.00    +0.000 N 
ATOM      8  C   UNL     1       0.547  11.394  20.615  0.00  0.00    +0.000 A 
ATOM      9  O   UNL     1       1.528  11.697  21.283  0.00  0.00    +0.000 OA
ATOM     10  H   UNL     1       1.812   9.263  21.440  0.00  0.00    +0.000 HD
ENDROOT
BRANCH   1  15
ATOM     11  C   UNL     1       2.604   5.300  18.946  0.00  0.00    +0.000 A 
ATOM     12  C   UNL     1       2.736   6.474  18.202  0.00  0.00    +0.000 A 
ATOM     13  C   UNL     1       2.319   7.722  18.711  0.00  0.00    +0.000 A 
ATOM     14  C   UNL     1       2.532   8.935  17.848  0.00  0.00    +0.000 C 
ATOM     15  C   UNL     1       1.720   7.789  19.984  0.00  0.00    +0.000 A 
ATOM     16  C   UNL     1       1.554   6.585  20.694  0.00  0.00    +0.000 A 
ATOM     17  C   UNL     1       1.987   5.347  20.196  0.00  0.00    +0.000 A 
ATOM     18  C   UNL     1       1.822   4.116  21.040  0.00  0.00    +0.000 C 
BRANCH  11  20
ATOM     19  C   UNL     1       4.144   4.091  17.628  0.00  0.00    +0.000 C 
ATOM     20  O   UNL     1       3.022   4.070  18.506  0.00  0.00    +0.000 OA
ENDBRANCH  11  20
ENDBRANCH   1  15
BRANCH   7  21
ATOM     21  C   UNL     1      -0.759  13.482  21.056  0.00  0.00    +0.000 C 
BRANCH  21  22
ATOM     22  C   UNL     1      -1.898  13.418  22.052  0.00  0.00    +0.000 C 
ATOM     23  C   UNL     1      -2.078  12.319  23.072  0.00  0.00    +0.000 C 
ATOM     24  C   UNL     1      -1.570  13.660  23.513  0.00  0.00    +0.000 C 
ENDBRANCH  21  22
BRANCH  21  25
ATOM     25  C   UNL     1      -0.968  14.660  20.073  0.00  0.00    +0.000 C 
BRANCH  25  26
ATOM     26  O   UNL     1       0.233  15.431  19.966  0.00  0.00    +0.000 OA
BRANCH  26  27
ATOM     27  C   UNL     1       1.046  14.985  18.882  0.00  0.00    +0.000 C 
BRANCH  27  28
ATOM     28  C   UNL     1       2.422  14.606  19.398  0.00  0.00    +0.000 C 
ATOM     29  F   UNL     1       2.772  13.395  18.892  0.00  0.00    +0.000 F 
ENDBRANCH  27  28
ENDBRANCH  26  27
ENDBRANCH  25  26
ENDBRANCH  21  25
ENDBRANCH   7  21
TORSDOF 8
ENDMDL
MODEL 5
REMARK VINA RESULT:      -6.3      2.824      8.422
REMARK  Name = 
REMARK  11 active torsions:
REMARK  status: ('A' for Active; 'I' for Inactive)
REMARK    1  A    between atoms: C_1  and  O_2
REMARK    2  A    between atoms: O_2  and  C_3
REMARK    3  A    between atoms: C_5  and  C_6
REMARK    4  A    between atoms: C_7  and  N_8
REMARK    5  A    between atoms: N_14  and  C_15
REMARK    6  A    between atoms: C_15  and  C_16
REMARK    7  A    between atoms: C_15  and  C_21
REMARK    8  A    between atoms: C_16  and  O_17
REMARK    9  A    between atoms: O_17  and  C_18
REMARK   10  A    between atoms: C_18  and  C_19
REMARK   11  A    between atoms: C_27  and  C_28
REMARK                            x       y       z     vdW  Elec       q    Type
REMARK                         _______ _______ _______ _____ _____    ______ ____
ROOT
ATOM      1  N   UNL     1       1.237  10.575  18.240  0.00  0.00    +0.000 N 
ATOM      2  C   UNL     1       1.392   9.677  19.296  0.00  0.00    +0.000 A 
ATOM      3  N   UNL     1       0.964   9.916  20.502  0.00  0.00    +0.000 NA
ATOM      4  C   UNL     1       1.021   8.911  21.424  0.00  0.00    +0.000 A 
ATOM      5 CL   UNL     1       0.396   9.292  22.990  0.00  0.00    +0.000 Cl
ATOM      6  C   UNL     1       1.435   7.666  21.164  0.00  0.00    +0.000 A 
ATOM      7  N   UNL     1       1.932   7.324  19.916  0.00  0.00    +0.000 N 
ATOM      8  C   UNL     1       2.051   8.307  18.935  0.00  0.00    +0.000 A 
ATOM      9  O   UNL     1       2.562   8.173  17.830  0.00  0.00    +0.000 OA
ATOM     10  H   UNL     1       1.264  10.191  17.307  0.00  0.00    +0.000 HD
ENDROOT
BRANCH   1  15
ATOM     11  C   UNL     1       0.695  14.752  18.779  0.00  0.00    +0.000 A 
ATOM     12  C   UNL     1      -0.410  13.909  18.634  0.00  0.00    +0.000 A 
ATOM     13  C   UNL     1      -0.258  12.520  18.440  0.00  0.00    +0.000 A 
ATOM     14  C   UNL     1      -1.506  11.690  18.327  0.00  0.00    +0.000 C 
ATOM     15  C   UNL     1       1.035  11.967  18.352  0.00  0.00    +0.000 A 
ATOM     16  C   UNL     1       2.130  12.844  18.453  0.00  0.00    +0.000 A 
ATOM     17  C   UNL     1       1.979  14.223  18.666  0.00  0.00    +0.000 A 
ATOM     18  C   UNL     1       3.202  15.082  18.817  0.00  0.00    +0.000 C 
BRANCH  11  20
ATOM     19  C   UNL     1      -0.059  16.472  20.210  0.00  0.00    +0.000 C 
ATOM     20  O   UNL     1       0.596  16.102  18.999  0.00  0.00    +0.000 OA
ENDBRANCH  11  20
ENDBRANCH   1  15
BRANCH   7  21
ATOM     21  C   UNL     1       2.188   5.901  19.609  0.00  0.00    +0.000 C 
BRANCH  21  22
ATOM     22  C   UNL     1       1.412   4.951  20.499  0.00  0.00    +0.000 C 
ATOM     23  C   UNL     1       0.923   3.589  20.069  0.00  0.00    +0.000 C 
ATOM     24  C   UNL     1       2.118   3.695  20.970  0.00  0.00    +0.000 C 
ENDBRANCH  21  22
BRANCH  21  25
ATOM     25  C   UNL     1       3.700   5.576  19.663  0.00  0.00    +0.000 C 
BRANCH  25  26
ATOM     26  O   UNL     1       4.162   5.165  18.372  0.00  0.00    +0.000 OA
BRANCH  26  27
ATOM     27  C   UNL     1       5.383   5.816  18.023  0.00  0.00    +0.000 C 
BRANCH  27  28
ATOM     28  C   UNL     1       6.477   5.399  18.989  0.00  0.00    +0.000 C 
ATOM     29  F   UNL     1       7.528   4.901  18.286  0.00  0.00    +0.000 F 
ENDBRANCH  27  28
ENDBRANCH  26  27
ENDBRANCH  25  26
ENDBRANCH  21  25
ENDBRANCH   7  21
TORSDOF 8
ENDMDL
MODEL 6
REMARK VINA RESULT:      -6.3      2.942      3.787
REMARK  Name = 
REMARK  11 active torsions:
REMARK  status: ('A' for Active; 'I' for Inactive)
REMARK    1  A    between atoms: C_1  and  O_2
REMARK    2  A    between atoms: O_2  and  C_3
REMARK    3  A    between atoms: C_5  and  C_6
REMARK    4  A    between atoms: C_7  and  N_8
REMARK    5  A    between atoms: N_14  and  C_15
REMARK    6  A    between atoms: C_15  and  C_16
REMARK    7  A    between atoms: C_15  and  C_21
REMARK    8  A    between atoms: C_16  and  O_17
REMARK    9  A    between atoms: O_17  and  C_18
REMARK   10  A    between atoms: C_18  and  C_19
REMARK   11  A    between atoms: C_27  and  C_28
REMARK                            x       y       z     vdW  Elec       q    Type
REMARK                         _______ _______ _______ _____ _____    ______ ____
ROOT
ATOM      1  N   UNL     1       1.357   9.108  20.534  0.00  0.00    +0.000 N 
ATOM      2  C   UNL     1       0.423  10.009  20.025  0.00  0.00    +0.000 A 
ATOM      3  N   UNL     1      -0.532   9.661  19.211  0.00  0.00    +0.000 NA
ATOM      4  C   UNL     1      -1.488  10.583  18.897  0.00  0.00    +0.000 A 
ATOM      5 CL   UNL     1      -2.744  10.033  17.844  0.00  0.00    +0.000 Cl
ATOM      6  C   UNL     1      -1.554  11.814  19.414  0.00  0.00    +0.000 A 
ATOM      7  N   UNL     1      -0.569  12.283  20.271  0.00  0.00    +0.000 N 
ATOM      8  C   UNL     1       0.531  11.476  20.553  0.00  0.00    +0.000 A 
ATOM      9  O   UNL     1       1.518  11.794  21.205  0.00  0.00    +0.000 OA
ATOM     10  H   UNL     1       1.816   9.364  21.397  0.00  0.00    +0.000 HD
ENDROOT
BRANCH   1  15
ATOM     11  C   UNL     1       2.599   5.366  18.957  0.00  0.00    +0.000 A 
ATOM     12  C   UNL     1       2.724   6.530  18.195  0.00  0.00    +0.000 A 
ATOM     13  C   UNL     1       2.306   7.784  18.689  0.00  0.00    +0.000 A 
ATOM     14  C   UNL     1       2.510   8.985  17.808  0.00  0.00    +0.000 C 
ATOM     15  C   UNL     1       1.715   7.867  19.965  0.00  0.00    +0.000 A 
ATOM     16  C   UNL     1       1.557   6.673  20.693  0.00  0.00    +0.000 A 
ATOM     17  C   UNL     1       1.990   5.430  20.210  0.00  0.00    +0.000 A 
ATOM     18  C   UNL     1       1.834   4.210  21.072  0.00  0.00    +0.000 C 
BRANCH  11  20
ATOM     19  C   UNL     1       4.422   4.005  18.327  0.00  0.00    +0.000 C 
ATOM     20  O   UNL     1       3.017   4.132  18.532  0.00  0.00    +0.000 OA
ENDBRANCH  11  20
ENDBRANCH   1  15
BRANCH   7  21
ATOM     21  C   UNL     1      -0.780  13.565  20.976  0.00  0.00    +0.000 C 
BRANCH  21  22
ATOM     22  C   UNL     1      -1.835  13.482  22.060  0.00  0.00    +0.000 C 
ATOM     23  C   UNL     1      -1.929  12.367  23.074  0.00  0.00    +0.000 C 
ATOM     24  C   UNL     1      -1.390  13.703  23.492  0.00  0.00    +0.000 C 
ENDBRANCH  21  22
BRANCH  21  25
ATOM     25  C   UNL     1      -1.116  14.704  19.984  0.00  0.00    +0.000 C 
BRANCH  25  26
ATOM     26  O   UNL     1      -0.038  14.886  19.059  0.00  0.00    +0.000 OA
BRANCH  26  27
ATOM     27  C   UNL     1       0.097  16.254  18.676  0.00  0.00    +0.000 C 
BRANCH  27  28
ATOM     28  C   UNL     1      -1.101  17.043  19.174  0.00  0.00    +0.000 C 
ATOM     29  F   UNL     1      -1.661  17.710  18.131  0.00  0.00    +0.000 F 
ENDBRANCH  27  28
ENDBRANCH  26  27
ENDBRANCH  25  26
ENDBRANCH  21  25
ENDBRANCH   7  21
TORSDOF 8
ENDMDL
MODEL 7
REMARK VINA RESULT:      -6.3      1.982      2.246
REMARK  Name = 
REMARK  11 active torsions:
REMARK  status: ('A' for Active; 'I' for Inactive)
REMARK    1  A    between atoms: C_1  and  O_2
REMARK    2  A    between atoms: O_2  and  C_3
REMARK    3  A    between atoms: C_5  and  C_6
REMARK    4  A    between atoms: C_7  and  N_8
REMARK    5  A    between atoms: N_14  and  C_15
REMARK    6  A    between atoms: C_15  and  C_16
REMARK    7  A    between atoms: C_15  and  C_21
REMARK    8  A    between atoms: C_16  and  O_17
REMARK    9  A    between atoms: O_17  and  C_18
REMARK   10  A    between atoms: C_18  and  C_19
REMARK   11  A    between atoms: C_27  and  C_28
REMARK                            x       y       z     vdW  Elec       q    Type
REMARK                         _______ _______ _______ _____ _____    ______ ____
ROOT
ATOM      1  N   UNL     1       2.075   8.018  18.774  0.00  0.00    +0.000 N 
ATOM      2  C   UNL     1       1.301   8.767  19.659  0.00  0.00    +0.000 A 
ATOM      3  N   UNL     1       1.303   8.574  20.946  0.00  0.00    +0.000 NA
ATOM      4  C   UNL     1       0.636   9.462  21.739  0.00  0.00    +0.000 A 
ATOM      5 CL   UNL     1       0.720   9.161  23.440  0.00  0.00    +0.000 Cl
ATOM      6  C   UNL     1       0.020  10.563  21.294  0.00  0.00    +0.000 A 
ATOM      7  N   UNL     1      -0.055  10.840  19.937  0.00  0.00    +0.000 N 
ATOM      8  C   UNL     1       0.471   9.929  19.024  0.00  0.00    +0.000 A 
ATOM      9  O   UNL     1       0.387   9.993  17.804  0.00  0.00    +0.000 OA
ATOM     10  H   UNL     1       2.289   8.441  17.883  0.00  0.00    +0.000 HD
ENDROOT
BRANCH   1  15
ATOM     11  C   UNL     1       3.727   4.208  19.666  0.00  0.00    +0.000 A 
ATOM     12  C   UNL     1       4.259   4.985  18.634  0.00  0.00    +0.000 A 
ATOM     13  C   UNL     1       3.720   6.248  18.307  0.00  0.00    +0.000 A 
ATOM     14  C   UNL     1       4.381   7.024  17.202  0.00  0.00    +0.000 C 
ATOM     15  C   UNL     1       2.597   6.728  19.009  0.00  0.00    +0.000 A 
ATOM     16  C   UNL     1       2.051   5.906  20.011  0.00  0.00    +0.000 A 
ATOM     17  C   UNL     1       2.598   4.659  20.349  0.00  0.00    +0.000 A 
ATOM     18  C   UNL     1       1.988   3.867  21.469  0.00  0.00    +0.000 C 
BRANCH  11  20
ATOM     19  C   UNL     1       3.964   1.920  19.137  0.00  0.00    +0.000 C 
ATOM     20  O   UNL     1       4.234   2.991  20.039  0.00  0.00    +0.000 OA
ENDBRANCH  11  20
ENDBRANCH   1  15
BRANCH   7  21
ATOM     21  C   UNL     1      -0.562  12.158  19.500  0.00  0.00    +0.000 C 
BRANCH  21  22
ATOM     22  C   UNL     1       0.294  13.313  19.976  0.00  0.00    +0.000 C 
ATOM     23  C   UNL     1       1.784  13.419  19.752  0.00  0.00    +0.000 C 
ATOM     24  C   UNL     1       0.851  14.255  18.926  0.00  0.00    +0.000 C 
ENDBRANCH  21  22
BRANCH  21  25
ATOM     25  C   UNL     1      -2.035  12.366  19.930  0.00  0.00    +0.000 C 
BRANCH  25  26
ATOM     26  O   UNL     1      -2.097  13.227  21.072  0.00  0.00    +0.000 OA
BRANCH  26  27
ATOM     27  C   UNL     1      -3.234  12.937  21.884  0.00  0.00    +0.000 C 
BRANCH  27  28
ATOM     28  C   UNL     1      -2.783  12.613  23.297  0.00  0.00    +0.000 C 
ATOM     29  F   UNL     1      -2.307  11.341  23.334  0.00  0.00    +0.000 F 
ENDBRANCH  27  28
ENDBRANCH  26  27
ENDBRANCH  25  26
ENDBRANCH  21  25
ENDBRANCH   7  21
TORSDOF 8
ENDMDL
MODEL 8
REMARK VINA RESULT:      -6.2      1.384      1.511
REMARK  Name = 
REMARK  11 active torsions:
REMARK  status: ('A' for Active; 'I' for Inactive)
REMARK    1  A    between atoms: C_1  and  O_2
REMARK    2  A    between atoms: O_2  and  C_3
REMARK    3  A    between atoms: C_5  and  C_6
REMARK    4  A    between atoms: C_7  and  N_8
REMARK    5  A    between atoms: N_14  and  C_15
REMARK    6  A    between atoms: C_15  and  C_16
REMARK    7  A    between atoms: C_15  and  C_21
REMARK    8  A    between atoms: C_16  and  O_17
REMARK    9  A    between atoms: O_17  and  C_18
REMARK   10  A    between atoms: C_18  and  C_19
REMARK   11  A    between atoms: C_27  and  C_28
REMARK                            x       y       z     vdW  Elec       q    Type
REMARK                         _______ _______ _______ _____ _____    ______ ____
ROOT
ATOM      1  N   UNL     1       2.236   7.950  18.685  0.00  0.00    +0.000 N 
ATOM      2  C   UNL     1       1.451   8.738  19.525  0.00  0.00    +0.000 A 
ATOM      3  N   UNL     1       1.373   8.549  20.811  0.00  0.00    +0.000 NA
ATOM      4  C   UNL     1       0.705   9.469  21.566  0.00  0.00    +0.000 A 
ATOM      5 CL   UNL     1       0.681   9.170  23.268  0.00  0.00    +0.000 Cl
ATOM      6  C   UNL     1       0.167  10.596  21.087  0.00  0.00    +0.000 A 
ATOM      7  N   UNL     1       0.179  10.872  19.727  0.00  0.00    +0.000 N 
ATOM      8  C   UNL     1       0.713   9.935  18.845  0.00  0.00    +0.000 A 
ATOM      9  O   UNL     1       0.699   9.998  17.622  0.00  0.00    +0.000 OA
ATOM     10  H   UNL     1       2.519   8.360  17.807  0.00  0.00    +0.000 HD
ENDROOT
BRANCH   1  15
ATOM     11  C   UNL     1       3.656   4.070  19.670  0.00  0.00    +0.000 A 
ATOM     12  C   UNL     1       4.285   4.821  18.673  0.00  0.00    +0.000 A 
ATOM     13  C   UNL     1       3.825   6.106  18.317  0.00  0.00    +0.000 A 
ATOM     14  C   UNL     1       4.587   6.850  17.255  0.00  0.00    +0.000 C 
ATOM     15  C   UNL     1       2.684   6.638  18.950  0.00  0.00    +0.000 A 
ATOM     16  C   UNL     1       2.042   5.843  19.916  0.00  0.00    +0.000 A 
ATOM     17  C   UNL     1       2.510   4.573  20.284  0.00  0.00    +0.000 A 
ATOM     18  C   UNL     1       1.797   3.810  21.364  0.00  0.00    +0.000 C 
BRANCH  11  20
ATOM     19  C   UNL     1       3.916   1.792  19.111  0.00  0.00    +0.000 C 
ATOM     20  O   UNL     1       4.084   2.831  20.071  0.00  0.00    +0.000 OA
ENDBRANCH  11  20
ENDBRANCH   1  15
BRANCH   7  21
ATOM     21  C   UNL     1      -0.240  12.211  19.262  0.00  0.00    +0.000 C 
BRANCH  21  22
ATOM     22  C   UNL     1       0.618  13.330  19.814  0.00  0.00    +0.000 C 
ATOM     23  C   UNL     1       2.127  13.351  19.763  0.00  0.00    +0.000 C 
ATOM     24  C   UNL     1       1.343  14.216  18.821  0.00  0.00    +0.000 C 
ENDBRANCH  21  22
BRANCH  21  25
ATOM     25  C   UNL     1      -1.734  12.473  19.575  0.00  0.00    +0.000 C 
BRANCH  25  26
ATOM     26  O   UNL     1      -2.560  11.867  18.575  0.00  0.00    +0.000 OA
BRANCH  26  27
ATOM     27  C   UNL     1      -3.940  11.925  18.933  0.00  0.00    +0.000 C 
BRANCH  27  28
ATOM     28  C   UNL     1      -4.095  12.667  20.248  0.00  0.00    +0.000 C 
ATOM     29  F   UNL     1      -5.260  12.294  20.838  0.00  0.00    +0.000 F 
ENDBRANCH  27  28
ENDBRANCH  26  27
ENDBRANCH  25  26
ENDBRANCH  21  25
ENDBRANCH   7  21
TORSDOF 8
ENDMDL
MODEL 9
REMARK VINA RESULT:      -6.2      2.937      8.449
REMARK  Name = 
REMARK  11 active torsions:
REMARK  status: ('A' for Active; 'I' for Inactive)
REMARK    1  A    between atoms: C_1  and  O_2
REMARK    2  A    between atoms: O_2  and  C_3
REMARK    3  A    between atoms: C_5  and  C_6
REMARK    4  A    between atoms: C_7  and  N_8
REMARK    5  A    between atoms: N_14  and  C_15
REMARK    6  A    between atoms: C_15  and  C_16
REMARK    7  A    between atoms: C_15  and  C_21
REMARK    8  A    between atoms: C_16  and  O_17
REMARK    9  A    between atoms: O_17  and  C_18
REMARK   10  A    between atoms: C_18  and  C_19
REMARK   11  A    between atoms: C_27  and  C_28
REMARK                            x       y       z     vdW  Elec       q    Type
REMARK                         _______ _______ _______ _____ _____    ______ ____
ROOT
ATOM      1  N   UNL     1       1.618  10.156  17.675  0.00  0.00    +0.000 N 
ATOM      2  C   UNL     1       1.927   9.105  18.537  0.00  0.00    +0.000 A 
ATOM      3  N   UNL     1       1.402   8.977  19.721  0.00  0.00    +0.000 NA
ATOM      4  C   UNL     1       1.647   7.832  20.423  0.00  0.00    +0.000 A 
ATOM      5 CL   UNL     1       0.880   7.719  21.968  0.00  0.00    +0.000 Cl
ATOM      6  C   UNL     1       2.347   6.792  19.957  0.00  0.00    +0.000 A 
ATOM      7  N   UNL     1       2.965   6.846  18.716  0.00  0.00    +0.000 N 
ATOM      8  C   UNL     1       2.899   8.020  17.970  0.00  0.00    +0.000 A 
ATOM      9  O   UNL     1       3.476   8.244  16.913  0.00  0.00    +0.000 OA
ATOM     10  H   UNL     1       1.775  10.000  16.690  0.00  0.00    +0.000 HD
ENDROOT
BRANCH   1  15
ATOM     11  C   UNL     1       0.126  13.909  18.989  0.00  0.00    +0.000 A 
ATOM     12  C   UNL     1      -0.752  12.862  18.698  0.00  0.00    +0.000 A 
ATOM     13  C   UNL     1      -0.284  11.610  18.247  0.00  0.00    +0.000 A 
ATOM     14  C   UNL     1      -1.303  10.534  17.992  0.00  0.00    +0.000 C 
ATOM     15  C   UNL     1       1.097  11.414  18.047  0.00  0.00    +0.000 A 
ATOM     16  C   UNL     1       1.955  12.499  18.300  0.00  0.00    +0.000 A 
ATOM     17  C   UNL     1       1.492  13.738  18.768  0.00  0.00    +0.000 A 
ATOM     18  C   UNL     1       2.481  14.828  19.066  0.00  0.00    +0.000 C 
BRANCH  11  20
ATOM     19  C   UNL     1      -1.353  15.096  20.394  0.00  0.00    +0.000 C 
ATOM     20  O   UNL     1      -0.279  15.132  19.458  0.00  0.00    +0.000 OA
ENDBRANCH  11  20
ENDBRANCH   1  15
BRANCH   7  21
ATOM     21  C   UNL     1       3.554   5.612  18.153  0.00  0.00    +0.000 C 
BRANCH  21  22
ATOM     22  C   UNL     1       2.691   4.387  18.369  0.00  0.00    +0.000 C 
ATOM     23  C   UNL     1       1.345   4.167  17.721  0.00  0.00    +0.000 C 
ATOM     24  C   UNL     1       2.542   3.419  17.213  0.00  0.00    +0.000 C 
ENDBRANCH  21  22
BRANCH  21  25
ATOM     25  C   UNL     1       4.981   5.369  18.702  0.00  0.00    +0.000 C 
BRANCH  25  26
ATOM     26  O   UNL     1       5.804   4.779  17.690  0.00  0.00    +0.000 OA
BRANCH  26  27
ATOM     27  C   UNL     1       7.182   5.092  17.890  0.00  0.00    +0.000 C 
BRANCH  27  28
ATOM     28  C   UNL     1       7.377   6.596  17.831  0.00  0.00    +0.000 C 
ATOM     29  F   UNL     1       8.269   6.969  18.786  0.00  0.00    +0.000 F 
ENDBRANCH  27  28
ENDBRANCH  26  27
ENDBRANCH  25  26
ENDBRANCH  21  25
ENDBRANCH   7  21
TORSDOF 8
ENDMDL
