MODEL 1
REMARK VINA RESULT:      -8.3      0.000      0.000
REMARK  Name = 
REMARK  4 active torsions:
REMARK  status: ('A' for Active; 'I' for Inactive)
REMARK    1  A    between atoms: C_5  and  C_7
REMARK    2  A    between atoms: C_7  and  N_8
REMARK    3  A    between atoms: C_9  and  C_10
REMARK    4  A    between atoms: N_17  and  C_18
REMARK                            x       y       z     vdW  Elec       q    Type
REMARK                         _______ _______ _______ _____ _____    ______ ____
ROOT
ATOM      1  N   UNL     1       2.344   6.690  19.068  0.00  0.00    +0.000 N 
ATOM      2  C   UNL     1       1.666   6.036  20.055  0.00  0.00    +0.000 A 
ATOM      3  N   UNL     1       1.004   6.831  20.853  0.00  0.00    +0.000 NA
ATOM      4  N   UNL     1       1.237   8.102  20.362  0.00  0.00    +0.000 N 
ATOM      5  C   UNL     1       2.093   8.032  19.253  0.00  0.00    +0.000 A 
ATOM      6  O   UNL     1       2.575   8.931  18.579  0.00  0.00    +0.000 OA
ENDROOT
BRANCH   4   7
ATOM      7  C   UNL     1       0.594   9.237  20.904  0.00  0.00    +0.000 A 
ATOM      8  C   UNL     1       0.205  10.312  20.088  0.00  0.00    +0.000 A 
ATOM      9  C   UNL     1      -0.509  11.397  20.606  0.00  0.00    +0.000 A 
ATOM     10  C   UNL     1      -0.832  11.429  21.957  0.00  0.00    +0.000 A 
ATOM     11 CL   UNL     1      -1.746  12.744  22.584  0.00  0.00    +0.000 Cl
ATOM     12  C   UNL     1      -0.429  10.393  22.795  0.00  0.00    +0.000 A 
ATOM     13  C   UNL     1       0.284   9.304  22.272  0.00  0.00    +0.000 A 
ENDBRANCH   4   7
BRANCH   2  14
ATOM     14  C   UNL     1       1.715   4.562  20.257  0.00  0.00    +0.000 A 
ATOM     15  C   UNL     1       2.276   4.073  21.446  0.00  0.00    +0.000 A 
ATOM     16  C   UNL     1       2.412   2.696  21.658  0.00  0.00    +0.000 A 
ATOM     17  C   UNL     1       1.991   1.792  20.684  0.00  0.00    +0.000 A 
ATOM     18  C   UNL     1       1.392   2.263  19.521  0.00  0.00    +0.000 A 
ATOM     19  C   UNL     1       1.231   3.637  19.324  0.00  0.00    +0.000 A 
ENDBRANCH   2  14
BRANCH   1  20
ATOM     20  C   UNL     1       3.213   6.253  17.985  0.00  0.00    +0.000 C 
BRANCH  20  25
ATOM     21  O   UNL     1       6.293   4.854  14.051  0.00  0.00    +0.000 OA
ATOM     22  C   UNL     1       6.442   4.989  15.263  0.00  0.00    +0.000 C 
ATOM     23  C   UNL     1       5.412   5.735  16.129  0.00  0.00    +0.000 C 
ATOM     24  N   UNL     1       5.610   5.657  17.580  0.00  0.00    +0.000 N 
ATOM     25  C   UNL     1       4.606   5.865  18.520  0.00  0.00    +0.000 C 
ATOM     26  O   UNL     1       4.844   5.822  19.729  0.00  0.00    +0.000 OA
ATOM     27  C   UNL     1       7.004   5.591  18.024  0.00  0.00    +0.000 C 
ATOM     28  C   UNL     1       7.739   4.465  17.303  0.00  0.00    +0.000 C 
ATOM     29  N   UNL     1       7.600   4.568  15.865  0.00  0.00    +0.000 N 
ATOM     30  H   UNL     1       8.215   4.032  15.263  0.00  0.00    +0.000 HD
ENDBRANCH  20  25
ENDBRANCH   1  20
TORSDOF 4
ENDMDL
MODEL 2
REMARK VINA RESULT:      -8.2      0.222      1.271
REMARK  Name = 
REMARK  4 active torsions:
REMARK  status: ('A' for Active; 'I' for Inactive)
REMARK    1  A    between atoms: C_5  and  C_7
REMARK    2  A    between atoms: C_7  and  N_8
REMARK    3  A    between atoms: C_9  and  C_10
REMARK    4  A    between atoms: N_17  and  C_18
REMARK                            x       y       z     vdW  Elec       q    Type
REMARK                         _______ _______ _______ _____ _____    ______ ____
ROOT
ATOM      1  N   UNL     1       2.379   6.788  19.097  0.00  0.00    +0.000 N 
ATOM      2  C   UNL     1       1.719   6.121  20.088  0.00  0.00    +0.000 A 
ATOM      3  N   UNL     1       1.052   6.904  20.893  0.00  0.00    +0.000 NA
ATOM      4  N   UNL     1       1.261   8.180  20.404  0.00  0.00    +0.000 N 
ATOM      5  C   UNL     1       2.109   8.126  19.288  0.00  0.00    +0.000 A 
ATOM      6  O   UNL     1       2.572   9.033  18.612  0.00  0.00    +0.000 OA
ENDROOT
BRANCH   4   7
ATOM      7  C   UNL     1       0.605   9.303  20.954  0.00  0.00    +0.000 A 
ATOM      8  C   UNL     1       0.057   9.265  22.246  0.00  0.00    +0.000 A 
ATOM      9  C   UNL     1      -0.515  10.401  22.828  0.00  0.00    +0.000 A 
ATOM     10  C   UNL     1      -0.559  11.593  22.116  0.00  0.00    +0.000 A 
ATOM     11 CL   UNL     1      -1.225  12.999  22.848  0.00  0.00    +0.000 Cl
ATOM     12  C   UNL     1      -0.053  11.650  20.820  0.00  0.00    +0.000 A 
ATOM     13  C   UNL     1       0.523  10.509  20.241  0.00  0.00    +0.000 A 
ENDBRANCH   4   7
BRANCH   2  14
ATOM     14  C   UNL     1       1.793   4.648  20.286  0.00  0.00    +0.000 A 
ATOM     15  C   UNL     1       1.330   3.816  19.256  0.00  0.00    +0.000 A 
ATOM     16  C   UNL     1       1.309   2.425  19.416  0.00  0.00    +0.000 A 
ATOM     17  C   UNL     1       1.749   1.850  20.607  0.00  0.00    +0.000 A 
ATOM     18  C   UNL     1       2.251   2.661  21.618  0.00  0.00    +0.000 A 
ATOM     19  C   UNL     1       2.297   4.047  21.445  0.00  0.00    +0.000 A 
ENDBRANCH   2  14
BRANCH   1  20
ATOM     20  C   UNL     1       3.246   6.367  18.006  0.00  0.00    +0.000 C 
BRANCH  20  25
ATOM     21  O   UNL     1       6.320   5.016  14.050  0.00  0.00    +0.000 OA
ATOM     22  C   UNL     1       6.459   5.095  15.269  0.00  0.00    +0.000 C 
ATOM     23  C   UNL     1       5.447   5.843  16.154  0.00  0.00    +0.000 C 
ATOM     24  N   UNL     1       5.623   5.697  17.603  0.00  0.00    +0.000 N 
ATOM     25  C   UNL     1       4.617   5.904  18.539  0.00  0.00    +0.000 C 
ATOM     26  O   UNL     1       4.838   5.801  19.748  0.00  0.00    +0.000 OA
ATOM     27  C   UNL     1       7.009   5.559  18.059  0.00  0.00    +0.000 C 
ATOM     28  C   UNL     1       7.709   4.437  17.298  0.00  0.00    +0.000 C 
ATOM     29  N   UNL     1       7.592   4.605  15.865  0.00  0.00    +0.000 N 
ATOM     30  H   UNL     1       8.194   4.072  15.247  0.00  0.00    +0.000 HD
ENDBRANCH  20  25
ENDBRANCH   1  20
TORSDOF 4
ENDMDL
MODEL 3
REMARK VINA RESULT:      -7.7      0.925      1.072
REMARK  Name = 
REMARK  4 active torsions:
REMARK  status: ('A' for Active; 'I' for Inactive)
REMARK    1  A    between atoms: C_5  and  C_7
REMARK    2  A    between atoms: C_7  and  N_8
REMARK    3  A    between atoms: C_9  and  C_10
REMARK    4  A    between atoms: N_17  and  C_18
REMARK                            x       y       z     vdW  Elec       q    Type
REMARK                         _______ _______ _______ _____ _____    ______ ____
ROOT
ATOM      1  N   UNL     1       2.372   6.822  18.744  0.00  0.00    +0.000 N 
ATOM      2  C   UNL     1       1.650   6.365  19.807  0.00  0.00    +0.000 A 
ATOM      3  N   UNL     1       1.019   7.307  20.457  0.00  0.00    +0.000 NA
ATOM      4  N   UNL     1       1.322   8.471  19.778  0.00  0.00    +0.000 N 
ATOM      5  C   UNL     1       2.187   8.187  18.711  0.00  0.00    +0.000 A 
ATOM      6  O   UNL     1       2.722   8.944  17.915  0.00  0.00    +0.000 OA
ENDROOT
BRANCH   4   7
ATOM      7  C   UNL     1       0.730   9.707  20.123  0.00  0.00    +0.000 A 
ATOM      8  C   UNL     1       1.441  10.676  20.849  0.00  0.00    +0.000 A 
ATOM      9  C   UNL     1       0.891  11.934  21.117  0.00  0.00    +0.000 A 
ATOM     10  C   UNL     1      -0.390  12.235  20.670  0.00  0.00    +0.000 A 
ATOM     11 CL   UNL     1      -1.049  13.796  20.964  0.00  0.00    +0.000 Cl
ATOM     12  C   UNL     1      -1.130  11.281  19.978  0.00  0.00    +0.000 A 
ATOM     13  C   UNL     1      -0.574  10.022  19.709  0.00  0.00    +0.000 A 
ENDBRANCH   4   7
BRANCH   2  14
ATOM     14  C   UNL     1       1.622   4.940  20.239  0.00  0.00    +0.000 A 
ATOM     15  C   UNL     1       2.231   4.603  21.456  0.00  0.00    +0.000 A 
ATOM     16  C   UNL     1       2.297   3.269  21.877  0.00  0.00    +0.000 A 
ATOM     17  C   UNL     1       1.756   2.258  21.085  0.00  0.00    +0.000 A 
ATOM     18  C   UNL     1       1.110   2.584  19.898  0.00  0.00    +0.000 A 
ATOM     19  C   UNL     1       1.021   3.918  19.494  0.00  0.00    +0.000 A 
ENDBRANCH   2  14
BRANCH   1  20
ATOM     20  C   UNL     1       3.231   6.178  17.760  0.00  0.00    +0.000 C 
BRANCH  20  25
ATOM     21  O   UNL     1       6.525   4.750  14.015  0.00  0.00    +0.000 OA
ATOM     22  C   UNL     1       6.613   4.917  15.229  0.00  0.00    +0.000 C 
ATOM     23  C   UNL     1       5.527   5.662  16.025  0.00  0.00    +0.000 C 
ATOM     24  N   UNL     1       5.656   5.623  17.486  0.00  0.00    +0.000 N 
ATOM     25  C   UNL     1       4.604   5.834  18.371  0.00  0.00    +0.000 C 
ATOM     26  O   UNL     1       4.784   5.824  19.590  0.00  0.00    +0.000 OA
ATOM     27  C   UNL     1       7.028   5.598  17.998  0.00  0.00    +0.000 C 
ATOM     28  C   UNL     1       7.820   4.471  17.341  0.00  0.00    +0.000 C 
ATOM     29  N   UNL     1       7.748   4.536  15.896  0.00  0.00    +0.000 N 
ATOM     30  H   UNL     1       8.402   3.999  15.338  0.00  0.00    +0.000 HD
ENDBRANCH  20  25
ENDBRANCH   1  20
TORSDOF 4
ENDMDL
MODEL 4
REMARK VINA RESULT:      -7.6      5.111      7.848
REMARK  Name = 
REMARK  4 active torsions:
REMARK  status: ('A' for Active; 'I' for Inactive)
REMARK    1  A    between atoms: C_5  and  C_7
REMARK    2  A    between atoms: C_7  and  N_8
REMARK    3  A    between atoms: C_9  and  C_10
REMARK    4  A    between atoms: N_17  and  C_18
REMARK                            x       y       z     vdW  Elec       q    Type
REMARK                         _______ _______ _______ _____ _____    ______ ____
ROOT
ATOM      1  N   UNL     1       0.498  11.724  18.715  0.00  0.00    +0.000 N 
ATOM      2  C   UNL     1       0.112  10.417  18.782  0.00  0.00    +0.000 A 
ATOM      3  N   UNL     1      -1.183  10.249  18.748  0.00  0.00    +0.000 NA
ATOM      4  N   UNL     1      -1.704  11.523  18.635  0.00  0.00    +0.000 N 
ATOM      5  C   UNL     1      -0.662  12.463  18.633  0.00  0.00    +0.000 A 
ATOM      6  O   UNL     1      -0.710  13.684  18.604  0.00  0.00    +0.000 OA
ENDROOT
BRANCH   4   7
ATOM      7  C   UNL     1      -3.088  11.747  18.461  0.00  0.00    +0.000 A 
ATOM      8  C   UNL     1      -3.872  12.288  19.492  0.00  0.00    +0.000 A 
ATOM      9  C   UNL     1      -5.224  12.593  19.296  0.00  0.00    +0.000 A 
ATOM     10  C   UNL     1      -5.813  12.346  18.062  0.00  0.00    +0.000 A 
ATOM     11 CL   UNL     1      -7.464  12.759  17.809  0.00  0.00    +0.000 Cl
ATOM     12  C   UNL     1      -5.067  11.778  17.033  0.00  0.00    +0.000 A 
ATOM     13  C   UNL     1      -3.712  11.477  17.233  0.00  0.00    +0.000 A 
ENDBRANCH   4   7
BRANCH   2  14
ATOM     14  C   UNL     1       1.061   9.281  18.941  0.00  0.00    +0.000 A 
ATOM     15  C   UNL     1       1.819   8.888  17.828  0.00  0.00    +0.000 A 
ATOM     16  C   UNL     1       2.674   7.782  17.901  0.00  0.00    +0.000 A 
ATOM     17  C   UNL     1       2.780   7.055  19.085  0.00  0.00    +0.000 A 
ATOM     18  C   UNL     1       2.068   7.461  20.207  0.00  0.00    +0.000 A 
ATOM     19  C   UNL     1       1.237   8.582  20.141  0.00  0.00    +0.000 A 
ENDBRANCH   2  14
BRANCH   1  20
ATOM     20  C   UNL     1       1.790  12.394  18.739  0.00  0.00    +0.000 C 
BRANCH  20  25
ATOM     21  O   UNL     1       3.690  17.164  17.994  0.00  0.00    +0.000 OA
ATOM     22  C   UNL     1       3.352  16.509  18.978  0.00  0.00    +0.000 C 
ATOM     23  C   UNL     1       2.516  15.224  18.847  0.00  0.00    +0.000 C 
ATOM     24  N   UNL     1       2.346  14.437  20.074  0.00  0.00    +0.000 N 
ATOM     25  C   UNL     1       2.027  13.084  20.097  0.00  0.00    +0.000 C 
ATOM     26  O   UNL     1       1.862  12.486  21.163  0.00  0.00    +0.000 OA
ATOM     27  C   UNL     1       2.282  15.210  21.316  0.00  0.00    +0.000 C 
ATOM     28  C   UNL     1       3.480  16.149  21.421  0.00  0.00    +0.000 C 
ATOM     29  N   UNL     1       3.620  16.974  20.239  0.00  0.00    +0.000 N 
ATOM     30  H   UNL     1       4.223  17.789  20.266  0.00  0.00    +0.000 HD
ENDBRANCH  20  25
ENDBRANCH   1  20
TORSDOF 4
ENDMDL
MODEL 5
REMARK VINA RESULT:      -7.5      1.144      1.418
REMARK  Name = 
REMARK  4 active torsions:
REMARK  status: ('A' for Active; 'I' for Inactive)
REMARK    1  A    between atoms: C_5  and  C_7
REMARK    2  A    between atoms: C_7  and  N_8
REMARK    3  A    between atoms: C_9  and  C_10
REMARK    4  A    between atoms: N_17  and  C_18
REMARK                            x       y       z     vdW  Elec       q    Type
REMARK                         _______ _______ _______ _____ _____    ______ ____
ROOT
ATOM      1  N   UNL     1       2.658   7.106  18.386  0.00  0.00    +0.000 N 
ATOM      2  C   UNL     1       2.167   6.211  19.290  0.00  0.00    +0.000 A 
ATOM      3  N   UNL     1       1.502   6.764  20.269  0.00  0.00    +0.000 NA
ATOM      4  N   UNL     1       1.532   8.118  19.999  0.00  0.00    +0.000 N 
ATOM      5  C   UNL     1       2.272   8.352  18.830  0.00  0.00    +0.000 A 
ATOM      6  O   UNL     1       2.573   9.408  18.293  0.00  0.00    +0.000 OA
ENDROOT
BRANCH   4   7
ATOM      7  C   UNL     1       0.820   9.049  20.788  0.00  0.00    +0.000 A 
ATOM      8  C   UNL     1       0.126  10.120  20.200  0.00  0.00    +0.000 A 
ATOM      9  C   UNL     1      -0.652  10.992  20.969  0.00  0.00    +0.000 A 
ATOM     10  C   UNL     1      -0.735  10.812  22.344  0.00  0.00    +0.000 A 
ATOM     11 CL   UNL     1      -1.724  11.860  23.282  0.00  0.00    +0.000 Cl
ATOM     12  C   UNL     1      -0.030   9.779  22.956  0.00  0.00    +0.000 A 
ATOM     13  C   UNL     1       0.746   8.904  22.182  0.00  0.00    +0.000 A 
ENDBRANCH   4   7
BRANCH   2  14
ATOM     14  C   UNL     1       2.409   4.743  19.218  0.00  0.00    +0.000 A 
ATOM     15  C   UNL     1       1.520   3.960  18.468  0.00  0.00    +0.000 A 
ATOM     16  C   UNL     1       1.658   2.568  18.423  0.00  0.00    +0.000 A 
ATOM     17  C   UNL     1       2.685   1.942  19.128  0.00  0.00    +0.000 A 
ATOM     18  C   UNL     1       3.599   2.712  19.838  0.00  0.00    +0.000 A 
ATOM     19  C   UNL     1       3.476   4.103  19.859  0.00  0.00    +0.000 A 
ENDBRANCH   2  14
BRANCH   1  20
ATOM     20  C   UNL     1       3.457   6.979  17.176  0.00  0.00    +0.000 C 
BRANCH  20  25
ATOM     21  O   UNL     1       5.302   4.006  13.344  0.00  0.00    +0.000 OA
ATOM     22  C   UNL     1       5.761   4.452  14.394  0.00  0.00    +0.000 C 
ATOM     23  C   UNL     1       5.060   5.581  15.170  0.00  0.00    +0.000 C 
ATOM     24  N   UNL     1       5.604   5.885  16.498  0.00  0.00    +0.000 N 
ATOM     25  C   UNL     1       4.892   6.523  17.508  0.00  0.00    +0.000 C 
ATOM     26  O   UNL     1       5.417   6.784  18.592  0.00  0.00    +0.000 OA
ATOM     27  C   UNL     1       7.050   5.706  16.645  0.00  0.00    +0.000 C 
ATOM     28  C   UNL     1       7.463   4.312  16.182  0.00  0.00    +0.000 C 
ATOM     29  N   UNL     1       6.982   4.025  14.847  0.00  0.00    +0.000 N 
ATOM     30  H   UNL     1       7.370   3.241  14.333  0.00  0.00    +0.000 HD
ENDBRANCH  20  25
ENDBRANCH   1  20
TORSDOF 4
ENDMDL
MODEL 6
REMARK VINA RESULT:      -7.4      4.901      7.827
REMARK  Name = 
REMARK  4 active torsions:
REMARK  status: ('A' for Active; 'I' for Inactive)
REMARK    1  A    between atoms: C_5  and  C_7
REMARK    2  A    between atoms: C_7  and  N_8
REMARK    3  A    between atoms: C_9  and  C_10
REMARK    4  A    between atoms: N_17  and  C_18
REMARK                            x       y       z     vdW  Elec       q    Type
REMARK                         _______ _______ _______ _____ _____    ______ ____
ROOT
ATOM      1  N   UNL     1       0.456  11.695  19.555  0.00  0.00    +0.000 N 
ATOM      2  C   UNL     1       0.110  10.436  19.157  0.00  0.00    +0.000 A 
ATOM      3  N   UNL     1      -1.157  10.307  18.867  0.00  0.00    +0.000 NA
ATOM      4  N   UNL     1      -1.698  11.562  19.067  0.00  0.00    +0.000 N 
ATOM      5  C   UNL     1      -0.702  12.441  19.519  0.00  0.00    +0.000 A 
ATOM      6  O   UNL     1      -0.787  13.612  19.857  0.00  0.00    +0.000 OA
ENDROOT
BRANCH   4   7
ATOM      7  C   UNL     1      -3.045  11.850  18.751  0.00  0.00    +0.000 A 
ATOM      8  C   UNL     1      -3.576  11.546  17.488  0.00  0.00    +0.000 A 
ATOM      9  C   UNL     1      -4.930  11.748  17.200  0.00  0.00    +0.000 A 
ATOM     10  C   UNL     1      -5.770  12.273  18.174  0.00  0.00    +0.000 A 
ATOM     11 CL   UNL     1      -7.443  12.482  17.832  0.00  0.00    +0.000 Cl
ATOM     12  C   UNL     1      -5.262  12.615  19.423  0.00  0.00    +0.000 A 
ATOM     13  C   UNL     1      -3.905  12.408  19.710  0.00  0.00    +0.000 A 
ENDBRANCH   4   7
BRANCH   2  14
ATOM     14  C   UNL     1       1.062   9.292  19.110  0.00  0.00    +0.000 A 
ATOM     15  C   UNL     1       1.724   9.028  17.902  0.00  0.00    +0.000 A 
ATOM     16  C   UNL     1       2.575   7.923  17.781  0.00  0.00    +0.000 A 
ATOM     17  C   UNL     1       2.773   7.069  18.864  0.00  0.00    +0.000 A 
ATOM     18  C   UNL     1       2.157   7.345  20.079  0.00  0.00    +0.000 A 
ATOM     19  C   UNL     1       1.331   8.465  20.207  0.00  0.00    +0.000 A 
ENDBRANCH   2  14
BRANCH   1  20
ATOM     20  C   UNL     1       1.704  12.306  19.989  0.00  0.00    +0.000 C 
BRANCH  20  25
ATOM     21  O   UNL     1       1.863  17.454  20.615  0.00  0.00    +0.000 OA
ATOM     22  C   UNL     1       2.313  16.667  19.785  0.00  0.00    +0.000 C 
ATOM     23  C   UNL     1       2.368  15.152  20.051  0.00  0.00    +0.000 C 
ATOM     24  N   UNL     1       2.744  14.310  18.910  0.00  0.00    +0.000 N 
ATOM     25  C   UNL     1       2.440  12.957  18.802  0.00  0.00    +0.000 C 
ATOM     26  O   UNL     1       2.816  12.294  17.833  0.00  0.00    +0.000 OA
ATOM     27  C   UNL     1       3.696  14.908  17.971  0.00  0.00    +0.000 C 
ATOM     28  C   UNL     1       3.201  16.276  17.511  0.00  0.00    +0.000 C 
ATOM     29  N   UNL     1       2.885  17.137  18.631  0.00  0.00    +0.000 N 
ATOM     30  H   UNL     1       2.768  18.132  18.480  0.00  0.00    +0.000 HD
ENDBRANCH  20  25
ENDBRANCH   1  20
TORSDOF 4
ENDMDL
MODEL 7
REMARK VINA RESULT:      -7.4      1.335      1.598
REMARK  Name = 
REMARK  4 active torsions:
REMARK  status: ('A' for Active; 'I' for Inactive)
REMARK    1  A    between atoms: C_5  and  C_7
REMARK    2  A    between atoms: C_7  and  N_8
REMARK    3  A    between atoms: C_9  and  C_10
REMARK    4  A    between atoms: N_17  and  C_18
REMARK                            x       y       z     vdW  Elec       q    Type
REMARK                         _______ _______ _______ _____ _____    ______ ____
ROOT
ATOM      1  N   UNL     1       2.755   7.127  18.261  0.00  0.00    +0.000 N 
ATOM      2  C   UNL     1       2.292   6.184  19.131  0.00  0.00    +0.000 A 
ATOM      3  N   UNL     1       1.585   6.677  20.112  0.00  0.00    +0.000 NA
ATOM      4  N   UNL     1       1.554   8.039  19.880  0.00  0.00    +0.000 N 
ATOM      5  C   UNL     1       2.302   8.341  18.731  0.00  0.00    +0.000 A 
ATOM      6  O   UNL     1       2.561   9.424  18.229  0.00  0.00    +0.000 OA
ENDROOT
BRANCH   4   7
ATOM      7  C   UNL     1       0.785   8.912  20.680  0.00  0.00    +0.000 A 
ATOM      8  C   UNL     1       0.800   8.818  22.081  0.00  0.00    +0.000 A 
ATOM      9  C   UNL     1       0.109   9.736  22.880  0.00  0.00    +0.000 A 
ATOM     10  C   UNL     1      -0.621  10.756  22.283  0.00  0.00    +0.000 A 
ATOM     11 CL   UNL     1      -1.436  11.908  23.267  0.00  0.00    +0.000 Cl
ATOM     12  C   UNL     1      -0.680  10.852  20.896  0.00  0.00    +0.000 A 
ATOM     13  C   UNL     1       0.016   9.933  20.098  0.00  0.00    +0.000 A 
ENDBRANCH   4   7
BRANCH   2  14
ATOM     14  C   UNL     1       2.605   4.732  19.023  0.00  0.00    +0.000 A 
ATOM     15  C   UNL     1       3.513   4.180  19.937  0.00  0.00    +0.000 A 
ATOM     16  C   UNL     1       3.899   2.837  19.838  0.00  0.00    +0.000 A 
ATOM     17  C   UNL     1       3.383   2.033  18.824  0.00  0.00    +0.000 A 
ATOM     18  C   UNL     1       2.449   2.558  17.939  0.00  0.00    +0.000 A 
ATOM     19  C   UNL     1       2.044   3.890  18.056  0.00  0.00    +0.000 A 
ENDBRANCH   2  14
BRANCH   1  20
ATOM     20  C   UNL     1       3.580   7.072  17.062  0.00  0.00    +0.000 C 
BRANCH  20  25
ATOM     21  O   UNL     1       5.150   3.906  13.262  0.00  0.00    +0.000 OA
ATOM     22  C   UNL     1       5.655   4.337  14.297  0.00  0.00    +0.000 C 
ATOM     23  C   UNL     1       5.049   5.526  15.062  0.00  0.00    +0.000 C 
ATOM     24  N   UNL     1       5.632   5.814  16.377  0.00  0.00    +0.000 N 
ATOM     25  C   UNL     1       4.983   6.520  17.383  0.00  0.00    +0.000 C 
ATOM     26  O   UNL     1       5.541   6.761  18.456  0.00  0.00    +0.000 OA
ATOM     27  C   UNL     1       7.064   5.535  16.507  0.00  0.00    +0.000 C 
ATOM     28  C   UNL     1       7.369   4.106  16.065  0.00  0.00    +0.000 C 
ATOM     29  N   UNL     1       6.849   3.831  14.742  0.00  0.00    +0.000 N 
ATOM     30  H   UNL     1       7.172   3.012  14.238  0.00  0.00    +0.000 HD
ENDBRANCH  20  25
ENDBRANCH   1  20
TORSDOF 4
ENDMDL
MODEL 8
REMARK VINA RESULT:      -7.4      1.642      2.093
REMARK  Name = 
REMARK  4 active torsions:
REMARK  status: ('A' for Active; 'I' for Inactive)
REMARK    1  A    between atoms: C_5  and  C_7
REMARK    2  A    between atoms: C_7  and  N_8
REMARK    3  A    between atoms: C_9  and  C_10
REMARK    4  A    between atoms: N_17  and  C_18
REMARK                            x       y       z     vdW  Elec       q    Type
REMARK                         _______ _______ _______ _____ _____    ______ ____
ROOT
ATOM      1  N   UNL     1       1.733   7.275  19.114  0.00  0.00    +0.000 N 
ATOM      2  C   UNL     1       1.419   6.630  20.274  0.00  0.00    +0.000 A 
ATOM      3  N   UNL     1       0.980   7.424  21.214  0.00  0.00    +0.000 NA
ATOM      4  N   UNL     1       0.982   8.683  20.645  0.00  0.00    +0.000 N 
ATOM      5  C   UNL     1       1.472   8.610  19.332  0.00  0.00    +0.000 A 
ATOM      6  O   UNL     1       1.678   9.502  18.524  0.00  0.00    +0.000 OA
ENDROOT
BRANCH   4   7
ATOM      7  C   UNL     1       0.466   9.807  21.328  0.00  0.00    +0.000 A 
ATOM      8  C   UNL     1       0.706  11.112  20.866  0.00  0.00    +0.000 A 
ATOM      9  C   UNL     1       0.125  12.222  21.488  0.00  0.00    +0.000 A 
ATOM     10  C   UNL     1      -0.697  12.041  22.593  0.00  0.00    +0.000 A 
ATOM     11 CL   UNL     1      -1.444  13.404  23.331  0.00  0.00    +0.000 Cl
ATOM     12  C   UNL     1      -0.925  10.762  23.092  0.00  0.00    +0.000 A 
ATOM     13  C   UNL     1      -0.343   9.651  22.464  0.00  0.00    +0.000 A 
ENDBRANCH   4   7
BRANCH   2  14
ATOM     14  C   UNL     1       1.611   5.169  20.488  0.00  0.00    +0.000 A 
ATOM     15  C   UNL     1       0.924   4.280  19.649  0.00  0.00    +0.000 A 
ATOM     16  C   UNL     1       1.011   2.897  19.850  0.00  0.00    +0.000 A 
ATOM     17  C   UNL     1       1.784   2.387  20.891  0.00  0.00    +0.000 A 
ATOM     18  C   UNL     1       2.506   3.257  21.701  0.00  0.00    +0.000 A 
ATOM     19  C   UNL     1       2.440   4.635  21.481  0.00  0.00    +0.000 A 
ENDBRANCH   2  14
BRANCH   1  20
ATOM     20  C   UNL     1       2.264   6.836  17.831  0.00  0.00    +0.000 C 
BRANCH  20  25
ATOM     21  O   UNL     1       4.972   2.698  19.401  0.00  0.00    +0.000 OA
ATOM     22  C   UNL     1       5.262   3.799  18.935  0.00  0.00    +0.000 C 
ATOM     23  C   UNL     1       4.209   4.696  18.262  0.00  0.00    +0.000 C 
ATOM     24  N   UNL     1       4.641   6.057  17.925  0.00  0.00    +0.000 N 
ATOM     25  C   UNL     1       3.775   7.128  17.731  0.00  0.00    +0.000 C 
ATOM     26  O   UNL     1       4.197   8.241  17.414  0.00  0.00    +0.000 OA
ATOM     27  C   UNL     1       6.049   6.197  17.547  0.00  0.00    +0.000 C 
ATOM     28  C   UNL     1       6.949   5.577  18.611  0.00  0.00    +0.000 C 
ATOM     29  N   UNL     1       6.569   4.211  18.906  0.00  0.00    +0.000 N 
ATOM     30  H   UNL     1       7.209   3.612  19.415  0.00  0.00    +0.000 HD
ENDBRANCH  20  25
ENDBRANCH   1  20
TORSDOF 4
ENDMDL
MODEL 9
REMARK VINA RESULT:      -7.4      2.765      4.770
REMARK  Name = 
REMARK  4 active torsions:
REMARK  status: ('A' for Active; 'I' for Inactive)
REMARK    1  A    between atoms: C_5  and  C_7
REMARK    2  A    between atoms: C_7  and  N_8
REMARK    3  A    between atoms: C_9  and  C_10
REMARK    4  A    between atoms: N_17  and  C_18
REMARK                            x       y       z     vdW  Elec       q    Type
REMARK                         _______ _______ _______ _____ _____    ______ ____
ROOT
ATOM      1  N   UNL     1       2.882   7.033  18.917  0.00  0.00    +0.000 N 
ATOM      2  C   UNL     1       3.618   7.554  17.893  0.00  0.00    +0.000 A 
ATOM      3  N   UNL     1       3.241   8.751  17.532  0.00  0.00    +0.000 NA
ATOM      4  N   UNL     1       2.195   9.066  18.378  0.00  0.00    +0.000 N 
ATOM      5  C   UNL     1       1.943   7.989  19.241  0.00  0.00    +0.000 A 
ATOM      6  O   UNL     1       1.075   7.853  20.090  0.00  0.00    +0.000 OA
ENDROOT
BRANCH   4   7
ATOM      7  C   UNL     1       1.587  10.341  18.365  0.00  0.00    +0.000 A 
ATOM      8  C   UNL     1       0.201  10.487  18.541  0.00  0.00    +0.000 A 
ATOM      9  C   UNL     1      -0.393  11.751  18.616  0.00  0.00    +0.000 A 
ATOM     10  C   UNL     1       0.394  12.890  18.502  0.00  0.00    +0.000 A 
ATOM     11 CL   UNL     1      -0.333  14.444  18.635  0.00  0.00    +0.000 Cl
ATOM     12  C   UNL     1       1.764  12.774  18.292  0.00  0.00    +0.000 A 
ATOM     13  C   UNL     1       2.358  11.505  18.220  0.00  0.00    +0.000 A 
ENDBRANCH   4   7
BRANCH   2  14
ATOM     14  C   UNL     1       4.709   6.816  17.200  0.00  0.00    +0.000 A 
ATOM     15  C   UNL     1       5.981   6.805  17.789  0.00  0.00    +0.000 A 
ATOM     16  C   UNL     1       7.061   6.188  17.146  0.00  0.00    +0.000 A 
ATOM     17  C   UNL     1       6.882   5.576  15.907  0.00  0.00    +0.000 A 
ATOM     18  C   UNL     1       5.616   5.542  15.333  0.00  0.00    +0.000 A 
ATOM     19  C   UNL     1       4.535   6.133  15.990  0.00  0.00    +0.000 A 
ENDBRANCH   2  14
BRANCH   1  20
ATOM     20  C   UNL     1       2.906   5.764  19.630  0.00  0.00    +0.000 C 
BRANCH  20  25
ATOM     21  O   UNL     1       5.447   1.501  21.145  0.00  0.00    +0.000 OA
ATOM     22  C   UNL     1       4.634   1.758  20.260  0.00  0.00    +0.000 C 
ATOM     23  C   UNL     1       3.811   3.058  20.267  0.00  0.00    +0.000 C 
ATOM     24  N   UNL     1       3.024   3.330  19.059  0.00  0.00    +0.000 N 
ATOM     25  C   UNL     1       2.582   4.593  18.681  0.00  0.00    +0.000 C 
ATOM     26  O   UNL     1       1.892   4.752  17.672  0.00  0.00    +0.000 OA
ATOM     27  C   UNL     1       2.493   2.150  18.372  0.00  0.00    +0.000 C 
ATOM     28  C   UNL     1       3.611   1.151  18.092  0.00  0.00    +0.000 C 
ATOM     29  N   UNL     1       4.356   0.828  19.291  0.00  0.00    +0.000 N 
ATOM     30  H   UNL     1       4.967   0.019  19.298  0.00  0.00    +0.000 HD
ENDBRANCH  20  25
ENDBRANCH   1  20
TORSDOF 4
ENDMDL
