MODEL 1
REMARK VINA RESULT:      -7.1      0.000      0.000
REMARK  Name = 
REMARK  6 active torsions:
REMARK  status: ('A' for Active; 'I' for Inactive)
REMARK    1  A    between atoms: C_2  and  C_4
REMARK    2  A    between atoms: C_9  and  C_11
REMARK    3  A    between atoms: C_11  and  C_12
REMARK    4  A    between atoms: C_11  and  N_19
REMARK    5  A    between atoms: C_12  and  C_13
REMARK    6  A    between atoms: C_20  and  C_22
REMARK                            x       y       z     vdW  Elec       q    Type
REMARK                         _______ _______ _______ _____ _____    ______ ____
ROOT
ATOM      1  C   UNL     1       3.878   5.587  18.520  0.00  0.00    +0.000 C 
ENDROOT
BRANCH   1   7
ATOM      2  C   UNL     1       6.497   5.026  16.819  0.00  0.00    +0.000 C 
ATOM      3  C   UNL     1       7.198   5.103  15.450  0.00  0.00    +0.000 C 
ATOM      4  C   UNL     1       6.465   4.073  14.610  0.00  0.00    +0.000 C 
ATOM      5  C   UNL     1       5.058   4.053  15.188  0.00  0.00    +0.000 C 
ATOM      6  N   UNL     1       5.096   4.851  16.413  0.00  0.00    +0.000 N 
ATOM      7  C   UNL     1       3.964   4.760  17.219  0.00  0.00    +0.000 C 
ATOM      8  O   UNL     1       3.014   4.048  16.859  0.00  0.00    +0.000 OA
BRANCH   2  10
ATOM      9  N   UNL     1       6.820   7.461  17.211  0.00  0.00    +0.000 N 
ATOM     10  C   UNL     1       6.925   6.200  17.711  0.00  0.00    +0.000 C 
ATOM     11  O   UNL     1       7.258   6.047  18.883  0.00  0.00    +0.000 OA
ATOM     12  H   UNL     1       7.142   8.242  17.771  0.00  0.00    +0.000 HD
ATOM     13  H   UNL     1       6.492   7.677  16.280  0.00  0.00    +0.000 HD
ENDBRANCH   2  10
ENDBRANCH   1   7
BRANCH   1  14
ATOM     14  N   UNL     1       2.782   6.571  18.392  0.00  0.00    +0.000 N 
ATOM     15  C   UNL     1       2.928   7.843  17.887  0.00  0.00    +0.000 C 
ATOM     16  O   UNL     1       3.959   8.284  17.387  0.00  0.00    +0.000 OA
ATOM     17  H   UNL     1       1.909   6.363  18.859  0.00  0.00    +0.000 HD
BRANCH  15  18
ATOM     18  C   UNL     1       1.734   8.774  18.115  0.00  0.00    +0.000 C 
ATOM     19  C   UNL     1       2.165  10.219  17.878  0.00  0.00    +0.000 C 
ATOM     20  C   UNL     1       1.206  11.034  18.734  0.00  0.00    +0.000 C 
ATOM     21  C   UNL     1       0.870  10.081  19.850  0.00  0.00    +0.000 C 
ATOM     22  O   UNL     1       0.363  10.362  20.921  0.00  0.00    +0.000 OA
ATOM     23  N   UNL     1       1.229   8.808  19.464  0.00  0.00    +0.000 N 
ATOM     24  H   UNL     1       0.913   8.001  19.988  0.00  0.00    +0.000 HD
ENDBRANCH  15  18
ENDBRANCH   1  14
BRANCH   1  25
ATOM     25  C   UNL     1       3.704   4.722  19.784  0.00  0.00    +0.000 C 
BRANCH  25  26
ATOM     26  C   UNL     1       2.404   4.908  20.599  0.00  0.00    +0.000 C 
ATOM     27  C   UNL     1       1.122   4.553  19.839  0.00  0.00    +0.000 C 
ATOM     28  C   UNL     1       1.062   3.071  19.484  0.00  0.00    +0.000 C 
ATOM     29  C   UNL     1       1.191   2.193  20.728  0.00  0.00    +0.000 C 
ATOM     30  C   UNL     1       2.389   2.556  21.605  0.00  0.00    +0.000 C 
ATOM     31  C   UNL     1       2.479   4.057  21.883  0.00  0.00    +0.000 C 
ENDBRANCH  25  26
ENDBRANCH   1  25
TORSDOF 6
ENDMDL
MODEL 2
REMARK VINA RESULT:      -7.0      0.675      1.261
REMARK  Name = 
REMARK  6 active torsions:
REMARK  status: ('A' for Active; 'I' for Inactive)
REMARK    1  A    between atoms: C_2  and  C_4
REMARK    2  A    between atoms: C_9  and  C_11
REMARK    3  A    between atoms: C_11  and  C_12
REMARK    4  A    between atoms: C_11  and  N_19
REMARK    5  A    between atoms: C_12  and  C_13
REMARK    6  A    between atoms: C_20  and  C_22
REMARK                            x       y       z     vdW  Elec       q    Type
REMARK                         _______ _______ _______ _____ _____    ______ ____
ROOT
ATOM      1  C   UNL     1       4.061   5.313  18.259  0.00  0.00    +0.000 C 
ENDROOT
BRANCH   1   7
ATOM      2  C   UNL     1       6.703   4.992  16.531  0.00  0.00    +0.000 C 
ATOM      3  C   UNL     1       7.410   5.224  15.183  0.00  0.00    +0.000 C 
ATOM      4  C   UNL     1       6.708   4.267  14.238  0.00  0.00    +0.000 C 
ATOM      5  C   UNL     1       5.299   4.154  14.798  0.00  0.00    +0.000 C 
ATOM      6  N   UNL     1       5.309   4.825  16.098  0.00  0.00    +0.000 N 
ATOM      7  C   UNL     1       4.176   4.625  16.881  0.00  0.00    +0.000 C 
ATOM      8  O   UNL     1       3.245   3.930  16.443  0.00  0.00    +0.000 OA
BRANCH   2  10
ATOM      9  N   UNL     1       6.928   7.381  17.184  0.00  0.00    +0.000 N 
ATOM     10  C   UNL     1       7.096   6.079  17.541  0.00  0.00    +0.000 C 
ATOM     11  O   UNL     1       7.456   5.815  18.685  0.00  0.00    +0.000 OA
ATOM     12  H   UNL     1       7.227   8.110  17.823  0.00  0.00    +0.000 HD
ATOM     13  H   UNL     1       6.575   7.683  16.287  0.00  0.00    +0.000 HD
ENDBRANCH   2  10
ENDBRANCH   1   7
BRANCH   1  14
ATOM     14  N   UNL     1       2.922   6.256  18.231  0.00  0.00    +0.000 N 
ATOM     15  C   UNL     1       3.018   7.590  17.907  0.00  0.00    +0.000 C 
ATOM     16  O   UNL     1       4.038   8.139  17.501  0.00  0.00    +0.000 OA
ATOM     17  H   UNL     1       2.049   5.947  18.640  0.00  0.00    +0.000 HD
BRANCH  15  18
ATOM     18  C   UNL     1       1.776   8.427  18.222  0.00  0.00    +0.000 C 
ATOM     19  C   UNL     1       2.020   9.873  17.801  0.00  0.00    +0.000 C 
ATOM     20  C   UNL     1       1.105  10.680  18.712  0.00  0.00    +0.000 C 
ATOM     21  C   UNL     1       1.021   9.817  19.943  0.00  0.00    +0.000 C 
ATOM     22  O   UNL     1       0.636  10.157  21.047  0.00  0.00    +0.000 OA
ATOM     23  N   UNL     1       1.456   8.550  19.621  0.00  0.00    +0.000 N 
ATOM     24  H   UNL     1       1.298   7.774  20.253  0.00  0.00    +0.000 HD
ENDBRANCH  15  18
ENDBRANCH   1  14
BRANCH   1  25
ATOM     25  C   UNL     1       3.933   4.319  19.430  0.00  0.00    +0.000 C 
BRANCH  25  26
ATOM     26  C   UNL     1       3.057   3.065  19.205  0.00  0.00    +0.000 C 
ATOM     27  C   UNL     1       3.246   1.963  20.252  0.00  0.00    +0.000 C 
ATOM     28  C   UNL     1       2.800   2.414  21.639  0.00  0.00    +0.000 C 
ATOM     29  C   UNL     1       1.346   2.885  21.633  0.00  0.00    +0.000 C 
ATOM     30  C   UNL     1       1.045   3.909  20.539  0.00  0.00    +0.000 C 
ATOM     31  C   UNL     1       1.572   3.477  19.169  0.00  0.00    +0.000 C 
ENDBRANCH  25  26
ENDBRANCH   1  25
TORSDOF 6
ENDMDL
MODEL 3
REMARK VINA RESULT:      -6.9      2.897      5.949
REMARK  Name = 
REMARK  6 active torsions:
REMARK  status: ('A' for Active; 'I' for Inactive)
REMARK    1  A    between atoms: C_2  and  C_4
REMARK    2  A    between atoms: C_9  and  C_11
REMARK    3  A    between atoms: C_11  and  C_12
REMARK    4  A    between atoms: C_11  and  N_19
REMARK    5  A    between atoms: C_12  and  C_13
REMARK    6  A    between atoms: C_20  and  C_22
REMARK                            x       y       z     vdW  Elec       q    Type
REMARK                         _______ _______ _______ _____ _____    ______ ____
ROOT
ATOM      1  C   UNL     1       5.033   5.349  16.533  0.00  0.00    +0.000 C 
ENDROOT
BRANCH   1   7
ATOM      2  C   UNL     1       7.725   6.538  17.719  0.00  0.00    +0.000 C 
ATOM      3  C   UNL     1       8.390   7.552  18.667  0.00  0.00    +0.000 C 
ATOM      4  C   UNL     1       8.120   8.893  18.008  0.00  0.00    +0.000 C 
ATOM      5  C   UNL     1       6.805   8.690  17.273  0.00  0.00    +0.000 C 
ATOM      6  N   UNL     1       6.503   7.260  17.339  0.00  0.00    +0.000 N 
ATOM      7  C   UNL     1       5.462   6.832  16.520  0.00  0.00    +0.000 C 
ATOM      8  O   UNL     1       4.857   7.658  15.819  0.00  0.00    +0.000 OA
BRANCH   2  10
ATOM      9  N   UNL     1       7.087   5.048  19.606  0.00  0.00    +0.000 N 
ATOM     10  C   UNL     1       7.657   5.151  18.375  0.00  0.00    +0.000 C 
ATOM     11  O   UNL     1       8.002   4.129  17.788  0.00  0.00    +0.000 OA
ATOM     12  H   UNL     1       7.077   4.147  20.070  0.00  0.00    +0.000 HD
ATOM     13  H   UNL     1       6.718   5.830  20.128  0.00  0.00    +0.000 HD
ENDBRANCH   2  10
ENDBRANCH   1   7
BRANCH   1  14
ATOM     14  N   UNL     1       3.701   5.240  17.167  0.00  0.00    +0.000 N 
ATOM     15  C   UNL     1       3.476   5.264  18.524  0.00  0.00    +0.000 C 
ATOM     16  O   UNL     1       4.337   5.481  19.372  0.00  0.00    +0.000 OA
ATOM     17  H   UNL     1       2.926   4.958  16.580  0.00  0.00    +0.000 HD
BRANCH  15  18
ATOM     18  C   UNL     1       2.068   4.849  18.958  0.00  0.00    +0.000 C 
ATOM     19  C   UNL     1       2.103   4.373  20.407  0.00  0.00    +0.000 C 
ATOM     20  C   UNL     1       0.926   3.413  20.507  0.00  0.00    +0.000 C 
ATOM     21  C   UNL     1       0.814   2.882  19.102  0.00  0.00    +0.000 C 
ATOM     22  O   UNL     1       0.207   1.889  18.745  0.00  0.00    +0.000 OA
ATOM     23  N   UNL     1       1.518   3.715  18.261  0.00  0.00    +0.000 N 
ATOM     24  H   UNL     1       1.410   3.644  17.255  0.00  0.00    +0.000 HD
ENDBRANCH  15  18
ENDBRANCH   1  14
BRANCH   1  25
ATOM     25  C   UNL     1       5.040   4.698  15.136  0.00  0.00    +0.000 C 
BRANCH  25  26
ATOM     26  C   UNL     1       6.222   3.762  14.793  0.00  0.00    +0.000 C 
ATOM     27  C   UNL     1       5.982   2.853  13.584  0.00  0.00    +0.000 C 
ATOM     28  C   UNL     1       5.828   3.651  12.294  0.00  0.00    +0.000 C 
ATOM     29  C   UNL     1       7.040   4.547  12.042  0.00  0.00    +0.000 C 
ATOM     30  C   UNL     1       7.417   5.410  13.245  0.00  0.00    +0.000 C 
ATOM     31  C   UNL     1       7.488   4.607  14.545  0.00  0.00    +0.000 C 
ENDBRANCH  25  26
ENDBRANCH   1  25
TORSDOF 6
ENDMDL
MODEL 4
REMARK VINA RESULT:      -6.9      2.265      4.934
REMARK  Name = 
REMARK  6 active torsions:
REMARK  status: ('A' for Active; 'I' for Inactive)
REMARK    1  A    between atoms: C_2  and  C_4
REMARK    2  A    between atoms: C_9  and  C_11
REMARK    3  A    between atoms: C_11  and  C_12
REMARK    4  A    between atoms: C_11  and  N_19
REMARK    5  A    between atoms: C_12  and  C_13
REMARK    6  A    between atoms: C_20  and  C_22
REMARK                            x       y       z     vdW  Elec       q    Type
REMARK                         _______ _______ _______ _____ _____    ______ ____
ROOT
ATOM      1  C   UNL     1       2.560   6.545  18.876  0.00  0.00    +0.000 C 
ENDROOT
BRANCH   1   7
ATOM      2  C   UNL     1       2.261   3.392  19.075  0.00  0.00    +0.000 C 
ATOM      3  C   UNL     1       1.410   2.194  19.535  0.00  0.00    +0.000 C 
ATOM      4  C   UNL     1       1.491   2.255  21.050  0.00  0.00    +0.000 C 
ATOM      5  C   UNL     1       1.664   3.735  21.356  0.00  0.00    +0.000 C 
ATOM      6  N   UNL     1       1.897   4.404  20.076  0.00  0.00    +0.000 N 
ATOM      7  C   UNL     1       2.317   5.728  20.164  0.00  0.00    +0.000 C 
ATOM      8  O   UNL     1       2.448   6.255  21.280  0.00  0.00    +0.000 OA
BRANCH   2  10
ATOM      9  N   UNL     1       3.024   3.227  16.713  0.00  0.00    +0.000 N 
ATOM     10  C   UNL     1       2.060   3.651  17.575  0.00  0.00    +0.000 C 
ATOM     11  O   UNL     1       1.024   4.131  17.124  0.00  0.00    +0.000 OA
ATOM     12  H   UNL     1       2.927   3.433  15.726  0.00  0.00    +0.000 HD
ATOM     13  H   UNL     1       3.876   2.764  16.998  0.00  0.00    +0.000 HD
ENDBRANCH   2  10
ENDBRANCH   1   7
BRANCH   1  14
ATOM     14  N   UNL     1       1.754   7.784  18.934  0.00  0.00    +0.000 N 
ATOM     15  C   UNL     1       1.837   8.815  18.027  0.00  0.00    +0.000 C 
ATOM     16  O   UNL     1       2.513   8.791  17.001  0.00  0.00    +0.000 OA
ATOM     17  H   UNL     1       1.235   7.964  19.784  0.00  0.00    +0.000 HD
BRANCH  15  18
ATOM     18  C   UNL     1       1.128  10.106  18.441  0.00  0.00    +0.000 C 
ATOM     19  C   UNL     1       0.771  10.035  19.923  0.00  0.00    +0.000 C 
ATOM     20  C   UNL     1      -0.434  10.955  20.055  0.00  0.00    +0.000 C 
ATOM     21  C   UNL     1      -1.067  10.867  18.693  0.00  0.00    +0.000 C 
ATOM     22  O   UNL     1      -2.199  11.203  18.391  0.00  0.00    +0.000 OA
ATOM     23  N   UNL     1      -0.148  10.336  17.815  0.00  0.00    +0.000 N 
ATOM     24  H   UNL     1      -0.308  10.372  16.814  0.00  0.00    +0.000 HD
ENDBRANCH  15  18
ENDBRANCH   1  14
BRANCH   1  25
ATOM     25  C   UNL     1       4.047   6.859  18.623  0.00  0.00    +0.000 C 
BRANCH  25  26
ATOM     26  C   UNL     1       4.828   5.902  17.693  0.00  0.00    +0.000 C 
ATOM     27  C   UNL     1       5.772   6.601  16.710  0.00  0.00    +0.000 C 
ATOM     28  C   UNL     1       6.901   7.332  17.429  0.00  0.00    +0.000 C 
ATOM     29  C   UNL     1       7.693   6.388  18.332  0.00  0.00    +0.000 C 
ATOM     30  C   UNL     1       6.812   5.566  19.271  0.00  0.00    +0.000 C 
ATOM     31  C   UNL     1       5.638   4.905  18.547  0.00  0.00    +0.000 C 
ENDBRANCH  25  26
ENDBRANCH   1  25
TORSDOF 6
ENDMDL
MODEL 5
REMARK VINA RESULT:      -6.9      2.981      5.653
REMARK  Name = 
REMARK  6 active torsions:
REMARK  status: ('A' for Active; 'I' for Inactive)
REMARK    1  A    between atoms: C_2  and  C_4
REMARK    2  A    between atoms: C_9  and  C_11
REMARK    3  A    between atoms: C_11  and  C_12
REMARK    4  A    between atoms: C_11  and  N_19
REMARK    5  A    between atoms: C_12  and  C_13
REMARK    6  A    between atoms: C_20  and  C_22
REMARK                            x       y       z     vdW  Elec       q    Type
REMARK                         _______ _______ _______ _____ _____    ______ ____
ROOT
ATOM      1  C   UNL     1       4.166   4.317  17.620  0.00  0.00    +0.000 C 
ENDROOT
BRANCH   1   7
ATOM      2  C   UNL     1       5.948   6.927  17.896  0.00  0.00    +0.000 C 
ATOM      3  C   UNL     1       7.330   7.583  17.714  0.00  0.00    +0.000 C 
ATOM      4  C   UNL     1       8.188   6.918  18.775  0.00  0.00    +0.000 C 
ATOM      5  C   UNL     1       7.578   5.534  18.936  0.00  0.00    +0.000 C 
ATOM      6  N   UNL     1       6.327   5.536  18.178  0.00  0.00    +0.000 N 
ATOM      7  C   UNL     1       5.498   4.438  18.393  0.00  0.00    +0.000 C 
ATOM      8  O   UNL     1       5.860   3.543  19.172  0.00  0.00    +0.000 OA
BRANCH   2  10
ATOM      9  N   UNL     1       3.778   7.744  16.996  0.00  0.00    +0.000 N 
ATOM     10  C   UNL     1       5.026   7.277  16.720  0.00  0.00    +0.000 C 
ATOM     11  O   UNL     1       5.408   7.247  15.553  0.00  0.00    +0.000 OA
ATOM     12  H   UNL     1       3.143   7.934  16.230  0.00  0.00    +0.000 HD
ATOM     13  H   UNL     1       3.410   7.861  17.929  0.00  0.00    +0.000 HD
ENDBRANCH   2  10
ENDBRANCH   1   7
BRANCH   1  14
ATOM     14  N   UNL     1       4.429   4.513  16.178  0.00  0.00    +0.000 N 
ATOM     15  C   UNL     1       5.374   3.824  15.454  0.00  0.00    +0.000 C 
ATOM     16  O   UNL     1       6.044   2.891  15.887  0.00  0.00    +0.000 OA
ATOM     17  H   UNL     1       4.012   5.320  15.733  0.00  0.00    +0.000 HD
BRANCH  15  18
ATOM     18  C   UNL     1       5.667   4.389  14.062  0.00  0.00    +0.000 C 
ATOM     19  C   UNL     1       6.135   3.262  13.145  0.00  0.00    +0.000 C 
ATOM     20  C   UNL     1       6.993   3.967  12.104  0.00  0.00    +0.000 C 
ATOM     21  C   UNL     1       7.522   5.155  12.863  0.00  0.00    +0.000 C 
ATOM     22  O   UNL     1       8.464   5.860  12.550  0.00  0.00    +0.000 OA
ATOM     23  N   UNL     1       6.756   5.329  13.996  0.00  0.00    +0.000 N 
ATOM     24  H   UNL     1       6.824   6.182  14.539  0.00  0.00    +0.000 HD
ENDBRANCH  15  18
ENDBRANCH   1  14
BRANCH   1  25
ATOM     25  C   UNL     1       3.431   2.987  17.876  0.00  0.00    +0.000 C 
BRANCH  25  26
ATOM     26  C   UNL     1       1.886   3.032  17.949  0.00  0.00    +0.000 C 
ATOM     27  C   UNL     1       1.272   2.076  18.976  0.00  0.00    +0.000 C 
ATOM     28  C   UNL     1       1.665   2.443  20.403  0.00  0.00    +0.000 C 
ATOM     29  C   UNL     1       1.281   3.884  20.735  0.00  0.00    +0.000 C 
ATOM     30  C   UNL     1       1.762   4.896  19.696  0.00  0.00    +0.000 C 
ATOM     31  C   UNL     1       1.430   4.471  18.265  0.00  0.00    +0.000 C 
ENDBRANCH  25  26
ENDBRANCH   1  25
TORSDOF 6
ENDMDL
MODEL 6
REMARK VINA RESULT:      -6.8      3.026      5.988
REMARK  Name = 
REMARK  6 active torsions:
REMARK  status: ('A' for Active; 'I' for Inactive)
REMARK    1  A    between atoms: C_2  and  C_4
REMARK    2  A    between atoms: C_9  and  C_11
REMARK    3  A    between atoms: C_11  and  C_12
REMARK    4  A    between atoms: C_11  and  N_19
REMARK    5  A    between atoms: C_12  and  C_13
REMARK    6  A    between atoms: C_20  and  C_22
REMARK                            x       y       z     vdW  Elec       q    Type
REMARK                         _______ _______ _______ _____ _____    ______ ____
ROOT
ATOM      1  C   UNL     1       5.231   5.103  16.493  0.00  0.00    +0.000 C 
ENDROOT
BRANCH   1   7
ATOM      2  C   UNL     1       7.785   6.549  17.698  0.00  0.00    +0.000 C 
ATOM      3  C   UNL     1       8.340   7.643  18.629  0.00  0.00    +0.000 C 
ATOM      4  C   UNL     1       7.973   8.936  17.925  0.00  0.00    +0.000 C 
ATOM      5  C   UNL     1       6.697   8.602  17.168  0.00  0.00    +0.000 C 
ATOM      6  N   UNL     1       6.515   7.154  17.271  0.00  0.00    +0.000 N 
ATOM      7  C   UNL     1       5.533   6.616  16.444  0.00  0.00    +0.000 C 
ATOM      8  O   UNL     1       4.877   7.368  15.706  0.00  0.00    +0.000 OA
BRANCH   2  10
ATOM      9  N   UNL     1       7.178   5.049  19.587  0.00  0.00    +0.000 N 
ATOM     10  C   UNL     1       7.818   5.181  18.394  0.00  0.00    +0.000 C 
ATOM     11  O   UNL     1       8.309   4.187  17.866  0.00  0.00    +0.000 OA
ATOM     12  H   UNL     1       7.231   4.165  20.080  0.00  0.00    +0.000 HD
ATOM     13  H   UNL     1       6.694   5.800  20.058  0.00  0.00    +0.000 HD
ENDBRANCH   2  10
ENDBRANCH   1   7
BRANCH   1  14
ATOM     14  N   UNL     1       4.046   4.878  17.350  0.00  0.00    +0.000 N 
ATOM     15  C   UNL     1       3.982   3.956  18.370  0.00  0.00    +0.000 C 
ATOM     16  O   UNL     1       4.929   3.279  18.761  0.00  0.00    +0.000 OA
ATOM     17  H   UNL     1       3.174   5.303  17.063  0.00  0.00    +0.000 HD
BRANCH  15  18
ATOM     18  C   UNL     1       2.580   3.697  18.926  0.00  0.00    +0.000 C 
ATOM     19  C   UNL     1       2.029   4.985  19.531  0.00  0.00    +0.000 C 
ATOM     20  C   UNL     1       1.038   4.503  20.581  0.00  0.00    +0.000 C 
ATOM     21  C   UNL     1       1.609   3.169  20.985  0.00  0.00    +0.000 C 
ATOM     22  O   UNL     1       1.331   2.529  21.983  0.00  0.00    +0.000 OA
ATOM     23  N   UNL     1       2.516   2.772  20.028  0.00  0.00    +0.000 N 
ATOM     24  H   UNL     1       2.867   1.821  20.012  0.00  0.00    +0.000 HD
ENDBRANCH  15  18
ENDBRANCH   1  14
BRANCH   1  25
ATOM     25  C   UNL     1       5.037   4.473  15.100  0.00  0.00    +0.000 C 
BRANCH  25  26
ATOM     26  C   UNL     1       6.157   3.543  14.579  0.00  0.00    +0.000 C 
ATOM     27  C   UNL     1       5.882   2.926  13.204  0.00  0.00    +0.000 C 
ATOM     28  C   UNL     1       5.816   3.985  12.108  0.00  0.00    +0.000 C 
ATOM     29  C   UNL     1       7.096   4.819  12.060  0.00  0.00    +0.000 C 
ATOM     30  C   UNL     1       7.505   5.382  13.420  0.00  0.00    +0.000 C 
ATOM     31  C   UNL     1       7.486   4.323  14.523  0.00  0.00    +0.000 C 
ENDBRANCH  25  26
ENDBRANCH   1  25
TORSDOF 6
ENDMDL
MODEL 7
REMARK VINA RESULT:      -6.8      1.202      1.300
REMARK  Name = 
REMARK  6 active torsions:
REMARK  status: ('A' for Active; 'I' for Inactive)
REMARK    1  A    between atoms: C_2  and  C_4
REMARK    2  A    between atoms: C_9  and  C_11
REMARK    3  A    between atoms: C_11  and  C_12
REMARK    4  A    between atoms: C_11  and  N_19
REMARK    5  A    between atoms: C_12  and  C_13
REMARK    6  A    between atoms: C_20  and  C_22
REMARK                            x       y       z     vdW  Elec       q    Type
REMARK                         _______ _______ _______ _____ _____    ______ ____
ROOT
ATOM      1  C   UNL     1       3.985   5.760  18.814  0.00  0.00    +0.000 C 
ENDROOT
BRANCH   1   7
ATOM      2  C   UNL     1       6.500   4.836  17.114  0.00  0.00    +0.000 C 
ATOM      3  C   UNL     1       7.265   4.911  15.779  0.00  0.00    +0.000 C 
ATOM      4  C   UNL     1       6.368   4.167  14.807  0.00  0.00    +0.000 C 
ATOM      5  C   UNL     1       4.964   4.389  15.348  0.00  0.00    +0.000 C 
ATOM      6  N   UNL     1       5.114   5.018  16.660  0.00  0.00    +0.000 N 
ATOM      7  C   UNL     1       3.953   5.086  17.425  0.00  0.00    +0.000 C 
ATOM      8  O   UNL     1       2.890   4.644  16.962  0.00  0.00    +0.000 OA
BRANCH   2  10
ATOM      9  N   UNL     1       7.458   5.273  19.367  0.00  0.00    +0.000 N 
ATOM     10  C   UNL     1       7.127   5.781  18.149  0.00  0.00    +0.000 C 
ATOM     11  O   UNL     1       7.431   6.940  17.881  0.00  0.00    +0.000 OA
ATOM     12  H   UNL     1       7.830   5.896  20.075  0.00  0.00    +0.000 HD
ATOM     13  H   UNL     1       7.303   4.314  19.643  0.00  0.00    +0.000 HD
ENDBRANCH   2  10
ENDBRANCH   1   7
BRANCH   1  14
ATOM     14  N   UNL     1       3.029   6.889  18.822  0.00  0.00    +0.000 N 
ATOM     15  C   UNL     1       3.032   7.923  17.914  0.00  0.00    +0.000 C 
ATOM     16  O   UNL     1       3.759   7.987  16.928  0.00  0.00    +0.000 OA
ATOM     17  H   UNL     1       2.446   7.001  19.641  0.00  0.00    +0.000 HD
BRANCH  15  18
ATOM     18  C   UNL     1       2.145   9.115  18.284  0.00  0.00    +0.000 C 
ATOM     19  C   UNL     1       1.482   8.855  19.633  0.00  0.00    +0.000 C 
ATOM     20  C   UNL     1       0.205   9.681  19.580  0.00  0.00    +0.000 C 
ATOM     21  C   UNL     1      -0.108   9.711  18.108  0.00  0.00    +0.000 C 
ATOM     22  O   UNL     1      -1.171  10.011  17.595  0.00  0.00    +0.000 OA
ATOM     23  N   UNL     1       1.020   9.338  17.412  0.00  0.00    +0.000 N 
ATOM     24  H   UNL     1       1.078   9.479  16.409  0.00  0.00    +0.000 HD
ENDBRANCH  15  18
ENDBRANCH   1  14
BRANCH   1  25
ATOM     25  C   UNL     1       3.705   4.785  19.974  0.00  0.00    +0.000 C 
BRANCH  25  26
ATOM     26  C   UNL     1       2.347   4.917  20.701  0.00  0.00    +0.000 C 
ATOM     27  C   UNL     1       1.127   4.617  19.827  0.00  0.00    +0.000 C 
ATOM     28  C   UNL     1       1.099   3.162  19.369  0.00  0.00    +0.000 C 
ATOM     29  C   UNL     1       1.139   2.201  20.556  0.00  0.00    +0.000 C 
ATOM     30  C   UNL     1       2.267   2.502  21.542  0.00  0.00    +0.000 C 
ATOM     31  C   UNL     1       2.331   3.982  21.927  0.00  0.00    +0.000 C 
ENDBRANCH  25  26
ENDBRANCH   1  25
TORSDOF 6
ENDMDL
MODEL 8
REMARK VINA RESULT:      -6.7      3.131      7.039
REMARK  Name = 
REMARK  6 active torsions:
REMARK  status: ('A' for Active; 'I' for Inactive)
REMARK    1  A    between atoms: C_2  and  C_4
REMARK    2  A    between atoms: C_9  and  C_11
REMARK    3  A    between atoms: C_11  and  C_12
REMARK    4  A    between atoms: C_11  and  N_19
REMARK    5  A    between atoms: C_12  and  C_13
REMARK    6  A    between atoms: C_20  and  C_22
REMARK                            x       y       z     vdW  Elec       q    Type
REMARK                         _______ _______ _______ _____ _____    ______ ____
ROOT
ATOM      1  C   UNL     1       4.759   4.516  17.747  0.00  0.00    +0.000 C 
ENDROOT
BRANCH   1   7
ATOM      2  C   UNL     1       3.066   3.110  20.032  0.00  0.00    +0.000 C 
ATOM      3  C   UNL     1       1.755   2.409  20.434  0.00  0.00    +0.000 C 
ATOM      4  C   UNL     1       0.724   3.523  20.393  0.00  0.00    +0.000 C 
ATOM      5  C   UNL     1       1.246   4.477  19.329  0.00  0.00    +0.000 C 
ATOM      6  N   UNL     1       2.593   4.024  18.984  0.00  0.00    +0.000 N 
ATOM      7  C   UNL     1       3.335   4.904  18.201  0.00  0.00    +0.000 C 
ATOM      8  O   UNL     1       2.826   5.976  17.837  0.00  0.00    +0.000 OA
BRANCH   2  10
ATOM      9  N   UNL     1       4.047   1.299  18.637  0.00  0.00    +0.000 N 
ATOM     10  C   UNL     1       4.165   2.076  19.748  0.00  0.00    +0.000 C 
ATOM     11  O   UNL     1       5.186   1.998  20.426  0.00  0.00    +0.000 OA
ATOM     12  H   UNL     1       4.740   0.581  18.462  0.00  0.00    +0.000 HD
ATOM     13  H   UNL     1       3.271   1.346  17.992  0.00  0.00    +0.000 HD
ENDBRANCH   2  10
ENDBRANCH   1   7
BRANCH   1  14
ATOM     14  N   UNL     1       4.902   4.817  16.306  0.00  0.00    +0.000 N 
ATOM     15  C   UNL     1       5.385   3.935  15.366  0.00  0.00    +0.000 C 
ATOM     16  O   UNL     1       5.661   2.759  15.587  0.00  0.00    +0.000 OA
ATOM     17  H   UNL     1       4.802   5.782  16.017  0.00  0.00    +0.000 HD
BRANCH  15  18
ATOM     18  C   UNL     1       5.713   4.550  14.004  0.00  0.00    +0.000 C 
ATOM     19  C   UNL     1       6.123   3.446  13.034  0.00  0.00    +0.000 C 
ATOM     20  C   UNL     1       7.022   4.154  12.030  0.00  0.00    +0.000 C 
ATOM     21  C   UNL     1       7.610   5.274  12.846  0.00  0.00    +0.000 C 
ATOM     22  O   UNL     1       8.589   5.942  12.568  0.00  0.00    +0.000 OA
ATOM     23  N   UNL     1       6.851   5.433  13.985  0.00  0.00    +0.000 N 
ATOM     24  H   UNL     1       6.962   6.254  14.569  0.00  0.00    +0.000 HD
ENDBRANCH  15  18
ENDBRANCH   1  14
BRANCH   1  25
ATOM     25  C   UNL     1       5.870   5.197  18.570  0.00  0.00    +0.000 C 
BRANCH  25  26
ATOM     26  C   UNL     1       7.295   5.207  17.969  0.00  0.00    +0.000 C 
ATOM     27  C   UNL     1       7.520   6.268  16.887  0.00  0.00    +0.000 C 
ATOM     28  C   UNL     1       7.403   7.683  17.444  0.00  0.00    +0.000 C 
ATOM     29  C   UNL     1       8.370   7.908  18.606  0.00  0.00    +0.000 C 
ATOM     30  C   UNL     1       8.288   6.827  19.682  0.00  0.00    +0.000 C 
ATOM     31  C   UNL     1       8.325   5.413  19.098  0.00  0.00    +0.000 C 
ENDBRANCH  25  26
ENDBRANCH   1  25
TORSDOF 6
ENDMDL
MODEL 9
REMARK VINA RESULT:      -6.7      3.457      7.295
REMARK  Name = 
REMARK  6 active torsions:
REMARK  status: ('A' for Active; 'I' for Inactive)
REMARK    1  A    between atoms: C_2  and  C_4
REMARK    2  A    between atoms: C_9  and  C_11
REMARK    3  A    between atoms: C_11  and  C_12
REMARK    4  A    between atoms: C_11  and  N_19
REMARK    5  A    between atoms: C_12  and  C_13
REMARK    6  A    between atoms: C_20  and  C_22
REMARK                            x       y       z     vdW  Elec       q    Type
REMARK                         _______ _______ _______ _____ _____    ______ ____
ROOT
ATOM      1  C   UNL     1       5.190   3.547  16.862  0.00  0.00    +0.000 C 
ENDROOT
BRANCH   1   7
ATOM      2  C   UNL     1       3.279   2.903  19.312  0.00  0.00    +0.000 C 
ATOM      3  C   UNL     1       1.894   2.428  19.790  0.00  0.00    +0.000 C 
ATOM      4  C   UNL     1       0.968   3.565  19.400  0.00  0.00    +0.000 C 
ATOM      5  C   UNL     1       1.618   4.172  18.167  0.00  0.00    +0.000 C 
ATOM      6  N   UNL     1       2.935   3.549  18.037  0.00  0.00    +0.000 N 
ATOM      7  C   UNL     1       3.786   4.141  17.108  0.00  0.00    +0.000 C 
ATOM      8  O   UNL     1       3.389   5.117  16.452  0.00  0.00    +0.000 OA
BRANCH   2  10
ATOM      9  N   UNL     1       4.172   0.739  18.474  0.00  0.00    +0.000 N 
ATOM     10  C   UNL     1       4.294   1.754  19.372  0.00  0.00    +0.000 C 
ATOM     11  O   UNL     1       5.262   1.771  20.127  0.00  0.00    +0.000 OA
ATOM     12  H   UNL     1       4.807  -0.049  18.531  0.00  0.00    +0.000 HD
ATOM     13  H   UNL     1       3.444   0.683  17.776  0.00  0.00    +0.000 HD
ENDBRANCH   2  10
ENDBRANCH   1   7
BRANCH   1  14
ATOM     14  N   UNL     1       5.385   3.362  15.408  0.00  0.00    +0.000 N 
ATOM     15  C   UNL     1       6.357   3.988  14.663  0.00  0.00    +0.000 C 
ATOM     16  O   UNL     1       7.246   4.697  15.127  0.00  0.00    +0.000 OA
ATOM     17  H   UNL     1       4.656   2.881  14.896  0.00  0.00    +0.000 HD
BRANCH  15  18
ATOM     18  C   UNL     1       6.191   3.872  13.146  0.00  0.00    +0.000 C 
ATOM     19  C   UNL     1       4.706   3.789  12.803  0.00  0.00    +0.000 C 
ATOM     20  C   UNL     1       4.675   3.035  11.481  0.00  0.00    +0.000 C 
ATOM     21  C   UNL     1       5.908   2.175  11.564  0.00  0.00    +0.000 C 
ATOM     22  O   UNL     1       6.165   1.202  10.878  0.00  0.00    +0.000 OA
ATOM     23  N   UNL     1       6.723   2.669  12.559  0.00  0.00    +0.000 N 
ATOM     24  H   UNL     1       7.682   2.353  12.645  0.00  0.00    +0.000 HD
ENDBRANCH  15  18
ENDBRANCH   1  14
BRANCH   1  25
ATOM     25  C   UNL     1       6.326   4.389  17.473  0.00  0.00    +0.000 C 
BRANCH  25  26
ATOM     26  C   UNL     1       5.928   5.515  18.455  0.00  0.00    +0.000 C 
ATOM     27  C   UNL     1       6.817   5.617  19.698  0.00  0.00    +0.000 C 
ATOM     28  C   UNL     1       8.250   6.001  19.344  0.00  0.00    +0.000 C 
ATOM     29  C   UNL     1       8.299   7.310  18.557  0.00  0.00    +0.000 C 
ATOM     30  C   UNL     1       7.353   7.333  17.357  0.00  0.00    +0.000 C 
ATOM     31  C   UNL     1       5.940   6.868  17.715  0.00  0.00    +0.000 C 
ENDBRANCH  25  26
ENDBRANCH   1  25
TORSDOF 6
ENDMDL
