MODEL 1
REMARK VINA RESULT:      -8.1      0.000      0.000
REMARK  Name = 
REMARK  8 active torsions:
REMARK  status: ('A' for Active; 'I' for Inactive)
REMARK    1  A    between atoms: C_2  and  O_3
REMARK    2  A    between atoms: C_2  and  C_4
REMARK    3  A    between atoms: C_4  and  O_5
REMARK    4  A    between atoms: C_4  and  C_22
REMARK    5  A    between atoms: O_5  and  C_6
REMARK    6  A    between atoms: N_8  and  C_9
REMARK    7  A    between atoms: C_9  and  C_10
REMARK    8  A    between atoms: C_22  and  O_24
REMARK                            x       y       z     vdW  Elec       q    Type
REMARK                         _______ _______ _______ _____ _____    ______ ____
ROOT
ATOM      1  C   UNL     1       4.283   4.587  18.450  0.00  0.00    +0.000 A 
ATOM      2  N   UNL     1       4.183   5.666  19.232  0.00  0.00    +0.000 NA
ATOM      3  N   UNL     1       2.901   5.573  19.702  0.00  0.00    +0.000 N 
ATOM      4  C   UNL     1       2.286   4.378  19.382  0.00  0.00    +0.000 A 
ATOM      5  C   UNL     1       1.025   3.844  19.694  0.00  0.00    +0.000 A 
ATOM      6  C   UNL     1       0.726   2.561  19.227  0.00  0.00    +0.000 A 
ATOM      7  C   UNL     1       1.661   1.827  18.502  0.00  0.00    +0.000 A 
ATOM      8  C   UNL     1       2.907   2.377  18.179  0.00  0.00    +0.000 A 
ATOM      9  C   UNL     1       3.210   3.683  18.607  0.00  0.00    +0.000 A 
ENDROOT
BRANCH   1  10
ATOM     10  O   UNL     1       5.398   4.378  17.715  0.00  0.00    +0.000 OA
BRANCH  10  11
ATOM     11  C   UNL     1       6.332   5.459  17.687  0.00  0.00    +0.000 C 
BRANCH  11  13
ATOM     12  O   UNL     1       7.558   5.766  15.633  0.00  0.00    +0.000 OA
ATOM     13  C   UNL     1       6.505   5.923  16.245  0.00  0.00    +0.000 C 
BRANCH  13  14
ATOM     14  O   UNL     1       5.461   6.539  15.643  0.00  0.00    +0.000 OA
ATOM     15  H   UNL     1       5.472   6.522  14.654  0.00  0.00    +0.000 HD
ENDBRANCH  13  14
ENDBRANCH  11  13
BRANCH  11  16
ATOM     16  C   UNL     1       7.603   4.979  18.352  0.00  0.00    +0.000 C 
ATOM     17  O   UNL     1       8.021   5.406  19.419  0.00  0.00    +0.000 OA
BRANCH  16  18
ATOM     18  O   UNL     1       8.264   4.020  17.653  0.00  0.00    +0.000 OA
ATOM     19  H   UNL     1       7.649   3.344  17.282  0.00  0.00    +0.000 HD
ENDBRANCH  16  18
ENDBRANCH  11  16
ENDBRANCH  10  11
ENDBRANCH   1  10
BRANCH   3  20
ATOM     20  C   UNL     1       2.363   6.603  20.592  0.00  0.00    +0.000 C 
BRANCH  20  21
ATOM     21  C   UNL     1       1.882   7.822  19.842  0.00  0.00    +0.000 A 
ATOM     22  C   UNL     1       1.112   8.809  20.480  0.00  0.00    +0.000 A 
ATOM     23  C   UNL     1       0.623   9.906  19.767  0.00  0.00    +0.000 A 
ATOM     24  C   UNL     1       0.913  10.041  18.413  0.00  0.00    +0.000 A 
ATOM     25  C   UNL     1       1.705   9.090  17.775  0.00  0.00    +0.000 A 
ATOM     26  C   UNL     1       2.184   7.984  18.482  0.00  0.00    +0.000 A 
ENDBRANCH  20  21
ENDBRANCH   3  20
TORSDOF 8
ENDMDL
MODEL 2
REMARK VINA RESULT:      -8.0      2.817      5.079
REMARK  Name = 
REMARK  8 active torsions:
REMARK  status: ('A' for Active; 'I' for Inactive)
REMARK    1  A    between atoms: C_2  and  O_3
REMARK    2  A    between atoms: C_2  and  C_4
REMARK    3  A    between atoms: C_4  and  O_5
REMARK    4  A    between atoms: C_4  and  C_22
REMARK    5  A    between atoms: O_5  and  C_6
REMARK    6  A    between atoms: N_8  and  C_9
REMARK    7  A    between atoms: C_9  and  C_10
REMARK    8  A    between atoms: C_22  and  O_24
REMARK                            x       y       z     vdW  Elec       q    Type
REMARK                         _______ _______ _______ _____ _____    ______ ____
ROOT
ATOM      1  C   UNL     1       5.659   4.173  15.918  0.00  0.00    +0.000 A 
ATOM      2  N   UNL     1       4.385   4.577  15.938  0.00  0.00    +0.000 NA
ATOM      3  N   UNL     1       4.238   5.029  17.221  0.00  0.00    +0.000 N 
ATOM      4  C   UNL     1       5.428   5.086  17.921  0.00  0.00    +0.000 A 
ATOM      5  C   UNL     1       5.751   5.525  19.215  0.00  0.00    +0.000 A 
ATOM      6  C   UNL     1       7.092   5.476  19.606  0.00  0.00    +0.000 A 
ATOM      7  C   UNL     1       8.078   5.034  18.728  0.00  0.00    +0.000 A 
ATOM      8  C   UNL     1       7.743   4.579  17.447  0.00  0.00    +0.000 A 
ATOM      9  C   UNL     1       6.393   4.583  17.051  0.00  0.00    +0.000 A 
ENDROOT
BRANCH   1  10
ATOM     10  O   UNL     1       6.162   3.560  14.823  0.00  0.00    +0.000 OA
BRANCH  10  11
ATOM     11  C   UNL     1       6.020   4.274  13.594  0.00  0.00    +0.000 C 
BRANCH  11  13
ATOM     12  O   UNL     1       4.487   3.376  11.963  0.00  0.00    +0.000 OA
ATOM     13  C   UNL     1       5.587   3.299  12.505  0.00  0.00    +0.000 C 
BRANCH  13  14
ATOM     14  O   UNL     1       6.448   2.317  12.149  0.00  0.00    +0.000 OA
ATOM     15  H   UNL     1       7.112   2.565  11.460  0.00  0.00    +0.000 HD
ENDBRANCH  13  14
ENDBRANCH  11  13
BRANCH  11  16
ATOM     16  C   UNL     1       7.331   4.980  13.323  0.00  0.00    +0.000 C 
ATOM     17  O   UNL     1       7.984   5.564  14.177  0.00  0.00    +0.000 OA
BRANCH  16  18
ATOM     18  O   UNL     1       7.733   4.920  12.027  0.00  0.00    +0.000 OA
ATOM     19  H   UNL     1       8.668   4.620  11.944  0.00  0.00    +0.000 HD
ENDBRANCH  16  18
ENDBRANCH  11  16
ENDBRANCH  10  11
ENDBRANCH   1  10
BRANCH   3  20
ATOM     20  C   UNL     1       2.948   5.543  17.682  0.00  0.00    +0.000 C 
BRANCH  20  21
ATOM     21  C   UNL     1       2.242   4.585  18.611  0.00  0.00    +0.000 A 
ATOM     22  C   UNL     1       1.672   3.395  18.129  0.00  0.00    +0.000 A 
ATOM     23  C   UNL     1       0.972   2.539  18.984  0.00  0.00    +0.000 A 
ATOM     24  C   UNL     1       0.850   2.852  20.334  0.00  0.00    +0.000 A 
ATOM     25  C   UNL     1       1.440   4.010  20.834  0.00  0.00    +0.000 A 
ATOM     26  C   UNL     1       2.129   4.874  19.978  0.00  0.00    +0.000 A 
ENDBRANCH  20  21
ENDBRANCH   3  20
TORSDOF 8
ENDMDL
MODEL 3
REMARK VINA RESULT:      -8.0      0.979      1.246
REMARK  Name = 
REMARK  8 active torsions:
REMARK  status: ('A' for Active; 'I' for Inactive)
REMARK    1  A    between atoms: C_2  and  O_3
REMARK    2  A    between atoms: C_2  and  C_4
REMARK    3  A    between atoms: C_4  and  O_5
REMARK    4  A    between atoms: C_4  and  C_22
REMARK    5  A    between atoms: O_5  and  C_6
REMARK    6  A    between atoms: N_8  and  C_9
REMARK    7  A    between atoms: C_9  and  C_10
REMARK    8  A    between atoms: C_22  and  O_24
REMARK                            x       y       z     vdW  Elec       q    Type
REMARK                         _______ _______ _______ _____ _____    ______ ____
ROOT
ATOM      1  C   UNL     1       4.771   4.796  18.676  0.00  0.00    +0.000 A 
ATOM      2  N   UNL     1       4.411   5.773  19.514  0.00  0.00    +0.000 NA
ATOM      3  N   UNL     1       3.066   5.559  19.656  0.00  0.00    +0.000 N 
ATOM      4  C   UNL     1       2.636   4.377  19.085  0.00  0.00    +0.000 A 
ATOM      5  C   UNL     1       1.383   3.744  19.036  0.00  0.00    +0.000 A 
ATOM      6  C   UNL     1       1.301   2.508  18.389  0.00  0.00    +0.000 A 
ATOM      7  C   UNL     1       2.432   1.912  17.837  0.00  0.00    +0.000 A 
ATOM      8  C   UNL     1       3.672   2.560  17.873  0.00  0.00    +0.000 A 
ATOM      9  C   UNL     1       3.765   3.824  18.486  0.00  0.00    +0.000 A 
ENDROOT
BRANCH   1  10
ATOM     10  O   UNL     1       6.038   4.732  18.209  0.00  0.00    +0.000 OA
BRANCH  10  11
ATOM     11  C   UNL     1       6.368   5.670  17.184  0.00  0.00    +0.000 C 
BRANCH  11  13
ATOM     12  O   UNL     1       6.300   3.802  15.660  0.00  0.00    +0.000 OA
ATOM     13  C   UNL     1       6.766   4.907  15.926  0.00  0.00    +0.000 C 
BRANCH  13  14
ATOM     14  O   UNL     1       7.674   5.472  15.097  0.00  0.00    +0.000 OA
ATOM     15  H   UNL     1       7.932   4.926  14.314  0.00  0.00    +0.000 HD
ENDBRANCH  13  14
ENDBRANCH  11  13
BRANCH  11  16
ATOM     16  C   UNL     1       7.442   6.585  17.733  0.00  0.00    +0.000 C 
ATOM     17  O   UNL     1       8.040   6.387  18.781  0.00  0.00    +0.000 OA
BRANCH  16  18
ATOM     18  O   UNL     1       7.691   7.671  16.956  0.00  0.00    +0.000 OA
ATOM     19  H   UNL     1       8.562   7.604  16.497  0.00  0.00    +0.000 HD
ENDBRANCH  16  18
ENDBRANCH  11  16
ENDBRANCH  10  11
ENDBRANCH   1  10
BRANCH   3  20
ATOM     20  C   UNL     1       2.260   6.451  20.490  0.00  0.00    +0.000 C 
BRANCH  20  21
ATOM     21  C   UNL     1       1.916   7.743  19.790  0.00  0.00    +0.000 A 
ATOM     22  C   UNL     1       1.205   8.759  20.450  0.00  0.00    +0.000 A 
ATOM     23  C   UNL     1       0.840   9.929  19.780  0.00  0.00    +0.000 A 
ATOM     24  C   UNL     1       1.200  10.108  18.447  0.00  0.00    +0.000 A 
ATOM     25  C   UNL     1       1.935   9.126  17.789  0.00  0.00    +0.000 A 
ATOM     26  C   UNL     1       2.289   7.949  18.454  0.00  0.00    +0.000 A 
ENDBRANCH  20  21
ENDBRANCH   3  20
TORSDOF 8
ENDMDL
MODEL 4
REMARK VINA RESULT:      -7.9      0.769      1.405
REMARK  Name = 
REMARK  8 active torsions:
REMARK  status: ('A' for Active; 'I' for Inactive)
REMARK    1  A    between atoms: C_2  and  O_3
REMARK    2  A    between atoms: C_2  and  C_4
REMARK    3  A    between atoms: C_4  and  O_5
REMARK    4  A    between atoms: C_4  and  C_22
REMARK    5  A    between atoms: O_5  and  C_6
REMARK    6  A    between atoms: N_8  and  C_9
REMARK    7  A    between atoms: C_9  and  C_10
REMARK    8  A    between atoms: C_22  and  O_24
REMARK                            x       y       z     vdW  Elec       q    Type
REMARK                         _______ _______ _______ _____ _____    ______ ____
ROOT
ATOM      1  C   UNL     1       4.678   4.542  19.004  0.00  0.00    +0.000 A 
ATOM      2  N   UNL     1       4.306   5.580  19.760  0.00  0.00    +0.000 NA
ATOM      3  N   UNL     1       2.948   5.422  19.831  0.00  0.00    +0.000 N 
ATOM      4  C   UNL     1       2.509   4.222  19.305  0.00  0.00    +0.000 A 
ATOM      5  C   UNL     1       1.238   3.631  19.216  0.00  0.00    +0.000 A 
ATOM      6  C   UNL     1       1.148   2.361  18.639  0.00  0.00    +0.000 A 
ATOM      7  C   UNL     1       2.286   1.694  18.194  0.00  0.00    +0.000 A 
ATOM      8  C   UNL     1       3.545   2.301  18.268  0.00  0.00    +0.000 A 
ATOM      9  C   UNL     1       3.650   3.596  18.810  0.00  0.00    +0.000 A 
ENDROOT
BRANCH   1  10
ATOM     10  O   UNL     1       5.967   4.407  18.621  0.00  0.00    +0.000 OA
BRANCH  10  11
ATOM     11  C   UNL     1       6.558   5.559  18.018  0.00  0.00    +0.000 C 
BRANCH  11  13
ATOM     12  O   UNL     1       7.996   4.364  16.494  0.00  0.00    +0.000 OA
ATOM     13  C   UNL     1       7.087   5.177  16.640  0.00  0.00    +0.000 C 
BRANCH  13  14
ATOM     14  O   UNL     1       6.537   5.775  15.557  0.00  0.00    +0.000 OA
ATOM     15  H   UNL     1       5.894   6.500  15.754  0.00  0.00    +0.000 HD
ENDBRANCH  13  14
ENDBRANCH  11  13
BRANCH  11  16
ATOM     16  C   UNL     1       7.607   6.086  18.972  0.00  0.00    +0.000 C 
ATOM     17  O   UNL     1       8.356   7.019  18.719  0.00  0.00    +0.000 OA
BRANCH  16  18
ATOM     18  O   UNL     1       7.659   5.422  20.156  0.00  0.00    +0.000 OA
ATOM     19  H   UNL     1       7.542   4.450  20.040  0.00  0.00    +0.000 HD
ENDBRANCH  16  18
ENDBRANCH  11  16
ENDBRANCH  10  11
ENDBRANCH   1  10
BRANCH   3  20
ATOM     20  C   UNL     1       2.127   6.390  20.560  0.00  0.00    +0.000 C 
BRANCH  20  21
ATOM     21  C   UNL     1       1.855   7.638  19.755  0.00  0.00    +0.000 A 
ATOM     22  C   UNL     1       2.291   7.751  18.425  0.00  0.00    +0.000 A 
ATOM     23  C   UNL     1       2.085   8.930  17.702  0.00  0.00    +0.000 A 
ATOM     24  C   UNL     1       1.424  10.002  18.294  0.00  0.00    +0.000 A 
ATOM     25  C   UNL     1       0.954   9.891  19.601  0.00  0.00    +0.000 A 
ATOM     26  C   UNL     1       1.171   8.719  20.329  0.00  0.00    +0.000 A 
ENDBRANCH  20  21
ENDBRANCH   3  20
TORSDOF 8
ENDMDL
MODEL 5
REMARK VINA RESULT:      -7.9      0.856      1.023
REMARK  Name = 
REMARK  8 active torsions:
REMARK  status: ('A' for Active; 'I' for Inactive)
REMARK    1  A    between atoms: C_2  and  O_3
REMARK    2  A    between atoms: C_2  and  C_4
REMARK    3  A    between atoms: C_4  and  O_5
REMARK    4  A    between atoms: C_4  and  C_22
REMARK    5  A    between atoms: O_5  and  C_6
REMARK    6  A    between atoms: N_8  and  C_9
REMARK    7  A    between atoms: C_9  and  C_10
REMARK    8  A    between atoms: C_22  and  O_24
REMARK                            x       y       z     vdW  Elec       q    Type
REMARK                         _______ _______ _______ _____ _____    ______ ____
ROOT
ATOM      1  C   UNL     1       4.693   4.486  18.972  0.00  0.00    +0.000 A 
ATOM      2  N   UNL     1       4.351   5.521  19.745  0.00  0.00    +0.000 NA
ATOM      3  N   UNL     1       2.991   5.387  19.833  0.00  0.00    +0.000 N 
ATOM      4  C   UNL     1       2.522   4.203  19.297  0.00  0.00    +0.000 A 
ATOM      5  C   UNL     1       1.239   3.637  19.218  0.00  0.00    +0.000 A 
ATOM      6  C   UNL     1       1.117   2.377  18.625  0.00  0.00    +0.000 A 
ATOM      7  C   UNL     1       2.236   1.695  18.157  0.00  0.00    +0.000 A 
ATOM      8  C   UNL     1       3.508   2.277  18.222  0.00  0.00    +0.000 A 
ATOM      9  C   UNL     1       3.644   3.562  18.779  0.00  0.00    +0.000 A 
ENDROOT
BRANCH   1  10
ATOM     10  O   UNL     1       5.974   4.331  18.569  0.00  0.00    +0.000 OA
BRANCH  10  11
ATOM     11  C   UNL     1       6.517   5.407  17.803  0.00  0.00    +0.000 C 
BRANCH  11  13
ATOM     12  O   UNL     1       7.600   5.537  15.652  0.00  0.00    +0.000 OA
ATOM     13  C   UNL     1       6.897   4.887  16.422  0.00  0.00    +0.000 C 
BRANCH  13  14
ATOM     14  O   UNL     1       6.423   3.677  16.043  0.00  0.00    +0.000 OA
ATOM     15  H   UNL     1       7.065   2.928  16.118  0.00  0.00    +0.000 HD
ENDBRANCH  13  14
ENDBRANCH  11  13
BRANCH  11  16
ATOM     16  C   UNL     1       7.666   5.995  18.593  0.00  0.00    +0.000 C 
ATOM     17  O   UNL     1       8.096   7.129  18.436  0.00  0.00    +0.000 OA
BRANCH  16  18
ATOM     18  O   UNL     1       8.200   5.143  19.507  0.00  0.00    +0.000 OA
ATOM     19  H   UNL     1       9.044   4.744  19.190  0.00  0.00    +0.000 HD
ENDBRANCH  16  18
ENDBRANCH  11  16
ENDBRANCH  10  11
ENDBRANCH   1  10
BRANCH   3  20
ATOM     20  C   UNL     1       2.199   6.361  20.585  0.00  0.00    +0.000 C 
BRANCH  20  21
ATOM     21  C   UNL     1       1.930   7.620  19.796  0.00  0.00    +0.000 A 
ATOM     22  C   UNL     1       1.205   8.685  20.356  0.00  0.00    +0.000 A 
ATOM     23  C   UNL     1       0.911   9.824  19.603  0.00  0.00    +0.000 A 
ATOM     24  C   UNL     1       1.354   9.922  18.287  0.00  0.00    +0.000 A 
ATOM     25  C   UNL     1       2.104   8.889  17.730  0.00  0.00    +0.000 A 
ATOM     26  C   UNL     1       2.387   7.743  18.477  0.00  0.00    +0.000 A 
ENDBRANCH  20  21
ENDBRANCH   3  20
TORSDOF 8
ENDMDL
MODEL 6
REMARK VINA RESULT:      -7.9      0.206      1.194
REMARK  Name = 
REMARK  8 active torsions:
REMARK  status: ('A' for Active; 'I' for Inactive)
REMARK    1  A    between atoms: C_2  and  O_3
REMARK    2  A    between atoms: C_2  and  C_4
REMARK    3  A    between atoms: C_4  and  O_5
REMARK    4  A    between atoms: C_4  and  C_22
REMARK    5  A    between atoms: O_5  and  C_6
REMARK    6  A    between atoms: N_8  and  C_9
REMARK    7  A    between atoms: C_9  and  C_10
REMARK    8  A    between atoms: C_22  and  O_24
REMARK                            x       y       z     vdW  Elec       q    Type
REMARK                         _______ _______ _______ _____ _____    ______ ____
ROOT
ATOM      1  C   UNL     1       4.254   4.610  18.431  0.00  0.00    +0.000 A 
ATOM      2  N   UNL     1       4.141   5.688  19.213  0.00  0.00    +0.000 NA
ATOM      3  N   UNL     1       2.861   5.579  19.683  0.00  0.00    +0.000 N 
ATOM      4  C   UNL     1       2.261   4.376  19.364  0.00  0.00    +0.000 A 
ATOM      5  C   UNL     1       1.007   3.826  19.676  0.00  0.00    +0.000 A 
ATOM      6  C   UNL     1       0.724   2.539  19.209  0.00  0.00    +0.000 A 
ATOM      7  C   UNL     1       1.669   1.817  18.484  0.00  0.00    +0.000 A 
ATOM      8  C   UNL     1       2.908   2.383  18.161  0.00  0.00    +0.000 A 
ATOM      9  C   UNL     1       3.194   3.693  18.588  0.00  0.00    +0.000 A 
ENDROOT
BRANCH   1  10
ATOM     10  O   UNL     1       5.372   4.416  17.697  0.00  0.00    +0.000 OA
BRANCH  10  11
ATOM     11  C   UNL     1       6.220   5.556  17.546  0.00  0.00    +0.000 C 
BRANCH  11  13
ATOM     12  O   UNL     1       5.452   6.428  15.432  0.00  0.00    +0.000 OA
ATOM     13  C   UNL     1       6.352   5.879  16.062  0.00  0.00    +0.000 C 
BRANCH  13  14
ATOM     14  O   UNL     1       7.498   5.527  15.432  0.00  0.00    +0.000 OA
ATOM     15  H   UNL     1       7.382   5.093  14.551  0.00  0.00    +0.000 HD
ENDBRANCH  13  14
ENDBRANCH  11  13
BRANCH  11  16
ATOM     16  C   UNL     1       7.527   5.247  18.243  0.00  0.00    +0.000 C 
ATOM     17  O   UNL     1       8.059   5.986  19.060  0.00  0.00    +0.000 OA
BRANCH  16  18
ATOM     18  O   UNL     1       8.081   4.061  17.878  0.00  0.00    +0.000 OA
ATOM     19  H   UNL     1       8.988   4.176  17.508  0.00  0.00    +0.000 HD
ENDBRANCH  16  18
ENDBRANCH  11  16
ENDBRANCH  10  11
ENDBRANCH   1  10
BRANCH   3  20
ATOM     20  C   UNL     1       2.310   6.602  20.574  0.00  0.00    +0.000 C 
BRANCH  20  21
ATOM     21  C   UNL     1       1.861   7.836  19.828  0.00  0.00    +0.000 A 
ATOM     22  C   UNL     1       2.197   8.029  18.477  0.00  0.00    +0.000 A 
ATOM     23  C   UNL     1       1.827   9.198  17.808  0.00  0.00    +0.000 A 
ATOM     24  C   UNL     1       1.099  10.180  18.473  0.00  0.00    +0.000 A 
ATOM     25  C   UNL     1       0.728   9.987  19.802  0.00  0.00    +0.000 A 
ATOM     26  C   UNL     1       1.109   8.825  20.477  0.00  0.00    +0.000 A 
ENDBRANCH  20  21
ENDBRANCH   3  20
TORSDOF 8
ENDMDL
MODEL 7
REMARK VINA RESULT:      -7.7      2.782      5.031
REMARK  Name = 
REMARK  8 active torsions:
REMARK  status: ('A' for Active; 'I' for Inactive)
REMARK    1  A    between atoms: C_2  and  O_3
REMARK    2  A    between atoms: C_2  and  C_4
REMARK    3  A    between atoms: C_4  and  O_5
REMARK    4  A    between atoms: C_4  and  C_22
REMARK    5  A    between atoms: O_5  and  C_6
REMARK    6  A    between atoms: N_8  and  C_9
REMARK    7  A    between atoms: C_9  and  C_10
REMARK    8  A    between atoms: C_22  and  O_24
REMARK                            x       y       z     vdW  Elec       q    Type
REMARK                         _______ _______ _______ _____ _____    ______ ____
ROOT
ATOM      1  C   UNL     1       5.669   4.195  15.917  0.00  0.00    +0.000 A 
ATOM      2  N   UNL     1       4.399   4.613  15.925  0.00  0.00    +0.000 NA
ATOM      3  N   UNL     1       4.242   5.059  17.209  0.00  0.00    +0.000 N 
ATOM      4  C   UNL     1       5.424   5.100  17.923  0.00  0.00    +0.000 A 
ATOM      5  C   UNL     1       5.736   5.528  19.223  0.00  0.00    +0.000 A 
ATOM      6  C   UNL     1       7.072   5.463  19.629  0.00  0.00    +0.000 A 
ATOM      7  C   UNL     1       8.063   5.015  18.760  0.00  0.00    +0.000 A 
ATOM      8  C   UNL     1       7.739   4.571  17.474  0.00  0.00    +0.000 A 
ATOM      9  C   UNL     1       6.393   4.592  17.061  0.00  0.00    +0.000 A 
ENDROOT
BRANCH   1  10
ATOM     10  O   UNL     1       6.178   3.584  14.825  0.00  0.00    +0.000 OA
BRANCH  10  11
ATOM     11  C   UNL     1       6.004   4.278  13.589  0.00  0.00    +0.000 C 
BRANCH  11  13
ATOM     12  O   UNL     1       4.392   3.390  12.030  0.00  0.00    +0.000 OA
ATOM     13  C   UNL     1       5.507   3.293  12.536  0.00  0.00    +0.000 C 
BRANCH  13  14
ATOM     14  O   UNL     1       6.328   2.280  12.173  0.00  0.00    +0.000 OA
ATOM     15  H   UNL     1       7.072   2.531  11.573  0.00  0.00    +0.000 HD
ENDBRANCH  13  14
ENDBRANCH  11  13
BRANCH  11  16
ATOM     16  C   UNL     1       7.319   4.948  13.254  0.00  0.00    +0.000 C 
ATOM     17  O   UNL     1       7.835   4.928  12.145  0.00  0.00    +0.000 OA
BRANCH  16  18
ATOM     18  O   UNL     1       7.898   5.584  14.306  0.00  0.00    +0.000 OA
ATOM     19  H   UNL     1       7.316   6.289  14.676  0.00  0.00    +0.000 HD
ENDBRANCH  16  18
ENDBRANCH  11  16
ENDBRANCH  10  11
ENDBRANCH   1  10
BRANCH   3  20
ATOM     20  C   UNL     1       2.951   5.584  17.657  0.00  0.00    +0.000 C 
BRANCH  20  21
ATOM     21  C   UNL     1       2.231   4.634  18.584  0.00  0.00    +0.000 A 
ATOM     22  C   UNL     1       2.096   4.921  19.953  0.00  0.00    +0.000 A 
ATOM     23  C   UNL     1       1.479   4.013  20.816  0.00  0.00    +0.000 A 
ATOM     24  C   UNL     1       0.970   2.816  20.320  0.00  0.00    +0.000 A 
ATOM     25  C   UNL     1       1.065   2.534  18.959  0.00  0.00    +0.000 A 
ATOM     26  C   UNL     1       1.695   3.435  18.096  0.00  0.00    +0.000 A 
ENDBRANCH  20  21
ENDBRANCH   3  20
TORSDOF 8
ENDMDL
MODEL 8
REMARK VINA RESULT:      -7.7      3.076      6.464
REMARK  Name = 
REMARK  8 active torsions:
REMARK  status: ('A' for Active; 'I' for Inactive)
REMARK    1  A    between atoms: C_2  and  O_3
REMARK    2  A    between atoms: C_2  and  C_4
REMARK    3  A    between atoms: C_4  and  O_5
REMARK    4  A    between atoms: C_4  and  C_22
REMARK    5  A    between atoms: O_5  and  C_6
REMARK    6  A    between atoms: N_8  and  C_9
REMARK    7  A    between atoms: C_9  and  C_10
REMARK    8  A    between atoms: C_22  and  O_24
REMARK                            x       y       z     vdW  Elec       q    Type
REMARK                         _______ _______ _______ _____ _____    ______ ____
ROOT
ATOM      1  C   UNL     1       4.248   3.859  18.094  0.00  0.00    +0.000 A 
ATOM      2  N   UNL     1       5.450   3.795  17.511  0.00  0.00    +0.000 NA
ATOM      3  N   UNL     1       5.566   5.032  16.938  0.00  0.00    +0.000 N 
ATOM      4  C   UNL     1       4.563   5.905  17.311  0.00  0.00    +0.000 A 
ATOM      5  C   UNL     1       4.319   7.257  17.016  0.00  0.00    +0.000 A 
ATOM      6  C   UNL     1       3.203   7.861  17.601  0.00  0.00    +0.000 A 
ATOM      7  C   UNL     1       2.378   7.153  18.470  0.00  0.00    +0.000 A 
ATOM      8  C   UNL     1       2.618   5.801  18.741  0.00  0.00    +0.000 A 
ATOM      9  C   UNL     1       3.714   5.164  18.130  0.00  0.00    +0.000 A 
ENDROOT
BRANCH   1  10
ATOM     10  O   UNL     1       3.724   2.768  18.694  0.00  0.00    +0.000 OA
BRANCH  10  11
ATOM     11  C   UNL     1       3.931   2.677  20.104  0.00  0.00    +0.000 C 
BRANCH  11  13
ATOM     12  O   UNL     1       5.449   1.370  21.447  0.00  0.00    +0.000 OA
ATOM     13  C   UNL     1       4.822   1.475  20.396  0.00  0.00    +0.000 C 
BRANCH  13  14
ATOM     14  O   UNL     1       4.925   0.513  19.450  0.00  0.00    +0.000 OA
ATOM     15  H   UNL     1       5.477   0.748  18.664  0.00  0.00    +0.000 HD
ENDBRANCH  13  14
ENDBRANCH  11  13
BRANCH  11  16
ATOM     16  C   UNL     1       2.569   2.626  20.763  0.00  0.00    +0.000 C 
ATOM     17  O   UNL     1       1.515   2.526  20.150  0.00  0.00    +0.000 OA
BRANCH  16  18
ATOM     18  O   UNL     1       2.607   2.709  22.118  0.00  0.00    +0.000 OA
ATOM     19  H   UNL     1       2.205   3.547  22.448  0.00  0.00    +0.000 HD
ENDBRANCH  16  18
ENDBRANCH  11  16
ENDBRANCH  10  11
ENDBRANCH   1  10
BRANCH   3  20
ATOM     20  C   UNL     1       6.754   5.375  16.155  0.00  0.00    +0.000 C 
BRANCH  20  21
ATOM     21  C   UNL     1       6.672   4.877  14.732  0.00  0.00    +0.000 A 
ATOM     22  C   UNL     1       5.640   4.016  14.324  0.00  0.00    +0.000 A 
ATOM     23  C   UNL     1       5.600   3.514  13.021  0.00  0.00    +0.000 A 
ATOM     24  C   UNL     1       6.580   3.881  12.104  0.00  0.00    +0.000 A 
ATOM     25  C   UNL     1       7.590   4.762  12.483  0.00  0.00    +0.000 A 
ATOM     26  C   UNL     1       7.639   5.255  13.790  0.00  0.00    +0.000 A 
ENDBRANCH  20  21
ENDBRANCH   3  20
TORSDOF 8
ENDMDL
MODEL 9
REMARK VINA RESULT:      -7.7      2.903      6.451
REMARK  Name = 
REMARK  8 active torsions:
REMARK  status: ('A' for Active; 'I' for Inactive)
REMARK    1  A    between atoms: C_2  and  O_3
REMARK    2  A    between atoms: C_2  and  C_4
REMARK    3  A    between atoms: C_4  and  O_5
REMARK    4  A    between atoms: C_4  and  C_22
REMARK    5  A    between atoms: O_5  and  C_6
REMARK    6  A    between atoms: N_8  and  C_9
REMARK    7  A    between atoms: C_9  and  C_10
REMARK    8  A    between atoms: C_22  and  O_24
REMARK                            x       y       z     vdW  Elec       q    Type
REMARK                         _______ _______ _______ _____ _____    ______ ____
ROOT
ATOM      1  C   UNL     1       4.549   4.279  19.026  0.00  0.00    +0.000 A 
ATOM      2  N   UNL     1       5.759   4.134  18.477  0.00  0.00    +0.000 NA
ATOM      3  N   UNL     1       5.814   5.186  17.603  0.00  0.00    +0.000 N 
ATOM      4  C   UNL     1       4.760   6.068  17.741  0.00  0.00    +0.000 A 
ATOM      5  C   UNL     1       4.445   7.282  17.107  0.00  0.00    +0.000 A 
ATOM      6  C   UNL     1       3.290   7.953  17.519  0.00  0.00    +0.000 A 
ATOM      7  C   UNL     1       2.495   7.447  18.544  0.00  0.00    +0.000 A 
ATOM      8  C   UNL     1       2.806   6.226  19.154  0.00  0.00    +0.000 A 
ATOM      9  C   UNL     1       3.943   5.517  18.725  0.00  0.00    +0.000 A 
ENDROOT
BRANCH   1  10
ATOM     10  O   UNL     1       4.078   3.351  19.890  0.00  0.00    +0.000 OA
BRANCH  10  11
ATOM     11  C   UNL     1       2.696   3.020  19.749  0.00  0.00    +0.000 C 
BRANCH  11  13
ATOM     12  O   UNL     1       2.816   2.503  22.102  0.00  0.00    +0.000 OA
ATOM     13  C   UNL     1       2.108   2.763  21.133  0.00  0.00    +0.000 C 
BRANCH  13  14
ATOM     14  O   UNL     1       0.763   2.812  21.273  0.00  0.00    +0.000 OA
ATOM     15  H   UNL     1       0.306   1.936  21.286  0.00  0.00    +0.000 HD
ENDBRANCH  13  14
ENDBRANCH  11  13
BRANCH  11  16
ATOM     16  C   UNL     1       2.603   1.847  18.798  0.00  0.00    +0.000 C 
ATOM     17  O   UNL     1       3.572   1.282  18.310  0.00  0.00    +0.000 OA
BRANCH  16  18
ATOM     18  O   UNL     1       1.330   1.466  18.514  0.00  0.00    +0.000 OA
ATOM     19  H   UNL     1       0.937   2.003  17.787  0.00  0.00    +0.000 HD
ENDBRANCH  16  18
ENDBRANCH  11  16
ENDBRANCH  10  11
ENDBRANCH   1  10
BRANCH   3  20
ATOM     20  C   UNL     1       6.991   5.383  16.755  0.00  0.00    +0.000 C 
BRANCH  20  21
ATOM     21  C   UNL     1       6.766   4.912  15.338  0.00  0.00    +0.000 A 
ATOM     22  C   UNL     1       5.719   4.031  15.024  0.00  0.00    +0.000 A 
ATOM     23  C   UNL     1       5.550   3.555  13.722  0.00  0.00    +0.000 A 
ATOM     24  C   UNL     1       6.413   3.969  12.712  0.00  0.00    +0.000 A 
ATOM     25  C   UNL     1       7.435   4.871  13.000  0.00  0.00    +0.000 A 
ATOM     26  C   UNL     1       7.614   5.337  14.305  0.00  0.00    +0.000 A 
ENDBRANCH  20  21
ENDBRANCH   3  20
TORSDOF 8
ENDMDL
