MODEL 1
REMARK VINA RESULT:      -6.5      0.000      0.000
REMARK  Name = 
REMARK  7 active torsions:
REMARK  status: ('A' for Active; 'I' for Inactive)
REMARK    1  A    between atoms: C_1  and  O_2
REMARK    2  A    between atoms: O_2  and  C_3
REMARK    3  A    between atoms: C_6  and  C_7
REMARK    4  A    between atoms: C_7  and  C_8
REMARK    5  A    between atoms: C_8  and  N_9
REMARK    6  A    between atoms: N_9  and  C_10
REMARK    7  A    between atoms: C_17  and  C_18
REMARK                            x       y       z     vdW  Elec       q    Type
REMARK                         _______ _______ _______ _____ _____    ______ ____
ROOT
ATOM      1  N   UNL     1       5.309   5.577  19.512  0.00  0.00    +0.000 N 
ATOM      2  H   UNL     1       4.913   6.300  18.932  0.00  0.00    +0.000 HD
ENDROOT
BRANCH   1   3
ATOM      3  C   UNL     1       4.638   4.354  19.373  0.00  0.00    +0.000 A 
ATOM      4  N   UNL     1       5.247   3.226  19.812  0.00  0.00    +0.000 NA
ATOM      5  C   UNL     1       4.604   2.054  19.732  0.00  0.00    +0.000 A 
ATOM      6  N   UNL     1       3.378   1.838  19.263  0.00  0.00    +0.000 NA
ATOM      7  C   UNL     1       2.794   2.964  18.823  0.00  0.00    +0.000 A 
ATOM      8  S   UNL     1       1.214   2.907  18.195  0.00  0.00    +0.000 S 
ATOM      9  C   UNL     1       1.230   4.575  17.850  0.00  0.00    +0.000 A 
ATOM     10  C   UNL     1       2.420   5.187  18.198  0.00  0.00    +0.000 A 
ATOM     11  C   UNL     1       2.692   6.633  17.942  0.00  0.00    +0.000 C 
ATOM     12  C   UNL     1       3.341   4.243  18.815  0.00  0.00    +0.000 A 
ENDBRANCH   1   3
BRANCH   1  13
ATOM     13  C   UNL     1       6.761   5.474  19.421  0.00  0.00    +0.000 C 
BRANCH  13  14
ATOM     14  C   UNL     1       7.273   6.136  18.134  0.00  0.00    +0.000 C 
BRANCH  14  18
ATOM     15  C   UNL     1       5.629   4.570  14.440  0.00  0.00    +0.000 A 
ATOM     16  C   UNL     1       6.561   3.822  15.154  0.00  0.00    +0.000 A 
ATOM     17  C   UNL     1       7.096   4.305  16.349  0.00  0.00    +0.000 A 
ATOM     18  C   UNL     1       6.722   5.560  16.847  0.00  0.00    +0.000 A 
ATOM     19  C   UNL     1       5.798   6.318  16.109  0.00  0.00    +0.000 A 
ATOM     20  C   UNL     1       5.256   5.825  14.914  0.00  0.00    +0.000 A 
BRANCH  15  22
ATOM     21  C   UNL     1       6.201   3.415  12.464  0.00  0.00    +0.000 C 
ATOM     22  O   UNL     1       5.191   3.989  13.285  0.00  0.00    +0.000 OA
ENDBRANCH  15  22
ENDBRANCH  14  18
ENDBRANCH  13  14
ENDBRANCH   1  13
TORSDOF 5
ENDMDL
MODEL 2
REMARK VINA RESULT:      -6.5      1.108      1.449
REMARK  Name = 
REMARK  7 active torsions:
REMARK  status: ('A' for Active; 'I' for Inactive)
REMARK    1  A    between atoms: C_1  and  O_2
REMARK    2  A    between atoms: O_2  and  C_3
REMARK    3  A    between atoms: C_6  and  C_7
REMARK    4  A    between atoms: C_7  and  C_8
REMARK    5  A    between atoms: C_8  and  N_9
REMARK    6  A    between atoms: N_9  and  C_10
REMARK    7  A    between atoms: C_17  and  C_18
REMARK                            x       y       z     vdW  Elec       q    Type
REMARK                         _______ _______ _______ _____ _____    ______ ____
ROOT
ATOM      1  N   UNL     1       6.171   5.166  19.086  0.00  0.00    +0.000 N 
ATOM      2  H   UNL     1       5.839   6.117  19.029  0.00  0.00    +0.000 HD
ENDROOT
BRANCH   1   3
ATOM      3  C   UNL     1       5.122   4.240  19.157  0.00  0.00    +0.000 A 
ATOM      4  N   UNL     1       5.367   3.021  19.699  0.00  0.00    +0.000 NA
ATOM      5  C   UNL     1       4.368   2.139  19.820  0.00  0.00    +0.000 A 
ATOM      6  N   UNL     1       3.096   2.309  19.471  0.00  0.00    +0.000 NA
ATOM      7  C   UNL     1       2.873   3.515  18.927  0.00  0.00    +0.000 A 
ATOM      8  S   UNL     1       1.304   3.939  18.422  0.00  0.00    +0.000 S 
ATOM      9  C   UNL     1       1.833   5.456  17.859  0.00  0.00    +0.000 A 
ATOM     10  C   UNL     1       3.189   5.656  18.039  0.00  0.00    +0.000 A 
ATOM     11  C   UNL     1       3.895   6.888  17.574  0.00  0.00    +0.000 C 
ATOM     12  C   UNL     1       3.808   4.522  18.711  0.00  0.00    +0.000 A 
ENDBRANCH   1   3
BRANCH   1  13
ATOM     13  C   UNL     1       7.193   4.836  18.100  0.00  0.00    +0.000 C 
BRANCH  13  14
ATOM     14  C   UNL     1       7.093   5.763  16.881  0.00  0.00    +0.000 C 
BRANCH  14  18
ATOM     15  C   UNL     1       6.190   3.850  13.096  0.00  0.00    +0.000 A 
ATOM     16  C   UNL     1       5.314   3.707  14.168  0.00  0.00    +0.000 A 
ATOM     17  C   UNL     1       5.584   4.321  15.392  0.00  0.00    +0.000 A 
ATOM     18  C   UNL     1       6.748   5.079  15.574  0.00  0.00    +0.000 A 
ATOM     19  C   UNL     1       7.636   5.199  14.494  0.00  0.00    +0.000 A 
ATOM     20  C   UNL     1       7.358   4.589  13.263  0.00  0.00    +0.000 A 
BRANCH  15  22
ATOM     21  C   UNL     1       4.431   3.252  11.641  0.00  0.00    +0.000 C 
ATOM     22  O   UNL     1       5.816   3.192  11.959  0.00  0.00    +0.000 OA
ENDBRANCH  15  22
ENDBRANCH  14  18
ENDBRANCH  13  14
ENDBRANCH   1  13
TORSDOF 5
ENDMDL
MODEL 3
REMARK VINA RESULT:      -6.4      3.707      5.404
REMARK  Name = 
REMARK  7 active torsions:
REMARK  status: ('A' for Active; 'I' for Inactive)
REMARK    1  A    between atoms: C_1  and  O_2
REMARK    2  A    between atoms: O_2  and  C_3
REMARK    3  A    between atoms: C_6  and  C_7
REMARK    4  A    between atoms: C_7  and  C_8
REMARK    5  A    between atoms: C_8  and  N_9
REMARK    6  A    between atoms: N_9  and  C_10
REMARK    7  A    between atoms: C_17  and  C_18
REMARK                            x       y       z     vdW  Elec       q    Type
REMARK                         _______ _______ _______ _____ _____    ______ ____
ROOT
ATOM      1  N   UNL     1       2.019   6.974  20.901  0.00  0.00    +0.000 N 
ATOM      2  H   UNL     1       2.954   6.945  21.278  0.00  0.00    +0.000 HD
ENDROOT
BRANCH   1   3
ATOM      3  C   UNL     1       1.894   7.903  19.859  0.00  0.00    +0.000 A 
ATOM      4  N   UNL     1       2.558   7.671  18.700  0.00  0.00    +0.000 NA
ATOM      5  C   UNL     1       2.414   8.521  17.675  0.00  0.00    +0.000 A 
ATOM      6  N   UNL     1       1.659   9.615  17.636  0.00  0.00    +0.000 NA
ATOM      7  C   UNL     1       1.018   9.835  18.794  0.00  0.00    +0.000 A 
ATOM      8  S   UNL     1      -0.013  11.180  18.949  0.00  0.00    +0.000 S 
ATOM      9  C   UNL     1      -0.359  10.800  20.572  0.00  0.00    +0.000 A 
ATOM     10  C   UNL     1       0.297   9.666  21.013  0.00  0.00    +0.000 A 
ATOM     11  C   UNL     1       0.195   9.165  22.417  0.00  0.00    +0.000 C 
ATOM     12  C   UNL     1       1.087   9.062  19.949  0.00  0.00    +0.000 A 
ENDBRANCH   1   3
BRANCH   1  13
ATOM     13  C   UNL     1       1.463   5.660  20.599  0.00  0.00    +0.000 C 
BRANCH  13  14
ATOM     14  C   UNL     1       2.547   4.577  20.685  0.00  0.00    +0.000 C 
BRANCH  14  18
ATOM     15  C   UNL     1       4.876   4.030  17.069  0.00  0.00    +0.000 A 
ATOM     16  C   UNL     1       5.462   4.618  18.186  0.00  0.00    +0.000 A 
ATOM     17  C   UNL     1       4.732   4.797  19.361  0.00  0.00    +0.000 A 
ATOM     18  C   UNL     1       3.389   4.404  19.438  0.00  0.00    +0.000 A 
ATOM     19  C   UNL     1       2.799   3.831  18.299  0.00  0.00    +0.000 A 
ATOM     20  C   UNL     1       3.539   3.646  17.124  0.00  0.00    +0.000 A 
BRANCH  15  22
ATOM     21  C   UNL     1       6.966   4.549  16.104  0.00  0.00    +0.000 C 
ATOM     22  O   UNL     1       5.695   3.923  15.981  0.00  0.00    +0.000 OA
ENDBRANCH  15  22
ENDBRANCH  14  18
ENDBRANCH  13  14
ENDBRANCH   1  13
TORSDOF 5
ENDMDL
MODEL 4
REMARK VINA RESULT:      -6.4      3.384      6.088
REMARK  Name = 
REMARK  7 active torsions:
REMARK  status: ('A' for Active; 'I' for Inactive)
REMARK    1  A    between atoms: C_1  and  O_2
REMARK    2  A    between atoms: O_2  and  C_3
REMARK    3  A    between atoms: C_6  and  C_7
REMARK    4  A    between atoms: C_7  and  C_8
REMARK    5  A    between atoms: C_8  and  N_9
REMARK    6  A    between atoms: N_9  and  C_10
REMARK    7  A    between atoms: C_17  and  C_18
REMARK                            x       y       z     vdW  Elec       q    Type
REMARK                         _______ _______ _______ _____ _____    ______ ____
ROOT
ATOM      1  N   UNL     1       4.346   2.955  16.916  0.00  0.00    +0.000 N 
ATOM      2  H   UNL     1       4.531   2.023  16.580  0.00  0.00    +0.000 HD
ENDROOT
BRANCH   1   3
ATOM      3  C   UNL     1       5.331   3.870  16.519  0.00  0.00    +0.000 A 
ATOM      4  N   UNL     1       5.628   3.971  15.200  0.00  0.00    +0.000 NA
ATOM      5  C   UNL     1       6.531   4.873  14.794  0.00  0.00    +0.000 A 
ATOM      6  N   UNL     1       7.206   5.735  15.549  0.00  0.00    +0.000 NA
ATOM      7  C   UNL     1       6.908   5.613  16.852  0.00  0.00    +0.000 A 
ATOM      8  S   UNL     1       7.655   6.635  17.989  0.00  0.00    +0.000 S 
ATOM      9  C   UNL     1       6.850   5.876  19.285  0.00  0.00    +0.000 A 
ATOM     10  C   UNL     1       6.019   4.849  18.877  0.00  0.00    +0.000 A 
ATOM     11  C   UNL     1       5.251   3.999  19.835  0.00  0.00    +0.000 C 
ATOM     12  C   UNL     1       6.017   4.712  17.427  0.00  0.00    +0.000 A 
ENDBRANCH   1   3
BRANCH   1  13
ATOM     13  C   UNL     1       2.981   3.409  16.681  0.00  0.00    +0.000 C 
BRANCH  13  14
ATOM     14  C   UNL     1       2.152   3.332  17.971  0.00  0.00    +0.000 C 
BRANCH  14  18
ATOM     15  C   UNL     1       1.900   7.089  20.122  0.00  0.00    +0.000 A 
ATOM     16  C   UNL     1       1.507   5.908  20.745  0.00  0.00    +0.000 A 
ATOM     17  C   UNL     1       1.587   4.688  20.072  0.00  0.00    +0.000 A 
ATOM     18  C   UNL     1       2.047   4.626  18.751  0.00  0.00    +0.000 A 
ATOM     19  C   UNL     1       2.421   5.825  18.122  0.00  0.00    +0.000 A 
ATOM     20  C   UNL     1       2.347   7.047  18.804  0.00  0.00    +0.000 A 
BRANCH  15  22
ATOM     21  C   UNL     1       1.060   9.289  20.276  0.00  0.00    +0.000 C 
ATOM     22  O   UNL     1       1.763   8.213  20.885  0.00  0.00    +0.000 OA
ENDBRANCH  15  22
ENDBRANCH  14  18
ENDBRANCH  13  14
ENDBRANCH   1  13
TORSDOF 5
ENDMDL
MODEL 5
REMARK VINA RESULT:      -6.3      4.625      7.236
REMARK  Name = 
REMARK  7 active torsions:
REMARK  status: ('A' for Active; 'I' for Inactive)
REMARK    1  A    between atoms: C_1  and  O_2
REMARK    2  A    between atoms: O_2  and  C_3
REMARK    3  A    between atoms: C_6  and  C_7
REMARK    4  A    between atoms: C_7  and  C_8
REMARK    5  A    between atoms: C_8  and  N_9
REMARK    6  A    between atoms: N_9  and  C_10
REMARK    7  A    between atoms: C_17  and  C_18
REMARK                            x       y       z     vdW  Elec       q    Type
REMARK                         _______ _______ _______ _____ _____    ______ ____
ROOT
ATOM      1  N   UNL     1       2.210   6.552  18.072  0.00  0.00    +0.000 N 
ATOM      2  H   UNL     1       1.530   6.447  17.335  0.00  0.00    +0.000 HD
ENDROOT
BRANCH   1   3
ATOM      3  C   UNL     1       3.199   5.560  18.031  0.00  0.00    +0.000 A 
ATOM      4  N   UNL     1       4.172   5.653  17.091  0.00  0.00    +0.000 NA
ATOM      5  C   UNL     1       5.153   4.741  17.064  0.00  0.00    +0.000 A 
ATOM      6  N   UNL     1       5.316   3.708  17.885  0.00  0.00    +0.000 NA
ATOM      7  C   UNL     1       4.339   3.626  18.802  0.00  0.00    +0.000 A 
ATOM      8  S   UNL     1       4.367   2.378  19.959  0.00  0.00    +0.000 S 
ATOM      9  C   UNL     1       2.901   2.905  20.646  0.00  0.00    +0.000 A 
ATOM     10  C   UNL     1       2.375   4.016  20.012  0.00  0.00    +0.000 A 
ATOM     11  C   UNL     1       1.068   4.626  20.399  0.00  0.00    +0.000 C 
ATOM     12  C   UNL     1       3.245   4.475  18.939  0.00  0.00    +0.000 A 
ENDBRANCH   1   3
BRANCH   1  13
ATOM     13  C   UNL     1       2.730   7.908  18.207  0.00  0.00    +0.000 C 
BRANCH  13  14
ATOM     14  C   UNL     1       1.590   8.935  18.167  0.00  0.00    +0.000 C 
BRANCH  14  18
ATOM     15  C   UNL     1       0.124  10.094  22.079  0.00  0.00    +0.000 A 
ATOM     16  C   UNL     1      -0.169  10.882  20.970  0.00  0.00    +0.000 A 
ATOM     17  C   UNL     1       0.288  10.523  19.702  0.00  0.00    +0.000 A 
ATOM     18  C   UNL     1       1.064   9.371  19.518  0.00  0.00    +0.000 A 
ATOM     19  C   UNL     1       1.373   8.594  20.646  0.00  0.00    +0.000 A 
ATOM     20  C   UNL     1       0.906   8.953  21.917  0.00  0.00    +0.000 A 
BRANCH  15  22
ATOM     21  C   UNL     1      -1.495  11.429  23.158  0.00  0.00    +0.000 C 
ATOM     22  O   UNL     1      -0.373  10.562  23.262  0.00  0.00    +0.000 OA
ENDBRANCH  15  22
ENDBRANCH  14  18
ENDBRANCH  13  14
ENDBRANCH   1  13
TORSDOF 5
ENDMDL
MODEL 6
REMARK VINA RESULT:      -6.2      2.761      4.056
REMARK  Name = 
REMARK  7 active torsions:
REMARK  status: ('A' for Active; 'I' for Inactive)
REMARK    1  A    between atoms: C_1  and  O_2
REMARK    2  A    between atoms: O_2  and  C_3
REMARK    3  A    between atoms: C_6  and  C_7
REMARK    4  A    between atoms: C_7  and  C_8
REMARK    5  A    between atoms: C_8  and  N_9
REMARK    6  A    between atoms: N_9  and  C_10
REMARK    7  A    between atoms: C_17  and  C_18
REMARK                            x       y       z     vdW  Elec       q    Type
REMARK                         _______ _______ _______ _____ _____    ______ ____
ROOT
ATOM      1  N   UNL     1       3.592   4.597  17.202  0.00  0.00    +0.000 N 
ATOM      2  H   UNL     1       3.012   4.721  16.387  0.00  0.00    +0.000 HD
ENDROOT
BRANCH   1   3
ATOM      3  C   UNL     1       2.847   4.578  18.389  0.00  0.00    +0.000 A 
ATOM      4  N   UNL     1       2.524   3.379  18.933  0.00  0.00    +0.000 NA
ATOM      5  C   UNL     1       1.853   3.339  20.091  0.00  0.00    +0.000 A 
ATOM      6  N   UNL     1       1.448   4.372  20.824  0.00  0.00    +0.000 NA
ATOM      7  C   UNL     1       1.767   5.550  20.266  0.00  0.00    +0.000 A 
ATOM      8  S   UNL     1       1.349   6.999  21.053  0.00  0.00    +0.000 S 
ATOM      9  C   UNL     1       2.001   7.939  19.791  0.00  0.00    +0.000 A 
ATOM     10  C   UNL     1       2.532   7.175  18.768  0.00  0.00    +0.000 A 
ATOM     11  C   UNL     1       3.111   7.773  17.527  0.00  0.00    +0.000 C 
ATOM     12  C   UNL     1       2.433   5.752  19.061  0.00  0.00    +0.000 A 
ENDBRANCH   1   3
BRANCH   1  13
ATOM     13  C   UNL     1       4.553   3.506  17.084  0.00  0.00    +0.000 C 
BRANCH  13  14
ATOM     14  C   UNL     1       5.824   3.976  16.363  0.00  0.00    +0.000 C 
BRANCH  14  18
ATOM     15  C   UNL     1       7.963   7.183  18.348  0.00  0.00    +0.000 A 
ATOM     16  C   UNL     1       7.193   7.460  17.223  0.00  0.00    +0.000 A 
ATOM     17  C   UNL     1       6.492   6.443  16.574  0.00  0.00    +0.000 A 
ATOM     18  C   UNL     1       6.560   5.120  17.029  0.00  0.00    +0.000 A 
ATOM     19  C   UNL     1       7.357   4.846  18.153  0.00  0.00    +0.000 A 
ATOM     20  C   UNL     1       8.053   5.871  18.807  0.00  0.00    +0.000 A 
BRANCH  15  22
ATOM     21  C   UNL     1       8.461   9.482  18.165  0.00  0.00    +0.000 C 
ATOM     22  O   UNL     1       8.606   8.263  18.883  0.00  0.00    +0.000 OA
ENDBRANCH  15  22
ENDBRANCH  14  18
ENDBRANCH  13  14
ENDBRANCH   1  13
TORSDOF 5
ENDMDL
MODEL 7
REMARK VINA RESULT:      -6.2      3.589      6.094
REMARK  Name = 
REMARK  7 active torsions:
REMARK  status: ('A' for Active; 'I' for Inactive)
REMARK    1  A    between atoms: C_1  and  O_2
REMARK    2  A    between atoms: O_2  and  C_3
REMARK    3  A    between atoms: C_6  and  C_7
REMARK    4  A    between atoms: C_7  and  C_8
REMARK    5  A    between atoms: C_8  and  N_9
REMARK    6  A    between atoms: N_9  and  C_10
REMARK    7  A    between atoms: C_17  and  C_18
REMARK                            x       y       z     vdW  Elec       q    Type
REMARK                         _______ _______ _______ _____ _____    ______ ____
ROOT
ATOM      1  N   UNL     1       4.300   4.305  19.609  0.00  0.00    +0.000 N 
ATOM      2  H   UNL     1       3.825   3.553  19.134  0.00  0.00    +0.000 HD
ENDROOT
BRANCH   1   3
ATOM      3  C   UNL     1       5.430   4.748  18.909  0.00  0.00    +0.000 A 
ATOM      4  N   UNL     1       6.428   5.350  19.601  0.00  0.00    +0.000 NA
ATOM      5  C   UNL     1       7.537   5.738  18.959  0.00  0.00    +0.000 A 
ATOM      6  N   UNL     1       7.811   5.595  17.665  0.00  0.00    +0.000 NA
ATOM      7  C   UNL     1       6.809   5.006  16.994  0.00  0.00    +0.000 A 
ATOM      8  S   UNL     1       6.964   4.718  15.324  0.00  0.00    +0.000 S 
ATOM      9  C   UNL     1       5.398   4.054  15.234  0.00  0.00    +0.000 A 
ATOM     10  C   UNL     1       4.744   4.048  16.453  0.00  0.00    +0.000 A 
ATOM     11  C   UNL     1       3.340   3.566  16.615  0.00  0.00    +0.000 C 
ATOM     12  C   UNL     1       5.592   4.576  17.513  0.00  0.00    +0.000 A 
ENDBRANCH   1   3
BRANCH   1  13
ATOM     13  C   UNL     1       3.415   5.376  20.053  0.00  0.00    +0.000 C 
BRANCH  13  14
ATOM     14  C   UNL     1       2.531   5.866  18.899  0.00  0.00    +0.000 C 
BRANCH  14  18
ATOM     15  C   UNL     1       1.294  10.018  19.068  0.00  0.00    +0.000 A 
ATOM     16  C   UNL     1       1.174   9.215  20.198  0.00  0.00    +0.000 A 
ATOM     17  C   UNL     1       1.573   7.878  20.166  0.00  0.00    +0.000 A 
ATOM     18  C   UNL     1       2.086   7.311  18.992  0.00  0.00    +0.000 A 
ATOM     19  C   UNL     1       2.183   8.123  17.851  0.00  0.00    +0.000 A 
ATOM     20  C   UNL     1       1.790   9.467  17.890  0.00  0.00    +0.000 A 
BRANCH  15  22
ATOM     21  C   UNL     1      -0.534  11.511  19.034  0.00  0.00    +0.000 C 
ATOM     22  O   UNL     1       0.859  11.303  19.229  0.00  0.00    +0.000 OA
ENDBRANCH  15  22
ENDBRANCH  14  18
ENDBRANCH  13  14
ENDBRANCH   1  13
TORSDOF 5
ENDMDL
MODEL 8
REMARK VINA RESULT:      -6.2      3.623      5.342
REMARK  Name = 
REMARK  7 active torsions:
REMARK  status: ('A' for Active; 'I' for Inactive)
REMARK    1  A    between atoms: C_1  and  O_2
REMARK    2  A    between atoms: O_2  and  C_3
REMARK    3  A    between atoms: C_6  and  C_7
REMARK    4  A    between atoms: C_7  and  C_8
REMARK    5  A    between atoms: C_8  and  N_9
REMARK    6  A    between atoms: N_9  and  C_10
REMARK    7  A    between atoms: C_17  and  C_18
REMARK                            x       y       z     vdW  Elec       q    Type
REMARK                         _______ _______ _______ _____ _____    ______ ____
ROOT
ATOM      1  N   UNL     1       2.187   6.554  20.795  0.00  0.00    +0.000 N 
ATOM      2  H   UNL     1       2.995   6.626  20.196  0.00  0.00    +0.000 HD
ENDROOT
BRANCH   1   3
ATOM      3  C   UNL     1       1.395   7.709  20.763  0.00  0.00    +0.000 A 
ATOM      4  N   UNL     1       0.564   7.955  21.806  0.00  0.00    +0.000 NA
ATOM      5  C   UNL     1      -0.166   9.078  21.818  0.00  0.00    +0.000 A 
ATOM      6  N   UNL     1      -0.180  10.040  20.900  0.00  0.00    +0.000 NA
ATOM      7  C   UNL     1       0.639   9.775  19.871  0.00  0.00    +0.000 A 
ATOM      8  S   UNL     1       0.779  10.889  18.593  0.00  0.00    +0.000 S 
ATOM      9  C   UNL     1       1.867   9.881  17.756  0.00  0.00    +0.000 A 
ATOM     10  C   UNL     1       2.131   8.700  18.425  0.00  0.00    +0.000 A 
ATOM     11  C   UNL     1       3.012   7.632  17.865  0.00  0.00    +0.000 C 
ATOM     12  C   UNL     1       1.436   8.647  19.704  0.00  0.00    +0.000 A 
ENDBRANCH   1   3
BRANCH   1  13
ATOM     13  C   UNL     1       1.439   5.312  20.632  0.00  0.00    +0.000 C 
BRANCH  13  14
ATOM     14  C   UNL     1       2.392   4.116  20.504  0.00  0.00    +0.000 C 
BRANCH  14  18
ATOM     15  C   UNL     1       4.926   4.105  16.986  0.00  0.00    +0.000 A 
ATOM     16  C   UNL     1       3.565   3.842  16.858  0.00  0.00    +0.000 A 
ATOM     17  C   UNL     1       2.732   3.848  17.977  0.00  0.00    +0.000 A 
ATOM     18  C   UNL     1       3.248   4.101  19.255  0.00  0.00    +0.000 A 
ATOM     19  C   UNL     1       4.625   4.343  19.377  0.00  0.00    +0.000 A 
ATOM     20  C   UNL     1       5.458   4.345  18.250  0.00  0.00    +0.000 A 
BRANCH  15  22
ATOM     21  C   UNL     1       6.953   4.580  15.874  0.00  0.00    +0.000 C 
ATOM     22  O   UNL     1       5.631   4.059  15.817  0.00  0.00    +0.000 OA
ENDBRANCH  15  22
ENDBRANCH  14  18
ENDBRANCH  13  14
ENDBRANCH   1  13
TORSDOF 5
ENDMDL
MODEL 9
REMARK VINA RESULT:      -6.1      3.124      5.634
REMARK  Name = 
REMARK  7 active torsions:
REMARK  status: ('A' for Active; 'I' for Inactive)
REMARK    1  A    between atoms: C_1  and  O_2
REMARK    2  A    between atoms: O_2  and  C_3
REMARK    3  A    between atoms: C_6  and  C_7
REMARK    4  A    between atoms: C_7  and  C_8
REMARK    5  A    between atoms: C_8  and  N_9
REMARK    6  A    between atoms: N_9  and  C_10
REMARK    7  A    between atoms: C_17  and  C_18
REMARK                            x       y       z     vdW  Elec       q    Type
REMARK                         _______ _______ _______ _____ _____    ______ ____
ROOT
ATOM      1  N   UNL     1       4.528   3.715  19.607  0.00  0.00    +0.000 N 
ATOM      2  H   UNL     1       4.010   3.100  18.999  0.00  0.00    +0.000 HD
ENDROOT
BRANCH   1   3
ATOM      3  C   UNL     1       5.538   4.409  18.927  0.00  0.00    +0.000 A 
ATOM      4  N   UNL     1       6.507   5.020  19.652  0.00  0.00    +0.000 NA
ATOM      5  C   UNL     1       7.507   5.649  19.021  0.00  0.00    +0.000 A 
ATOM      6  N   UNL     1       7.693   5.751  17.708  0.00  0.00    +0.000 NA
ATOM      7  C   UNL     1       6.720   5.150  17.006  0.00  0.00    +0.000 A 
ATOM      8  S   UNL     1       6.778   5.154  15.306  0.00  0.00    +0.000 S 
ATOM      9  C   UNL     1       5.301   4.312  15.196  0.00  0.00    +0.000 A 
ATOM     10  C   UNL     1       4.751   4.025  16.432  0.00  0.00    +0.000 A 
ATOM     11  C   UNL     1       3.432   3.342  16.592  0.00  0.00    +0.000 C 
ATOM     12  C   UNL     1       5.609   4.485  17.515  0.00  0.00    +0.000 A 
ENDBRANCH   1   3
BRANCH   1  13
ATOM     13  C   UNL     1       3.689   4.557  20.451  0.00  0.00    +0.000 C 
BRANCH  13  14
ATOM     14  C   UNL     1       2.377   4.909  19.736  0.00  0.00    +0.000 C 
BRANCH  14  18
ATOM     15  C   UNL     1       1.919   9.081  18.645  0.00  0.00    +0.000 A 
ATOM     16  C   UNL     1       2.476   8.186  17.736  0.00  0.00    +0.000 A 
ATOM     17  C   UNL     1       2.626   6.839  18.065  0.00  0.00    +0.000 A 
ATOM     18  C   UNL     1       2.235   6.359  19.322  0.00  0.00    +0.000 A 
ATOM     19  C   UNL     1       1.693   7.273  20.241  0.00  0.00    +0.000 A 
ATOM     20  C   UNL     1       1.536   8.624  19.903  0.00  0.00    +0.000 A 
BRANCH  15  22
ATOM     21  C   UNL     1       0.856  11.179  18.840  0.00  0.00    +0.000 C 
ATOM     22  O   UNL     1       1.838  10.371  18.203  0.00  0.00    +0.000 OA
ENDBRANCH  15  22
ENDBRANCH  14  18
ENDBRANCH  13  14
ENDBRANCH   1  13
TORSDOF 5
ENDMDL
