MODEL 1
REMARK VINA RESULT:      -6.9      0.000      0.000
REMARK  Name = 
REMARK  6 active torsions:
REMARK  status: ('A' for Active; 'I' for Inactive)
REMARK    1  A    between atoms: C_1  and  O_2
REMARK    2  A    between atoms: O_2  and  C_3
REMARK    3  A    between atoms: C_3  and  C_5
REMARK    4  A    between atoms: C_19  and  N_20
REMARK    5  A    between atoms: C_21  and  C_23
REMARK    6  A    between atoms: C_28  and  C_29
REMARK                            x       y       z     vdW  Elec       q    Type
REMARK                         _______ _______ _______ _____ _____    ______ ____
ROOT
ATOM      1  C   UNL     1      -5.760  12.418  18.752  0.00  0.00    +0.000 C 
ATOM      2  C   UNL     1      -4.880  11.779  17.643  0.00  0.00    +0.000 C 
ATOM      3  S   UNL     1      -3.724  10.459  18.183  0.00  0.00    +0.000 S 
ATOM      4  C   UNL     1      -2.139  11.034  17.451  0.00  0.00    +0.000 C 
ATOM      5  C   UNL     1      -0.950  10.535  18.253  0.00  0.00    +0.000 A 
ATOM      6  C   UNL     1       0.018   9.730  17.642  0.00  0.00    +0.000 A 
ATOM      7  C   UNL     1       1.086   9.209  18.380  0.00  0.00    +0.000 A 
ATOM      8  C   UNL     1       1.181   9.439  19.754  0.00  0.00    +0.000 A 
ATOM      9  C   UNL     1       0.262  10.273  20.384  0.00  0.00    +0.000 A 
ATOM     10  C   UNL     1      -0.753  10.865  19.626  0.00  0.00    +0.000 A 
ATOM     11  C   UNL     1      -1.415  12.066  20.152  0.00  0.00    +0.000 C 
ATOM     12  O   UNL     1      -1.610  12.985  19.371  0.00  0.00    +0.000 OA
ATOM     13  O   UNL     1      -1.723  12.026  21.467  0.00  0.00    +0.000 OA
ATOM     14  C   UNL     1      -2.334  13.184  22.121  0.00  0.00    +0.000 C 
ATOM     15  C   UNL     1      -3.280  14.096  21.275  0.00  0.00    +0.000 C 
ATOM     16  C   UNL     1      -4.394  13.169  20.694  0.00  0.00    +0.000 C 
ATOM     17  N   UNL     1      -5.097  13.567  19.475  0.00  0.00    +0.000 NA
ATOM     18  H   UNL     1      -4.432  14.031  18.858  0.00  0.00    +0.000 HD
ENDROOT
BRANCH  15  19
ATOM     19  N   UNL     1      -2.545  14.964  20.318  0.00  0.00    +0.000 N 
ATOM     20  C   UNL     1      -2.126  16.217  20.706  0.00  0.00    +0.000 C 
ATOM     21  O   UNL     1      -2.591  16.740  21.724  0.00  0.00    +0.000 OA
ATOM     22  H   UNL     1      -1.858  14.461  19.752  0.00  0.00    +0.000 HD
BRANCH  20  23
ATOM     23  C   UNL     1      -1.136  17.035  19.820  0.00  0.00    +0.000 C 
ATOM     24  C   UNL     1      -1.856  17.777  18.689  0.00  0.00    +0.000 C 
ATOM     25  C   UNL     1      -0.704  18.454  17.951  0.00  0.00    +0.000 C 
ATOM     26  C   UNL     1       0.435  17.447  18.055  0.00  0.00    +0.000 C 
ATOM     27  N   UNL     1       0.029  16.502  19.093  0.00  0.00    +0.000 N 
ATOM     28  C   UNL     1       0.911  15.610  19.679  0.00  0.00    +0.000 C 
ATOM     29  C   UNL     1       2.253  15.434  19.010  0.00  0.00    +0.000 C 
ATOM     30  O   UNL     1       0.606  14.951  20.672  0.00  0.00    +0.000 OA
ENDBRANCH  20  23
ENDBRANCH  15  19
BRANCH   1  31
ATOM     31  C   UNL     1      -6.455  11.352  19.643  0.00  0.00    +0.000 C 
ATOM     32  O   UNL     1      -6.555  11.365  20.864  0.00  0.00    +0.000 OA
BRANCH  31  34
ATOM     33  C   UNL     1      -7.027   9.080  19.511  0.00  0.00    +0.000 C 
ATOM     34  O   UNL     1      -6.985  10.355  18.861  0.00  0.00    +0.000 OA
ENDBRANCH  31  34
ENDBRANCH   1  31
TORSDOF 4
ENDMDL
MODEL 2
REMARK VINA RESULT:      -6.3      3.232      8.075
REMARK  Name = 
REMARK  6 active torsions:
REMARK  status: ('A' for Active; 'I' for Inactive)
REMARK    1  A    between atoms: C_1  and  O_2
REMARK    2  A    between atoms: O_2  and  C_3
REMARK    3  A    between atoms: C_3  and  C_5
REMARK    4  A    between atoms: C_19  and  N_20
REMARK    5  A    between atoms: C_21  and  C_23
REMARK    6  A    between atoms: C_28  and  C_29
REMARK                            x       y       z     vdW  Elec       q    Type
REMARK                         _______ _______ _______ _____ _____    ______ ____
ROOT
ATOM      1  C   UNL     1       3.686  15.421  22.290  0.00  0.00    +0.000 C 
ATOM      2  C   UNL     1       4.182  15.800  20.868  0.00  0.00    +0.000 C 
ATOM      3  S   UNL     1       3.341  17.222  20.066  0.00  0.00    +0.000 S 
ATOM      4  C   UNL     1       2.896  16.513  18.430  0.00  0.00    +0.000 C 
ATOM      5  C   UNL     1       1.670  17.196  17.849  0.00  0.00    +0.000 A 
ATOM      6  C   UNL     1       1.752  17.851  16.615  0.00  0.00    +0.000 A 
ATOM      7  C   UNL     1       0.651  18.539  16.095  0.00  0.00    +0.000 A 
ATOM      8  C   UNL     1      -0.539  18.631  16.821  0.00  0.00    +0.000 A 
ATOM      9  C   UNL     1      -0.669  17.952  18.029  0.00  0.00    +0.000 A 
ATOM     10  C   UNL     1       0.404  17.191  18.503  0.00  0.00    +0.000 A 
ATOM     11  C   UNL     1       0.136  16.134  19.488  0.00  0.00    +0.000 C 
ATOM     12  O   UNL     1       0.691  15.059  19.320  0.00  0.00    +0.000 OA
ATOM     13  O   UNL     1      -0.721  16.471  20.476  0.00  0.00    +0.000 OA
ATOM     14  C   UNL     1      -1.113  15.486  21.487  0.00  0.00    +0.000 C 
ATOM     15  C   UNL     1      -0.072  14.394  21.894  0.00  0.00    +0.000 C 
ATOM     16  C   UNL     1       1.212  15.151  22.362  0.00  0.00    +0.000 C 
ATOM     17  N   UNL     1       2.508  14.476  22.298  0.00  0.00    +0.000 NA
ATOM     18  H   UNL     1       2.523  13.891  21.463  0.00  0.00    +0.000 HD
ENDROOT
BRANCH  15  19
ATOM     19  N   UNL     1       0.095  13.338  20.861  0.00  0.00    +0.000 N 
ATOM     20  C   UNL     1      -0.114  12.017  21.185  0.00  0.00    +0.000 C 
ATOM     21  O   UNL     1      -0.159  11.668  22.369  0.00  0.00    +0.000 OA
ATOM     22  H   UNL     1      -0.277  13.598  19.944  0.00  0.00    +0.000 HD
BRANCH  20  23
ATOM     23  C   UNL     1      -0.201  10.929  20.071  0.00  0.00    +0.000 C 
ATOM     24  C   UNL     1       1.181  10.542  19.535  0.00  0.00    +0.000 C 
ATOM     25  C   UNL     1       0.844   9.520  18.453  0.00  0.00    +0.000 C 
ATOM     26  C   UNL     1      -0.461  10.038  17.859  0.00  0.00    +0.000 C 
ATOM     27  N   UNL     1      -0.960  11.027  18.812  0.00  0.00    +0.000 N 
ATOM     28  C   UNL     1      -2.256  11.513  18.775  0.00  0.00    +0.000 C 
ATOM     29  C   UNL     1      -3.065  11.213  17.538  0.00  0.00    +0.000 C 
ATOM     30  O   UNL     1      -2.719  12.201  19.685  0.00  0.00    +0.000 OA
ENDBRANCH  20  23
ENDBRANCH  15  19
BRANCH   1  31
ATOM     31  C   UNL     1       3.586  16.655  23.229  0.00  0.00    +0.000 C 
ATOM     32  O   UNL     1       3.462  17.826  22.894  0.00  0.00    +0.000 OA
BRANCH  31  34
ATOM     33  C   UNL     1       3.922  17.322  25.454  0.00  0.00    +0.000 C 
ATOM     34  O   UNL     1       3.637  16.255  24.543  0.00  0.00    +0.000 OA
ENDBRANCH  31  34
ENDBRANCH   1  31
TORSDOF 4
ENDMDL
MODEL 3
REMARK VINA RESULT:      -6.0      2.137      3.020
REMARK  Name = 
REMARK  6 active torsions:
REMARK  status: ('A' for Active; 'I' for Inactive)
REMARK    1  A    between atoms: C_1  and  O_2
REMARK    2  A    between atoms: O_2  and  C_3
REMARK    3  A    between atoms: C_3  and  C_5
REMARK    4  A    between atoms: C_19  and  N_20
REMARK    5  A    between atoms: C_21  and  C_23
REMARK    6  A    between atoms: C_28  and  C_29
REMARK                            x       y       z     vdW  Elec       q    Type
REMARK                         _______ _______ _______ _____ _____    ______ ____
ROOT
ATOM      1  C   UNL     1      -4.985  13.886  22.460  0.00  0.00    +0.000 C 
ATOM      2  C   UNL     1      -5.659  13.605  21.090  0.00  0.00    +0.000 C 
ATOM      3  S   UNL     1      -5.241  12.004  20.292  0.00  0.00    +0.000 S 
ATOM      4  C   UNL     1      -4.761  12.548  18.604  0.00  0.00    +0.000 C 
ATOM      5  C   UNL     1      -3.778  11.577  17.972  0.00  0.00    +0.000 A 
ATOM      6  C   UNL     1      -4.103  10.933  16.773  0.00  0.00    +0.000 A 
ATOM      7  C   UNL     1      -3.238   9.989  16.210  0.00  0.00    +0.000 A 
ATOM      8  C   UNL     1      -2.055   9.631  16.861  0.00  0.00    +0.000 A 
ATOM      9  C   UNL     1      -1.679  10.286  18.029  0.00  0.00    +0.000 A 
ATOM     10  C   UNL     1      -2.503  11.294  18.542  0.00  0.00    +0.000 A 
ATOM     11  C   UNL     1      -1.920  12.277  19.464  0.00  0.00    +0.000 C 
ATOM     12  O   UNL     1      -2.214  13.450  19.290  0.00  0.00    +0.000 OA
ATOM     13  O   UNL     1      -1.098  11.768  20.407  0.00  0.00    +0.000 OA
ATOM     14  C   UNL     1      -0.411  12.653  21.350  0.00  0.00    +0.000 C 
ATOM     15  C   UNL     1      -1.130  13.972  21.780  0.00  0.00    +0.000 C 
ATOM     16  C   UNL     1      -2.519  13.557  22.361  0.00  0.00    +0.000 C 
ATOM     17  N   UNL     1      -3.619  14.521  22.354  0.00  0.00    +0.000 NA
ATOM     18  H   UNL     1      -3.556  15.073  21.500  0.00  0.00    +0.000 HD
ENDROOT
BRANCH  15  19
ATOM     19  N   UNL     1      -1.116  15.013  20.719  0.00  0.00    +0.000 N 
ATOM     20  C   UNL     1      -0.407  16.178  20.905  0.00  0.00    +0.000 C 
ATOM     21  O   UNL     1      -0.022  16.496  22.034  0.00  0.00    +0.000 OA
ATOM     22  H   UNL     1      -1.037  14.633  19.772  0.00  0.00    +0.000 HD
BRANCH  20  23
ATOM     23  C   UNL     1      -0.164  17.159  19.717  0.00  0.00    +0.000 C 
ATOM     24  C   UNL     1      -1.465  17.522  18.994  0.00  0.00    +0.000 C 
ATOM     25  C   UNL     1      -0.978  18.436  17.873  0.00  0.00    +0.000 C 
ATOM     26  C   UNL     1       0.369  17.842  17.480  0.00  0.00    +0.000 C 
ATOM     27  N   UNL     1       0.729  16.934  18.567  0.00  0.00    +0.000 N 
ATOM     28  C   UNL     1       2.006  16.422  18.722  0.00  0.00    +0.000 C 
ATOM     29  C   UNL     1       2.958  16.594  17.564  0.00  0.00    +0.000 C 
ATOM     30  O   UNL     1       2.343  15.810  19.736  0.00  0.00    +0.000 OA
ENDBRANCH  20  23
ENDBRANCH  15  19
BRANCH   1  31
ATOM     31  C   UNL     1      -5.113  12.687  23.439  0.00  0.00    +0.000 C 
ATOM     32  O   UNL     1      -4.217  12.177  24.101  0.00  0.00    +0.000 OA
BRANCH  31  34
ATOM     33  C   UNL     1      -7.285  13.148  24.200  0.00  0.00    +0.000 C 
ATOM     34  O   UNL     1      -6.417  12.256  23.491  0.00  0.00    +0.000 OA
ENDBRANCH  31  34
ENDBRANCH   1  31
TORSDOF 4
ENDMDL
MODEL 4
REMARK VINA RESULT:      -6.0      7.010     10.316
REMARK  Name = 
REMARK  6 active torsions:
REMARK  status: ('A' for Active; 'I' for Inactive)
REMARK    1  A    between atoms: C_1  and  O_2
REMARK    2  A    between atoms: O_2  and  C_3
REMARK    3  A    between atoms: C_3  and  C_5
REMARK    4  A    between atoms: C_19  and  N_20
REMARK    5  A    between atoms: C_21  and  C_23
REMARK    6  A    between atoms: C_28  and  C_29
REMARK                            x       y       z     vdW  Elec       q    Type
REMARK                         _______ _______ _______ _____ _____    ______ ____
ROOT
ATOM      1  C   UNL     1       5.830  13.037  25.618  0.00  0.00    +0.000 C 
ATOM      2  C   UNL     1       6.521  11.881  24.846  0.00  0.00    +0.000 C 
ATOM      3  S   UNL     1       8.231  12.202  24.259  0.00  0.00    +0.000 S 
ATOM      4  C   UNL     1       8.110  11.723  22.489  0.00  0.00    +0.000 C 
ATOM      5  C   UNL     1       9.121  12.479  21.644  0.00  0.00    +0.000 A 
ATOM      6  C   UNL     1      10.084  11.778  20.910  0.00  0.00    +0.000 A 
ATOM      7  C   UNL     1      11.061  12.458  20.177  0.00  0.00    +0.000 A 
ATOM      8  C   UNL     1      11.129  13.853  20.204  0.00  0.00    +0.000 A 
ATOM      9  C   UNL     1      10.159  14.582  20.884  0.00  0.00    +0.000 A 
ATOM     10  C   UNL     1       9.130  13.901  21.543  0.00  0.00    +0.000 A 
ATOM     11  C   UNL     1       7.890  14.627  21.851  0.00  0.00    +0.000 C 
ATOM     12  O   UNL     1       6.835  14.050  21.633  0.00  0.00    +0.000 OA
ATOM     13  O   UNL     1       8.059  15.877  22.334  0.00  0.00    +0.000 OA
ATOM     14  C   UNL     1       6.899  16.722  22.625  0.00  0.00    +0.000 C 
ATOM     15  C   UNL     1       5.583  16.029  23.103  0.00  0.00    +0.000 C 
ATOM     16  C   UNL     1       5.953  15.185  24.365  0.00  0.00    +0.000 C 
ATOM     17  N   UNL     1       5.126  14.035  24.729  0.00  0.00    +0.000 NA
ATOM     18  H   UNL     1       4.815  13.580  23.871  0.00  0.00    +0.000 HD
ENDROOT
BRANCH  15  19
ATOM     19  N   UNL     1       4.861  15.334  22.005  0.00  0.00    +0.000 N 
ATOM     20  C   UNL     1       3.485  15.332  21.979  0.00  0.00    +0.000 C 
ATOM     21  O   UNL     1       2.844  15.644  22.987  0.00  0.00    +0.000 OA
ATOM     22  H   UNL     1       5.287  15.468  21.085  0.00  0.00    +0.000 HD
BRANCH  20  23
ATOM     23  C   UNL     1       2.714  14.843  20.714  0.00  0.00    +0.000 C 
ATOM     24  C   UNL     1       2.621  13.315  20.652  0.00  0.00    +0.000 C 
ATOM     25  C   UNL     1       1.880  13.080  19.338  0.00  0.00    +0.000 C 
ATOM     26  C   UNL     1       2.396  14.189  18.428  0.00  0.00    +0.000 C 
ATOM     27  N   UNL     1       3.052  15.149  19.313  0.00  0.00    +0.000 N 
ATOM     28  C   UNL     1       3.397  16.426  18.906  0.00  0.00    +0.000 C 
ATOM     29  C   UNL     1       3.342  16.712  17.425  0.00  0.00    +0.000 C 
ATOM     30  O   UNL     1       3.779  17.282  19.704  0.00  0.00    +0.000 OA
ENDBRANCH  20  23
ENDBRANCH  15  19
BRANCH   1  31
ATOM     31  C   UNL     1       6.737  13.627  26.733  0.00  0.00    +0.000 C 
ATOM     32  O   UNL     1       7.957  13.730  26.713  0.00  0.00    +0.000 OA
BRANCH  31  34
ATOM     33  C   UNL     1       6.171  15.438  28.115  0.00  0.00    +0.000 C 
ATOM     34  O   UNL     1       5.969  14.059  27.788  0.00  0.00    +0.000 OA
ENDBRANCH  31  34
ENDBRANCH   1  31
TORSDOF 4
ENDMDL
MODEL 5
REMARK VINA RESULT:      -6.0      2.445      3.871
REMARK  Name = 
REMARK  6 active torsions:
REMARK  status: ('A' for Active; 'I' for Inactive)
REMARK    1  A    between atoms: C_1  and  O_2
REMARK    2  A    between atoms: O_2  and  C_3
REMARK    3  A    between atoms: C_3  and  C_5
REMARK    4  A    between atoms: C_19  and  N_20
REMARK    5  A    between atoms: C_21  and  C_23
REMARK    6  A    between atoms: C_28  and  C_29
REMARK                            x       y       z     vdW  Elec       q    Type
REMARK                         _______ _______ _______ _____ _____    ______ ____
ROOT
ATOM      1  C   UNL     1      -3.923  13.725  22.570  0.00  0.00    +0.000 C 
ATOM      2  C   UNL     1      -4.679  13.875  21.222  0.00  0.00    +0.000 C 
ATOM      3  S   UNL     1      -4.880  12.344  20.228  0.00  0.00    +0.000 S 
ATOM      4  C   UNL     1      -4.269  12.889  18.583  0.00  0.00    +0.000 C 
ATOM      5  C   UNL     1      -3.713  11.720  17.787  0.00  0.00    +0.000 A 
ATOM      6  C   UNL     1      -4.270  11.389  16.548  0.00  0.00    +0.000 A 
ATOM      7  C   UNL     1      -3.814  10.278  15.831  0.00  0.00    +0.000 A 
ATOM      8  C   UNL     1      -2.826   9.445  16.362  0.00  0.00    +0.000 A 
ATOM      9  C   UNL     1      -2.217   9.773  17.570  0.00  0.00    +0.000 A 
ATOM     10  C   UNL     1      -2.614  10.934  18.241  0.00  0.00    +0.000 A 
ATOM     11  C   UNL     1      -1.699  11.523  19.228  0.00  0.00    +0.000 C 
ATOM     12  O   UNL     1      -1.555  12.736  19.203  0.00  0.00    +0.000 OA
ATOM     13  O   UNL     1      -1.097  10.642  20.055  0.00  0.00    +0.000 OA
ATOM     14  C   UNL     1      -0.120  11.101  21.044  0.00  0.00    +0.000 C 
ATOM     15  C   UNL     1      -0.308  12.524  21.662  0.00  0.00    +0.000 C 
ATOM     16  C   UNL     1      -1.743  12.558  22.279  0.00  0.00    +0.000 C 
ATOM     17  N   UNL     1      -2.421  13.842  22.448  0.00  0.00    +0.000 NA
ATOM     18  H   UNL     1      -2.181  14.439  21.657  0.00  0.00    +0.000 HD
ENDROOT
BRANCH  15  19
ATOM     19  N   UNL     1       0.058  13.616  20.723  0.00  0.00    +0.000 N 
ATOM     20  C   UNL     1       1.382  13.921  20.503  0.00  0.00    +0.000 C 
ATOM     21  O   UNL     1       2.252  13.504  21.275  0.00  0.00    +0.000 OA
ATOM     22  H   UNL     1      -0.512  13.636  19.874  0.00  0.00    +0.000 HD
BRANCH  20  23
ATOM     23  C   UNL     1       1.797  14.874  19.340  0.00  0.00    +0.000 C 
ATOM     24  C   UNL     1       3.117  14.446  18.688  0.00  0.00    +0.000 C 
ATOM     25  C   UNL     1       3.332  15.527  17.633  0.00  0.00    +0.000 C 
ATOM     26  C   UNL     1       2.789  16.790  18.291  0.00  0.00    +0.000 C 
ATOM     27  N   UNL     1       2.004  16.329  19.435  0.00  0.00    +0.000 N 
ATOM     28  C   UNL     1       1.121  17.151  20.115  0.00  0.00    +0.000 C 
ATOM     29  C   UNL     1       1.202  18.630  19.828  0.00  0.00    +0.000 C 
ATOM     30  O   UNL     1       0.335  16.708  20.952  0.00  0.00    +0.000 OA
ENDBRANCH  20  23
ENDBRANCH  15  19
BRANCH   1  31
ATOM     31  C   UNL     1      -4.455  12.536  23.417  0.00  0.00    +0.000 C 
ATOM     32  O   UNL     1      -3.829  11.881  24.241  0.00  0.00    +0.000 OA
BRANCH  31  34
ATOM     33  C   UNL     1      -6.671  12.776  24.148  0.00  0.00    +0.000 C 
ATOM     34  O   UNL     1      -5.779  12.307  23.131  0.00  0.00    +0.000 OA
ENDBRANCH  31  34
ENDBRANCH   1  31
TORSDOF 4
ENDMDL
MODEL 6
REMARK VINA RESULT:      -5.9      2.553      3.468
REMARK  Name = 
REMARK  6 active torsions:
REMARK  status: ('A' for Active; 'I' for Inactive)
REMARK    1  A    between atoms: C_1  and  O_2
REMARK    2  A    between atoms: O_2  and  C_3
REMARK    3  A    between atoms: C_3  and  C_5
REMARK    4  A    between atoms: C_19  and  N_20
REMARK    5  A    between atoms: C_21  and  C_23
REMARK    6  A    between atoms: C_28  and  C_29
REMARK                            x       y       z     vdW  Elec       q    Type
REMARK                         _______ _______ _______ _____ _____    ______ ____
ROOT
ATOM      1  C   UNL     1      -4.346  14.104  22.984  0.00  0.00    +0.000 C 
ATOM      2  C   UNL     1      -5.052  14.118  21.601  0.00  0.00    +0.000 C 
ATOM      3  S   UNL     1      -5.055  12.533  20.673  0.00  0.00    +0.000 S 
ATOM      4  C   UNL     1      -4.428  13.066  19.030  0.00  0.00    +0.000 C 
ATOM      5  C   UNL     1      -3.723  11.926  18.314  0.00  0.00    +0.000 A 
ATOM      6  C   UNL     1      -4.189  11.487  17.070  0.00  0.00    +0.000 A 
ATOM      7  C   UNL     1      -3.592  10.398  16.426  0.00  0.00    +0.000 A 
ATOM      8  C   UNL     1      -2.552   9.693  17.036  0.00  0.00    +0.000 A 
ATOM      9  C   UNL     1      -2.033  10.133  18.250  0.00  0.00    +0.000 A 
ATOM     10  C   UNL     1      -2.573  11.276  18.849  0.00  0.00    +0.000 A 
ATOM     11  C   UNL     1      -1.767  11.996  19.843  0.00  0.00    +0.000 C 
ATOM     12  O   UNL     1      -1.743  13.215  19.766  0.00  0.00    +0.000 OA
ATOM     13  O   UNL     1      -1.119  11.216  20.735  0.00  0.00    +0.000 OA
ATOM     14  C   UNL     1      -0.237  11.814  21.740  0.00  0.00    +0.000 C 
ATOM     15  C   UNL     1      -0.593  13.236  22.281  0.00  0.00    +0.000 C 
ATOM     16  C   UNL     1      -2.051  13.152  22.838  0.00  0.00    +0.000 C 
ATOM     17  N   UNL     1      -2.860  14.367  22.918  0.00  0.00    +0.000 NA
ATOM     18  H   UNL     1      -2.644  14.950  22.110  0.00  0.00    +0.000 HD
ENDROOT
BRANCH  15  19
ATOM     19  N   UNL     1      -0.295  14.318  21.307  0.00  0.00    +0.000 N 
ATOM     20  C   UNL     1       0.702  15.229  21.574  0.00  0.00    +0.000 C 
ATOM     21  O   UNL     1       1.154  15.338  22.718  0.00  0.00    +0.000 OA
ATOM     22  H   UNL     1      -0.318  14.011  20.332  0.00  0.00    +0.000 HD
BRANCH  20  23
ATOM     23  C   UNL     1       1.206  16.204  20.465  0.00  0.00    +0.000 C 
ATOM     24  C   UNL     1       0.078  17.084  19.916  0.00  0.00    +0.000 C 
ATOM     25  C   UNL     1       0.789  17.903  18.842  0.00  0.00    +0.000 C 
ATOM     26  C   UNL     1       1.807  16.930  18.259  0.00  0.00    +0.000 C 
ATOM     27  N   UNL     1       1.885  15.826  19.213  0.00  0.00    +0.000 N 
ATOM     28  C   UNL     1       2.901  14.885  19.187  0.00  0.00    +0.000 C 
ATOM     29  C   UNL     1       3.777  14.857  17.959  0.00  0.00    +0.000 C 
ATOM     30  O   UNL     1       3.059  14.074  20.099  0.00  0.00    +0.000 OA
ENDBRANCH  20  23
ENDBRANCH  15  19
BRANCH   1  31
ATOM     31  C   UNL     1      -4.796  12.905  23.864  0.00  0.00    +0.000 C 
ATOM     32  O   UNL     1      -4.162  11.883  24.095  0.00  0.00    +0.000 OA
BRANCH  31  34
ATOM     33  C   UNL     1      -7.049  12.251  23.913  0.00  0.00    +0.000 C 
ATOM     34  O   UNL     1      -6.041  13.147  24.393  0.00  0.00    +0.000 OA
ENDBRANCH  31  34
ENDBRANCH   1  31
TORSDOF 4
ENDMDL
MODEL 7
REMARK VINA RESULT:      -5.9      1.181      1.422
REMARK  Name = 
REMARK  6 active torsions:
REMARK  status: ('A' for Active; 'I' for Inactive)
REMARK    1  A    between atoms: C_1  and  O_2
REMARK    2  A    between atoms: O_2  and  C_3
REMARK    3  A    between atoms: C_3  and  C_5
REMARK    4  A    between atoms: C_19  and  N_20
REMARK    5  A    between atoms: C_21  and  C_23
REMARK    6  A    between atoms: C_28  and  C_29
REMARK                            x       y       z     vdW  Elec       q    Type
REMARK                         _______ _______ _______ _____ _____    ______ ____
ROOT
ATOM      1  C   UNL     1      -5.206  12.366  18.853  0.00  0.00    +0.000 C 
ATOM      2  C   UNL     1      -4.216  11.889  17.755  0.00  0.00    +0.000 C 
ATOM      3  S   UNL     1      -3.186  10.426  18.169  0.00  0.00    +0.000 S 
ATOM      4  C   UNL     1      -1.502  11.030  17.752  0.00  0.00    +0.000 C 
ATOM      5  C   UNL     1      -0.442  10.323  18.580  0.00  0.00    +0.000 A 
ATOM      6  C   UNL     1       0.566   9.587  17.946  0.00  0.00    +0.000 A 
ATOM      7  C   UNL     1       1.511   8.878  18.693  0.00  0.00    +0.000 A 
ATOM      8  C   UNL     1       1.439   8.846  20.088  0.00  0.00    +0.000 A 
ATOM      9  C   UNL     1       0.478   9.605  20.751  0.00  0.00    +0.000 A 
ATOM     10  C   UNL     1      -0.411  10.385  20.003  0.00  0.00    +0.000 A 
ATOM     11  C   UNL     1      -1.090  11.506  20.665  0.00  0.00    +0.000 C 
ATOM     12  O   UNL     1      -1.151  12.562  20.054  0.00  0.00    +0.000 OA
ATOM     13  O   UNL     1      -1.564  11.244  21.902  0.00  0.00    +0.000 OA
ATOM     14  C   UNL     1      -2.211  12.298  22.687  0.00  0.00    +0.000 C 
ATOM     15  C   UNL     1      -3.008  13.403  21.923  0.00  0.00    +0.000 C 
ATOM     16  C   UNL     1      -4.072  12.666  21.049  0.00  0.00    +0.000 C 
ATOM     17  N   UNL     1      -4.599  13.322  19.853  0.00  0.00    +0.000 NA
ATOM     18  H   UNL     1      -3.844  13.850  19.418  0.00  0.00    +0.000 HD
ENDROOT
BRANCH  15  19
ATOM     19  N   UNL     1      -2.126  14.387  21.241  0.00  0.00    +0.000 N 
ATOM     20  C   UNL     1      -1.711  15.518  21.906  0.00  0.00    +0.000 C 
ATOM     21  O   UNL     1      -2.279  15.870  22.945  0.00  0.00    +0.000 OA
ATOM     22  H   UNL     1      -1.394  13.956  20.671  0.00  0.00    +0.000 HD
BRANCH  20  23
ATOM     23  C   UNL     1      -0.587  16.423  21.313  0.00  0.00    +0.000 C 
ATOM     24  C   UNL     1      -1.099  17.293  20.161  0.00  0.00    +0.000 C 
ATOM     25  C   UNL     1       0.159  18.041  19.726  0.00  0.00    +0.000 C 
ATOM     26  C   UNL     1       1.273  17.020  19.922  0.00  0.00    +0.000 C 
ATOM     27  N   UNL     1       0.698  15.967  20.756  0.00  0.00    +0.000 N 
ATOM     28  C   UNL     1       1.471  15.008  21.388  0.00  0.00    +0.000 C 
ATOM     29  C   UNL     1       2.913  14.899  20.960  0.00  0.00    +0.000 C 
ATOM     30  O   UNL     1       0.998  14.243  22.229  0.00  0.00    +0.000 OA
ENDBRANCH  20  23
ENDBRANCH  15  19
BRANCH   1  31
ATOM     31  C   UNL     1      -6.046  11.197  19.438  0.00  0.00    +0.000 C 
ATOM     32  O   UNL     1      -6.414  10.188  18.850  0.00  0.00    +0.000 OA
BRANCH  31  34
ATOM     33  C   UNL     1      -7.721  11.613  21.029  0.00  0.00    +0.000 C 
ATOM     34  O   UNL     1      -6.326  11.433  20.763  0.00  0.00    +0.000 OA
ENDBRANCH  31  34
ENDBRANCH   1  31
TORSDOF 4
ENDMDL
MODEL 8
REMARK VINA RESULT:      -5.9      2.585      7.399
REMARK  Name = 
REMARK  6 active torsions:
REMARK  status: ('A' for Active; 'I' for Inactive)
REMARK    1  A    between atoms: C_1  and  O_2
REMARK    2  A    between atoms: O_2  and  C_3
REMARK    3  A    between atoms: C_3  and  C_5
REMARK    4  A    between atoms: C_19  and  N_20
REMARK    5  A    between atoms: C_21  and  C_23
REMARK    6  A    between atoms: C_28  and  C_29
REMARK                            x       y       z     vdW  Elec       q    Type
REMARK                         _______ _______ _______ _____ _____    ______ ____
ROOT
ATOM      1  C   UNL     1       0.084  15.420  18.490  0.00  0.00    +0.000 C 
ATOM      2  C   UNL     1      -0.622  16.641  19.139  0.00  0.00    +0.000 C 
ATOM      3  S   UNL     1      -0.506  16.769  20.968  0.00  0.00    +0.000 S 
ATOM      4  C   UNL     1      -2.267  17.009  21.433  0.00  0.00    +0.000 C 
ATOM      5  C   UNL     1      -2.541  16.495  22.836  0.00  0.00    +0.000 A 
ATOM      6  C   UNL     1      -3.025  17.366  23.819  0.00  0.00    +0.000 A 
ATOM      7  C   UNL     1      -3.222  16.926  25.131  0.00  0.00    +0.000 A 
ATOM      8  C   UNL     1      -2.891  15.621  25.502  0.00  0.00    +0.000 A 
ATOM      9  C   UNL     1      -2.453  14.716  24.540  0.00  0.00    +0.000 A 
ATOM     10  C   UNL     1      -2.342  15.134  23.210  0.00  0.00    +0.000 A 
ATOM     11  C   UNL     1      -2.338  14.117  22.151  0.00  0.00    +0.000 C 
ATOM     12  O   UNL     1      -3.018  14.338  21.160  0.00  0.00    +0.000 OA
ATOM     13  O   UNL     1      -1.583  13.025  22.402  0.00  0.00    +0.000 OA
ATOM     14  C   UNL     1      -1.543  11.915  21.447  0.00  0.00    +0.000 C 
ATOM     15  C   UNL     1      -1.698  12.243  19.928  0.00  0.00    +0.000 C 
ATOM     16  C   UNL     1      -0.586  13.283  19.577  0.00  0.00    +0.000 C 
ATOM     17  N   UNL     1      -0.771  14.175  18.434  0.00  0.00    +0.000 NA
ATOM     18  H   UNL     1      -1.756  14.430  18.383  0.00  0.00    +0.000 HD
ENDROOT
BRANCH  15  19
ATOM     19  N   UNL     1      -3.095  12.583  19.547  0.00  0.00    +0.000 N 
ATOM     20  C   UNL     1      -3.827  11.714  18.771  0.00  0.00    +0.000 C 
ATOM     21  O   UNL     1      -3.263  10.806  18.153  0.00  0.00    +0.000 OA
ATOM     22  H   UNL     1      -3.634  13.009  20.305  0.00  0.00    +0.000 HD
BRANCH  20  23
ATOM     23  C   UNL     1      -5.362  11.920  18.579  0.00  0.00    +0.000 C 
ATOM     24  C   UNL     1      -5.687  12.626  17.258  0.00  0.00    +0.000 C 
ATOM     25  C   UNL     1      -7.207  12.750  17.313  0.00  0.00    +0.000 C 
ATOM     26  C   UNL     1      -7.497  12.992  18.790  0.00  0.00    +0.000 C 
ATOM     27  N   UNL     1      -6.268  12.633  19.495  0.00  0.00    +0.000 N 
ATOM     28  C   UNL     1      -6.221  12.444  20.866  0.00  0.00    +0.000 C 
ATOM     29  C   UNL     1      -7.416  12.905  21.663  0.00  0.00    +0.000 C 
ATOM     30  O   UNL     1      -5.232  11.967  21.422  0.00  0.00    +0.000 OA
ENDBRANCH  20  23
ENDBRANCH  15  19
BRANCH   1  31
ATOM     31  C   UNL     1       1.538  15.235  19.005  0.00  0.00    +0.000 C 
ATOM     32  O   UNL     1       1.921  14.450  19.864  0.00  0.00    +0.000 OA
BRANCH  31  34
ATOM     33  C   UNL     1       3.630  15.473  17.968  0.00  0.00    +0.000 C 
ATOM     34  O   UNL     1       2.388  16.083  18.337  0.00  0.00    +0.000 OA
ENDBRANCH  31  34
ENDBRANCH   1  31
TORSDOF 4
ENDMDL
MODEL 9
REMARK VINA RESULT:      -5.9      2.628      7.717
REMARK  Name = 
REMARK  6 active torsions:
REMARK  status: ('A' for Active; 'I' for Inactive)
REMARK    1  A    between atoms: C_1  and  O_2
REMARK    2  A    between atoms: O_2  and  C_3
REMARK    3  A    between atoms: C_3  and  C_5
REMARK    4  A    between atoms: C_19  and  N_20
REMARK    5  A    between atoms: C_21  and  C_23
REMARK    6  A    between atoms: C_28  and  C_29
REMARK                            x       y       z     vdW  Elec       q    Type
REMARK                         _______ _______ _______ _____ _____    ______ ____
ROOT
ATOM      1  C   UNL     1       3.037  14.011  19.307  0.00  0.00    +0.000 C 
ATOM      2  C   UNL     1       2.436  15.177  18.477  0.00  0.00    +0.000 C 
ATOM      3  S   UNL     1       1.517  16.458  19.420  0.00  0.00    +0.000 S 
ATOM      4  C   UNL     1      -0.058  16.551  18.479  0.00  0.00    +0.000 C 
ATOM      5  C   UNL     1      -1.205  17.001  19.368  0.00  0.00    +0.000 A 
ATOM      6  C   UNL     1      -1.915  18.166  19.058  0.00  0.00    +0.000 A 
ATOM      7  C   UNL     1      -2.931  18.630  19.899  0.00  0.00    +0.000 A 
ATOM      8  C   UNL     1      -3.224  17.968  21.094  0.00  0.00    +0.000 A 
ATOM      9  C   UNL     1      -2.570  16.781  21.408  0.00  0.00    +0.000 A 
ATOM     10  C   UNL     1      -1.617  16.271  20.521  0.00  0.00    +0.000 A 
ATOM     11  C   UNL     1      -1.276  14.844  20.598  0.00  0.00    +0.000 C 
ATOM     12  O   UNL     1      -1.183  14.233  19.544  0.00  0.00    +0.000 OA
ATOM     13  O   UNL     1      -1.115  14.357  21.848  0.00  0.00    +0.000 OA
ATOM     14  C   UNL     1      -0.829  12.936  22.058  0.00  0.00    +0.000 C 
ATOM     15  C   UNL     1       0.001  12.182  20.971  0.00  0.00    +0.000 C 
ATOM     16  C   UNL     1       1.339  12.971  20.801  0.00  0.00    +0.000 C 
ATOM     17  N   UNL     1       2.079  12.868  19.544  0.00  0.00    +0.000 NA
ATOM     18  H   UNL     1       1.407  12.812  18.780  0.00  0.00    +0.000 HD
ENDROOT
BRANCH  15  19
ATOM     19  N   UNL     1      -0.782  11.891  19.741  0.00  0.00    +0.000 N 
ATOM     20  C   UNL     1      -1.194  10.605  19.476  0.00  0.00    +0.000 C 
ATOM     21  O   UNL     1      -0.691   9.653  20.081  0.00  0.00    +0.000 OA
ATOM     22  H   UNL     1      -1.488  12.599  19.527  0.00  0.00    +0.000 HD
BRANCH  20  23
ATOM     23  C   UNL     1      -2.228  10.319  18.343  0.00  0.00    +0.000 C 
ATOM     24  C   UNL     1      -1.547   9.998  17.009  0.00  0.00    +0.000 C 
ATOM     25  C   UNL     1      -2.732   9.802  16.068  0.00  0.00    +0.000 C 
ATOM     26  C   UNL     1      -3.758  10.815  16.563  0.00  0.00    +0.000 C 
ATOM     27  N   UNL     1      -3.297  11.226  17.887  0.00  0.00    +0.000 N 
ATOM     28  C   UNL     1      -4.101  11.916  18.778  0.00  0.00    +0.000 C 
ATOM     29  C   UNL     1      -5.385  12.494  18.237  0.00  0.00    +0.000 C 
ATOM     30  O   UNL     1      -3.768  12.095  19.950  0.00  0.00    +0.000 OA
ENDBRANCH  20  23
ENDBRANCH  15  19
BRANCH   1  31
ATOM     31  C   UNL     1       3.829  14.514  20.546  0.00  0.00    +0.000 C 
ATOM     32  O   UNL     1       3.644  14.201  21.715  0.00  0.00    +0.000 OA
BRANCH  31  34
ATOM     33  C   UNL     1       5.287  16.231  21.207  0.00  0.00    +0.000 C 
ATOM     34  O   UNL     1       4.822  15.380  20.153  0.00  0.00    +0.000 OA
ENDBRANCH  31  34
ENDBRANCH   1  31
TORSDOF 4
ENDMDL
