MODEL 1
REMARK VINA RESULT:      -7.4      0.000      0.000
REMARK  Name = 
REMARK  13 active torsions:
REMARK  status: ('A' for Active; 'I' for Inactive)
REMARK    1  A    between atoms: C_1  and  C_2
REMARK    2  A    between atoms: C_2  and  O_3
REMARK    3  A    between atoms: O_3  and  C_4
REMARK    4  A    between atoms: C_4  and  C_6
REMARK    5  A    between atoms: C_9  and  C_10
REMARK    6  A    between atoms: C_10  and  O_11
REMARK    7  A    between atoms: O_11  and  C_12
REMARK    8  A    between atoms: C_12  and  C_14
REMARK    9  A    between atoms: C_14  and  N_15
REMARK   10  A    between atoms: C_16  and  C_18
REMARK   11  A    between atoms: C_18  and  N_19
REMARK   12  A    between atoms: C_20  and  C_22
REMARK   13  A    between atoms: C_22  and  C_23
REMARK                            x       y       z     vdW  Elec       q    Type
REMARK                         _______ _______ _______ _____ _____    ______ ____
ROOT
ATOM      1  C   UNL     1       6.878   7.057  17.414  0.00  0.00    +0.000 C 
ENDROOT
BRANCH   1   2
ATOM      2  N   UNL     1       6.276   5.832  16.914  0.00  0.00    +0.000 N 
ATOM      3  C   UNL     1       6.749   5.247  15.751  0.00  0.00    +0.000 C 
ATOM      4  O   UNL     1       7.735   5.659  15.155  0.00  0.00    +0.000 OA
ATOM      5  H   UNL     1       5.661   5.286  17.513  0.00  0.00    +0.000 HD
BRANCH   3   6
ATOM      6  C   UNL     1       5.982   4.008  15.301  0.00  0.00    +0.000 C 
BRANCH   6   7
ATOM      7  N   UNL     1       5.568   3.202  16.416  0.00  0.00    +0.000 N 
ATOM      8  C   UNL     1       4.279   3.334  16.899  0.00  0.00    +0.000 C 
ATOM      9  O   UNL     1       3.486   4.136  16.421  0.00  0.00    +0.000 OA
ATOM     10  H   UNL     1       6.274   2.799  17.027  0.00  0.00    +0.000 HD
BRANCH   8  11
ATOM     11  C   UNL     1       3.926   2.422  18.049  0.00  0.00    +0.000 C 
BRANCH  11  12
ATOM     12  C   UNL     1       3.123   3.067  19.133  0.00  0.00    +0.000 A 
ATOM     13  C   UNL     1       3.429   4.348  19.609  0.00  0.00    +0.000 A 
ATOM     14  C   UNL     1       2.546   4.995  20.450  0.00  0.00    +0.000 A 
ATOM     15  C   UNL     1       1.373   4.377  20.849  0.00  0.00    +0.000 A 
ATOM     16  C   UNL     1       1.077   3.097  20.392  0.00  0.00    +0.000 A 
ATOM     17  C   UNL     1       1.952   2.437  19.552  0.00  0.00    +0.000 A 
ENDBRANCH  11  12
ENDBRANCH   8  11
ENDBRANCH   6   7
ENDBRANCH   3   6
ENDBRANCH   1   2
BRANCH   1  18
ATOM     18  C   UNL     1       7.913   6.829  18.507  0.00  0.00    +0.000 C 
ATOM     19  O   UNL     1       8.142   5.732  19.003  0.00  0.00    +0.000 OA
BRANCH  18  20
ATOM     20  O   UNL     1       8.558   7.987  18.812  0.00  0.00    +0.000 OA
BRANCH  20  21
ATOM     21  C   UNL     1       8.315   9.127  17.967  0.00  0.00    +0.000 C 
BRANCH  21  25
ATOM     22  C   UNL     1       9.911  12.861  19.549  0.00  0.00    +0.000 A 
ATOM     23  C   UNL     1      10.150  11.649  20.216  0.00  0.00    +0.000 A 
ATOM     24  C   UNL     1       9.676  10.432  19.703  0.00  0.00    +0.000 A 
ATOM     25  C   UNL     1       8.944  10.397  18.498  0.00  0.00    +0.000 A 
ATOM     26  C   UNL     1       8.793  11.604  17.789  0.00  0.00    +0.000 A 
ATOM     27  C   UNL     1       9.262  12.821  18.306  0.00  0.00    +0.000 A 
BRANCH  22  28
ATOM     28  C   UNL     1      10.235  14.148  20.250  0.00  0.00    +0.000 C 
ATOM     29  O   UNL     1      10.202  14.281  21.463  0.00  0.00    +0.000 OA
BRANCH  28  30
ATOM     30  O   UNL     1      10.465  15.147  19.351  0.00  0.00    +0.000 OA
BRANCH  30  32
ATOM     31  C   UNL     1      12.333  16.631  19.789  0.00  0.00    +0.000 C 
ATOM     32  C   UNL     1      10.833  16.441  19.875  0.00  0.00    +0.000 C 
ENDBRANCH  30  32
ENDBRANCH  28  30
ENDBRANCH  22  28
ENDBRANCH  21  25
ENDBRANCH  20  21
ENDBRANCH  18  20
ENDBRANCH   1  18
TORSDOF 12
ENDMDL
MODEL 2
REMARK VINA RESULT:      -7.3      5.943      8.164
REMARK  Name = 
REMARK  13 active torsions:
REMARK  status: ('A' for Active; 'I' for Inactive)
REMARK    1  A    between atoms: C_1  and  C_2
REMARK    2  A    between atoms: C_2  and  O_3
REMARK    3  A    between atoms: O_3  and  C_4
REMARK    4  A    between atoms: C_4  and  C_6
REMARK    5  A    between atoms: C_9  and  C_10
REMARK    6  A    between atoms: C_10  and  O_11
REMARK    7  A    between atoms: O_11  and  C_12
REMARK    8  A    between atoms: C_12  and  C_14
REMARK    9  A    between atoms: C_14  and  N_15
REMARK   10  A    between atoms: C_16  and  C_18
REMARK   11  A    between atoms: C_18  and  N_19
REMARK   12  A    between atoms: C_20  and  C_22
REMARK   13  A    between atoms: C_22  and  C_23
REMARK                            x       y       z     vdW  Elec       q    Type
REMARK                         _______ _______ _______ _____ _____    ______ ____
ROOT
ATOM      1  C   UNL     1       4.234   2.134  19.555  0.00  0.00    +0.000 C 
ENDROOT
BRANCH   1   2
ATOM      2  N   UNL     1       5.123   3.188  19.097  0.00  0.00    +0.000 N 
ATOM      3  C   UNL     1       5.005   3.691  17.812  0.00  0.00    +0.000 C 
ATOM      4  O   UNL     1       4.108   3.359  17.050  0.00  0.00    +0.000 OA
ATOM      5  H   UNL     1       5.686   3.707  19.768  0.00  0.00    +0.000 HD
BRANCH   3   6
ATOM      6  C   UNL     1       6.046   4.742  17.438  0.00  0.00    +0.000 C 
BRANCH   6   7
ATOM      7  N   UNL     1       6.660   4.459  16.170  0.00  0.00    +0.000 N 
ATOM      8  C   UNL     1       6.363   5.265  15.086  0.00  0.00    +0.000 C 
ATOM      9  O   UNL     1       5.573   6.198  15.168  0.00  0.00    +0.000 OA
ATOM     10  H   UNL     1       7.030   3.529  15.994  0.00  0.00    +0.000 HD
BRANCH   8  11
ATOM     11  C   UNL     1       7.082   4.912  13.806  0.00  0.00    +0.000 C 
BRANCH  11  12
ATOM     12  C   UNL     1       6.386   3.890  12.962  0.00  0.00    +0.000 A 
ATOM     13  C   UNL     1       5.009   3.953  12.722  0.00  0.00    +0.000 A 
ATOM     14  C   UNL     1       4.441   3.127  11.772  0.00  0.00    +0.000 A 
ATOM     15  C   UNL     1       5.220   2.218  11.075  0.00  0.00    +0.000 A 
ATOM     16  C   UNL     1       6.586   2.142  11.326  0.00  0.00    +0.000 A 
ATOM     17  C   UNL     1       7.165   2.961  12.275  0.00  0.00    +0.000 A 
ENDBRANCH  11  12
ENDBRANCH   8  11
ENDBRANCH   6   7
ENDBRANCH   3   6
ENDBRANCH   1   2
BRANCH   1  18
ATOM     18  C   UNL     1       2.837   2.623  19.910  0.00  0.00    +0.000 C 
ATOM     19  O   UNL     1       1.810   2.112  19.479  0.00  0.00    +0.000 OA
BRANCH  18  20
ATOM     20  O   UNL     1       2.897   3.661  20.789  0.00  0.00    +0.000 OA
BRANCH  20  21
ATOM     21  C   UNL     1       1.709   4.456  20.962  0.00  0.00    +0.000 C 
BRANCH  21  25
ATOM     22  C   UNL     1       1.935   8.417  19.158  0.00  0.00    +0.000 A 
ATOM     23  C   UNL     1       1.446   8.260  20.464  0.00  0.00    +0.000 A 
ATOM     24  C   UNL     1       1.400   6.997  21.076  0.00  0.00    +0.000 A 
ATOM     25  C   UNL     1       1.846   5.850  20.388  0.00  0.00    +0.000 A 
ATOM     26  C   UNL     1       2.422   6.032  19.117  0.00  0.00    +0.000 A 
ATOM     27  C   UNL     1       2.463   7.293  18.505  0.00  0.00    +0.000 A 
BRANCH  22  28
ATOM     28  C   UNL     1       1.750   9.738  18.471  0.00  0.00    +0.000 C 
ATOM     29  O   UNL     1       2.151   9.972  17.341  0.00  0.00    +0.000 OA
BRANCH  28  30
ATOM     30  O   UNL     1       1.176  10.647  19.309  0.00  0.00    +0.000 OA
BRANCH  30  32
ATOM     31  C   UNL     1      -1.217  11.013  19.465  0.00  0.00    +0.000 C 
ATOM     32  C   UNL     1       0.076  11.426  18.793  0.00  0.00    +0.000 C 
ENDBRANCH  30  32
ENDBRANCH  28  30
ENDBRANCH  22  28
ENDBRANCH  21  25
ENDBRANCH  20  21
ENDBRANCH  18  20
ENDBRANCH   1  18
TORSDOF 12
ENDMDL
MODEL 3
REMARK VINA RESULT:      -7.3      6.075      8.437
REMARK  Name = 
REMARK  13 active torsions:
REMARK  status: ('A' for Active; 'I' for Inactive)
REMARK    1  A    between atoms: C_1  and  C_2
REMARK    2  A    between atoms: C_2  and  O_3
REMARK    3  A    between atoms: O_3  and  C_4
REMARK    4  A    between atoms: C_4  and  C_6
REMARK    5  A    between atoms: C_9  and  C_10
REMARK    6  A    between atoms: C_10  and  O_11
REMARK    7  A    between atoms: O_11  and  C_12
REMARK    8  A    between atoms: C_12  and  C_14
REMARK    9  A    between atoms: C_14  and  N_15
REMARK   10  A    between atoms: C_16  and  C_18
REMARK   11  A    between atoms: C_18  and  N_19
REMARK   12  A    between atoms: C_20  and  C_22
REMARK   13  A    between atoms: C_22  and  C_23
REMARK                            x       y       z     vdW  Elec       q    Type
REMARK                         _______ _______ _______ _____ _____    ______ ____
ROOT
ATOM      1  C   UNL     1       4.308   3.863  19.254  0.00  0.00    +0.000 C 
ENDROOT
BRANCH   1   2
ATOM      2  N   UNL     1       5.224   3.661  18.144  0.00  0.00    +0.000 N 
ATOM      3  C   UNL     1       6.185   4.615  17.850  0.00  0.00    +0.000 C 
ATOM      4  O   UNL     1       6.377   5.599  18.550  0.00  0.00    +0.000 OA
ATOM      5  H   UNL     1       5.310   2.743  17.715  0.00  0.00    +0.000 HD
BRANCH   3   6
ATOM      6  C   UNL     1       7.031   4.311  16.618  0.00  0.00    +0.000 C 
BRANCH   6   7
ATOM      7  N   UNL     1       6.227   3.861  15.515  0.00  0.00    +0.000 N 
ATOM      8  C   UNL     1       5.825   4.776  14.560  0.00  0.00    +0.000 C 
ATOM      9  O   UNL     1       6.112   5.965  14.637  0.00  0.00    +0.000 OA
ATOM     10  H   UNL     1       5.705   2.993  15.603  0.00  0.00    +0.000 HD
BRANCH   8  11
ATOM     11  C   UNL     1       5.014   4.204  13.422  0.00  0.00    +0.000 C 
BRANCH  11  12
ATOM     12  C   UNL     1       5.807   3.426  12.420  0.00  0.00    +0.000 A 
ATOM     13  C   UNL     1       7.161   3.694  12.188  0.00  0.00    +0.000 A 
ATOM     14  C   UNL     1       7.910   2.824  11.421  0.00  0.00    +0.000 A 
ATOM     15  C   UNL     1       7.326   1.704  10.856  0.00  0.00    +0.000 A 
ATOM     16  C   UNL     1       5.976   1.446  11.070  0.00  0.00    +0.000 A 
ATOM     17  C   UNL     1       5.215   2.309  11.833  0.00  0.00    +0.000 A 
ENDBRANCH  11  12
ENDBRANCH   8  11
ENDBRANCH   6   7
ENDBRANCH   3   6
ENDBRANCH   1   2
BRANCH   1  18
ATOM     18  C   UNL     1       2.840   3.785  18.857  0.00  0.00    +0.000 C 
ATOM     19  O   UNL     1       2.253   2.732  18.638  0.00  0.00    +0.000 OA
BRANCH  18  20
ATOM     20  O   UNL     1       2.281   5.025  18.823  0.00  0.00    +0.000 OA
BRANCH  20  21
ATOM     21  C   UNL     1       2.849   6.034  19.678  0.00  0.00    +0.000 C 
BRANCH  21  25
ATOM     22  C   UNL     1       0.846   9.846  19.003  0.00  0.00    +0.000 A 
ATOM     23  C   UNL     1       0.908   9.296  20.294  0.00  0.00    +0.000 A 
ATOM     24  C   UNL     1       1.580   8.089  20.537  0.00  0.00    +0.000 A 
ATOM     25  C   UNL     1       2.212   7.395  19.486  0.00  0.00    +0.000 A 
ATOM     26  C   UNL     1       2.226   8.001  18.216  0.00  0.00    +0.000 A 
ATOM     27  C   UNL     1       1.548   9.205  17.972  0.00  0.00    +0.000 A 
BRANCH  22  28
ATOM     28  C   UNL     1      -0.073  11.007  18.756  0.00  0.00    +0.000 C 
ATOM     29  O   UNL     1       0.321  12.142  18.536  0.00  0.00    +0.000 OA
BRANCH  28  30
ATOM     30  O   UNL     1      -1.376  10.639  18.910  0.00  0.00    +0.000 OA
BRANCH  30  32
ATOM     31  C   UNL     1      -2.319   9.943  16.786  0.00  0.00    +0.000 C 
ATOM     32  C   UNL     1      -2.300  11.007  17.864  0.00  0.00    +0.000 C 
ENDBRANCH  30  32
ENDBRANCH  28  30
ENDBRANCH  22  28
ENDBRANCH  21  25
ENDBRANCH  20  21
ENDBRANCH  18  20
ENDBRANCH   1  18
TORSDOF 12
ENDMDL
MODEL 4
REMARK VINA RESULT:      -7.1      6.326      9.410
REMARK  Name = 
REMARK  13 active torsions:
REMARK  status: ('A' for Active; 'I' for Inactive)
REMARK    1  A    between atoms: C_1  and  C_2
REMARK    2  A    between atoms: C_2  and  O_3
REMARK    3  A    between atoms: O_3  and  C_4
REMARK    4  A    between atoms: C_4  and  C_6
REMARK    5  A    between atoms: C_9  and  C_10
REMARK    6  A    between atoms: C_10  and  O_11
REMARK    7  A    between atoms: O_11  and  C_12
REMARK    8  A    between atoms: C_12  and  C_14
REMARK    9  A    between atoms: C_14  and  N_15
REMARK   10  A    between atoms: C_16  and  C_18
REMARK   11  A    between atoms: C_18  and  N_19
REMARK   12  A    between atoms: C_20  and  C_22
REMARK   13  A    between atoms: C_22  and  C_23
REMARK                            x       y       z     vdW  Elec       q    Type
REMARK                         _______ _______ _______ _____ _____    ______ ____
ROOT
ATOM      1  C   UNL     1       2.654   4.741  20.863  0.00  0.00    +0.000 C 
ENDROOT
BRANCH   1   2
ATOM      2  N   UNL     1       1.958   5.984  21.151  0.00  0.00    +0.000 N 
ATOM      3  C   UNL     1       2.134   7.087  20.333  0.00  0.00    +0.000 C 
ATOM      4  O   UNL     1       2.782   7.047  19.296  0.00  0.00    +0.000 OA
ATOM      5  H   UNL     1       1.188   5.994  21.815  0.00  0.00    +0.000 HD
BRANCH   3   6
ATOM      6  C   UNL     1       1.404   8.346  20.791  0.00  0.00    +0.000 C 
BRANCH   6   7
ATOM      7  N   UNL     1       1.038   9.185  19.683  0.00  0.00    +0.000 N 
ATOM      8  C   UNL     1      -0.000  10.085  19.837  0.00  0.00    +0.000 C 
ATOM      9  O   UNL     1      -0.635  10.172  20.881  0.00  0.00    +0.000 OA
ATOM     10  H   UNL     1       1.301   8.907  18.741  0.00  0.00    +0.000 HD
BRANCH   8  11
ATOM     11  C   UNL     1      -0.289  10.947  18.631  0.00  0.00    +0.000 C 
BRANCH  11  12
ATOM     12  C   UNL     1      -1.665  10.787  18.065  0.00  0.00    +0.000 A 
ATOM     13  C   UNL     1      -2.715  11.631  18.444  0.00  0.00    +0.000 A 
ATOM     14  C   UNL     1      -3.908  11.596  17.748  0.00  0.00    +0.000 A 
ATOM     15  C   UNL     1      -4.082  10.712  16.697  0.00  0.00    +0.000 A 
ATOM     16  C   UNL     1      -3.045   9.859  16.332  0.00  0.00    +0.000 A 
ATOM     17  C   UNL     1      -1.849   9.883  17.021  0.00  0.00    +0.000 A 
ENDBRANCH  11  12
ENDBRANCH   8  11
ENDBRANCH   6   7
ENDBRANCH   3   6
ENDBRANCH   1   2
BRANCH   1  18
ATOM     18  C   UNL     1       1.824   3.749  20.059  0.00  0.00    +0.000 C 
ATOM     19  O   UNL     1       0.695   3.988  19.647  0.00  0.00    +0.000 OA
BRANCH  18  20
ATOM     20  O   UNL     1       2.523   2.602  19.836  0.00  0.00    +0.000 OA
BRANCH  20  21
ATOM     21  C   UNL     1       3.960   2.688  19.840  0.00  0.00    +0.000 C 
BRANCH  21  25
ATOM     22  C   UNL     1       5.731   4.636  16.367  0.00  0.00    +0.000 A 
ATOM     23  C   UNL     1       4.598   3.821  16.221  0.00  0.00    +0.000 A 
ATOM     24  C   UNL     1       3.991   3.216  17.332  0.00  0.00    +0.000 A 
ATOM     25  C   UNL     1       4.509   3.411  18.628  0.00  0.00    +0.000 A 
ATOM     26  C   UNL     1       5.586   4.305  18.775  0.00  0.00    +0.000 A 
ATOM     27  C   UNL     1       6.196   4.906  17.663  0.00  0.00    +0.000 A 
BRANCH  22  28
ATOM     28  C   UNL     1       6.474   5.069  15.137  0.00  0.00    +0.000 C 
ATOM     29  O   UNL     1       7.500   5.731  15.167  0.00  0.00    +0.000 OA
BRANCH  28  30
ATOM     30  O   UNL     1       5.797   4.713  14.009  0.00  0.00    +0.000 OA
BRANCH  30  32
ATOM     31  C   UNL     1       7.066   4.171  12.014  0.00  0.00    +0.000 C 
ATOM     32  C   UNL     1       6.335   3.627  13.224  0.00  0.00    +0.000 C 
ENDBRANCH  30  32
ENDBRANCH  28  30
ENDBRANCH  22  28
ENDBRANCH  21  25
ENDBRANCH  20  21
ENDBRANCH  18  20
ENDBRANCH   1  18
TORSDOF 12
ENDMDL
MODEL 5
REMARK VINA RESULT:      -7.1      3.937      8.989
REMARK  Name = 
REMARK  13 active torsions:
REMARK  status: ('A' for Active; 'I' for Inactive)
REMARK    1  A    between atoms: C_1  and  C_2
REMARK    2  A    between atoms: C_2  and  O_3
REMARK    3  A    between atoms: O_3  and  C_4
REMARK    4  A    between atoms: C_4  and  C_6
REMARK    5  A    between atoms: C_9  and  C_10
REMARK    6  A    between atoms: C_10  and  O_11
REMARK    7  A    between atoms: O_11  and  C_12
REMARK    8  A    between atoms: C_12  and  C_14
REMARK    9  A    between atoms: C_14  and  N_15
REMARK   10  A    between atoms: C_16  and  C_18
REMARK   11  A    between atoms: C_18  and  N_19
REMARK   12  A    between atoms: C_20  and  C_22
REMARK   13  A    between atoms: C_22  and  C_23
REMARK                            x       y       z     vdW  Elec       q    Type
REMARK                         _______ _______ _______ _____ _____    ______ ____
ROOT
ATOM      1  C   UNL     1       5.916   4.738  17.557  0.00  0.00    +0.000 C 
ENDROOT
BRANCH   1   2
ATOM      2  N   UNL     1       6.654   5.776  18.257  0.00  0.00    +0.000 N 
ATOM      3  C   UNL     1       7.454   6.660  17.551  0.00  0.00    +0.000 C 
ATOM      4  O   UNL     1       7.501   6.681  16.330  0.00  0.00    +0.000 OA
ATOM      5  H   UNL     1       6.430   5.996  19.225  0.00  0.00    +0.000 HD
BRANCH   3   6
ATOM      6  C   UNL     1       8.228   7.650  18.416  0.00  0.00    +0.000 C 
BRANCH   6   7
ATOM      7  N   UNL     1       8.189   8.980  17.871  0.00  0.00    +0.000 N 
ATOM      8  C   UNL     1       8.811  10.005  18.558  0.00  0.00    +0.000 C 
ATOM      9  O   UNL     1       9.375   9.821  19.630  0.00  0.00    +0.000 OA
ATOM     10  H   UNL     1       7.468   9.218  17.195  0.00  0.00    +0.000 HD
BRANCH   8  11
ATOM     11  C   UNL     1       8.747  11.359  17.890  0.00  0.00    +0.000 C 
BRANCH  11  12
ATOM     12  C   UNL     1       9.838  12.302  18.287  0.00  0.00    +0.000 A 
ATOM     13  C   UNL     1       9.768  13.051  19.467  0.00  0.00    +0.000 A 
ATOM     14  C   UNL     1      10.879  13.742  19.907  0.00  0.00    +0.000 A 
ATOM     15  C   UNL     1      12.054  13.723  19.175  0.00  0.00    +0.000 A 
ATOM     16  C   UNL     1      12.120  12.995  17.992  0.00  0.00    +0.000 A 
ATOM     17  C   UNL     1      11.015  12.301  17.540  0.00  0.00    +0.000 A 
ENDBRANCH  11  12
ENDBRANCH   8  11
ENDBRANCH   6   7
ENDBRANCH   3   6
ENDBRANCH   1   2
BRANCH   1  18
ATOM     18  C   UNL     1       4.446   4.666  17.945  0.00  0.00    +0.000 C 
ATOM     19  O   UNL     1       3.766   3.652  17.835  0.00  0.00    +0.000 OA
BRANCH  18  20
ATOM     20  O   UNL     1       4.022   5.852  18.459  0.00  0.00    +0.000 OA
BRANCH  20  21
ATOM     21  C   UNL     1       2.672   5.919  18.953  0.00  0.00    +0.000 C 
BRANCH  21  25
ATOM     22  C   UNL     1       1.009   9.941  19.198  0.00  0.00    +0.000 A 
ATOM     23  C   UNL     1       1.158   9.163  20.357  0.00  0.00    +0.000 A 
ATOM     24  C   UNL     1       1.726   7.881  20.304  0.00  0.00    +0.000 A 
ATOM     25  C   UNL     1       2.161   7.340  19.078  0.00  0.00    +0.000 A 
ATOM     26  C   UNL     1       2.095   8.163  17.938  0.00  0.00    +0.000 A 
ATOM     27  C   UNL     1       1.523   9.443  17.992  0.00  0.00    +0.000 A 
BRANCH  22  28
ATOM     28  C   UNL     1       0.193  11.199  19.271  0.00  0.00    +0.000 C 
ATOM     29  O   UNL     1      -0.918  11.253  19.775  0.00  0.00    +0.000 OA
BRANCH  28  30
ATOM     30  O   UNL     1       0.815  12.220  18.618  0.00  0.00    +0.000 OA
BRANCH  30  32
ATOM     31  C   UNL     1       2.862  13.491  18.330  0.00  0.00    +0.000 C 
ATOM     32  C   UNL     1       1.869  12.915  19.318  0.00  0.00    +0.000 C 
ENDBRANCH  30  32
ENDBRANCH  28  30
ENDBRANCH  22  28
ENDBRANCH  21  25
ENDBRANCH  20  21
ENDBRANCH  18  20
ENDBRANCH   1  18
TORSDOF 12
ENDMDL
MODEL 6
REMARK VINA RESULT:      -7.0      2.282      9.774
REMARK  Name = 
REMARK  13 active torsions:
REMARK  status: ('A' for Active; 'I' for Inactive)
REMARK    1  A    between atoms: C_1  and  C_2
REMARK    2  A    between atoms: C_2  and  O_3
REMARK    3  A    between atoms: O_3  and  C_4
REMARK    4  A    between atoms: C_4  and  C_6
REMARK    5  A    between atoms: C_9  and  C_10
REMARK    6  A    between atoms: C_10  and  O_11
REMARK    7  A    between atoms: O_11  and  C_12
REMARK    8  A    between atoms: C_12  and  C_14
REMARK    9  A    between atoms: C_14  and  N_15
REMARK   10  A    between atoms: C_16  and  C_18
REMARK   11  A    between atoms: C_18  and  N_19
REMARK   12  A    between atoms: C_20  and  C_22
REMARK   13  A    between atoms: C_22  and  C_23
REMARK                            x       y       z     vdW  Elec       q    Type
REMARK                         _______ _______ _______ _____ _____    ______ ____
ROOT
ATOM      1  C   UNL     1       7.407   4.675  15.059  0.00  0.00    +0.000 C 
ENDROOT
BRANCH   1   2
ATOM      2  N   UNL     1       7.211   5.988  15.651  0.00  0.00    +0.000 N 
ATOM      3  C   UNL     1       7.391   6.173  17.012  0.00  0.00    +0.000 C 
ATOM      4  O   UNL     1       7.812   5.294  17.751  0.00  0.00    +0.000 OA
ATOM      5  H   UNL     1       7.151   6.811  15.056  0.00  0.00    +0.000 HD
BRANCH   3   6
ATOM      6  C   UNL     1       7.082   7.581  17.512  0.00  0.00    +0.000 C 
BRANCH   6   7
ATOM      7  N   UNL     1       8.181   8.140  18.249  0.00  0.00    +0.000 N 
ATOM      8  C   UNL     1       8.389   9.506  18.212  0.00  0.00    +0.000 C 
ATOM      9  O   UNL     1       7.679  10.253  17.548  0.00  0.00    +0.000 OA
ATOM     10  H   UNL     1       8.958   7.540  18.513  0.00  0.00    +0.000 HD
BRANCH   8  11
ATOM     11  C   UNL     1       9.546  10.005  19.044  0.00  0.00    +0.000 C 
BRANCH  11  12
ATOM     12  C   UNL     1       9.990  11.397  18.725  0.00  0.00    +0.000 A 
ATOM     13  C   UNL     1      10.841  11.665  17.646  0.00  0.00    +0.000 A 
ATOM     14  C   UNL     1      11.056  12.971  17.252  0.00  0.00    +0.000 A 
ATOM     15  C   UNL     1      10.459  14.018  17.933  0.00  0.00    +0.000 A 
ATOM     16  C   UNL     1       9.629  13.754  19.017  0.00  0.00    +0.000 A 
ATOM     17  C   UNL     1       9.407  12.453  19.423  0.00  0.00    +0.000 A 
ENDBRANCH  11  12
ENDBRANCH   8  11
ENDBRANCH   6   7
ENDBRANCH   3   6
ENDBRANCH   1   2
BRANCH   1  18
ATOM     18  C   UNL     1       6.206   4.175  14.268  0.00  0.00    +0.000 C 
ATOM     19  O   UNL     1       6.268   3.822  13.096  0.00  0.00    +0.000 OA
BRANCH  18  20
ATOM     20  O   UNL     1       5.093   4.141  15.049  0.00  0.00    +0.000 OA
BRANCH  20  21
ATOM     21  C   UNL     1       5.073   3.202  16.139  0.00  0.00    +0.000 C 
BRANCH  21  25
ATOM     22  C   UNL     1       2.379   4.220  19.410  0.00  0.00    +0.000 A 
ATOM     23  C   UNL     1       3.769   4.263  19.598  0.00  0.00    +0.000 A 
ATOM     24  C   UNL     1       4.653   3.975  18.546  0.00  0.00    +0.000 A 
ATOM     25  C   UNL     1       4.163   3.633  17.270  0.00  0.00    +0.000 A 
ATOM     26  C   UNL     1       2.771   3.685  17.068  0.00  0.00    +0.000 A 
ATOM     27  C   UNL     1       1.888   3.968  18.120  0.00  0.00    +0.000 A 
BRANCH  22  28
ATOM     28  C   UNL     1       1.484   4.309  20.612  0.00  0.00    +0.000 C 
ATOM     29  O   UNL     1       1.036   3.332  21.192  0.00  0.00    +0.000 OA
BRANCH  28  30
ATOM     30  O   UNL     1       1.171   5.606  20.891  0.00  0.00    +0.000 OA
BRANCH  30  32
ATOM     31  C   UNL     1       1.501   8.003  20.709  0.00  0.00    +0.000 C 
ATOM     32  C   UNL     1       1.989   6.632  20.289  0.00  0.00    +0.000 C 
ENDBRANCH  30  32
ENDBRANCH  28  30
ENDBRANCH  22  28
ENDBRANCH  21  25
ENDBRANCH  20  21
ENDBRANCH  18  20
ENDBRANCH   1  18
TORSDOF 12
ENDMDL
MODEL 7
REMARK VINA RESULT:      -7.0      2.525     11.435
REMARK  Name = 
REMARK  13 active torsions:
REMARK  status: ('A' for Active; 'I' for Inactive)
REMARK    1  A    between atoms: C_1  and  C_2
REMARK    2  A    between atoms: C_2  and  O_3
REMARK    3  A    between atoms: O_3  and  C_4
REMARK    4  A    between atoms: C_4  and  C_6
REMARK    5  A    between atoms: C_9  and  C_10
REMARK    6  A    between atoms: C_10  and  O_11
REMARK    7  A    between atoms: O_11  and  C_12
REMARK    8  A    between atoms: C_12  and  C_14
REMARK    9  A    between atoms: C_14  and  N_15
REMARK   10  A    between atoms: C_16  and  C_18
REMARK   11  A    between atoms: C_18  and  N_19
REMARK   12  A    between atoms: C_20  and  C_22
REMARK   13  A    between atoms: C_22  and  C_23
REMARK                            x       y       z     vdW  Elec       q    Type
REMARK                         _______ _______ _______ _____ _____    ______ ____
ROOT
ATOM      1  C   UNL     1       8.237   7.703  18.518  0.00  0.00    +0.000 C 
ENDROOT
BRANCH   1   2
ATOM      2  N   UNL     1       8.270   9.026  17.916  0.00  0.00    +0.000 N 
ATOM      3  C   UNL     1       8.846  10.087  18.596  0.00  0.00    +0.000 C 
ATOM      4  O   UNL     1       9.432   9.952  19.661  0.00  0.00    +0.000 OA
ATOM      5  H   UNL     1       8.070   9.140  16.925  0.00  0.00    +0.000 HD
BRANCH   3   6
ATOM      6  C   UNL     1       8.748  11.431  17.882  0.00  0.00    +0.000 C 
BRANCH   6   7
ATOM      7  N   UNL     1       9.467  12.461  18.581  0.00  0.00    +0.000 N 
ATOM      8  C   UNL     1      10.776  12.726  18.225  0.00  0.00    +0.000 C 
ATOM      9  O   UNL     1      11.352  12.092  17.349  0.00  0.00    +0.000 OA
ATOM     10  H   UNL     1       9.147  12.752  19.501  0.00  0.00    +0.000 HD
BRANCH   8  11
ATOM     11  C   UNL     1      11.437  13.847  18.991  0.00  0.00    +0.000 C 
BRANCH  11  12
ATOM     12  C   UNL     1      10.873  15.206  18.718  0.00  0.00    +0.000 A 
ATOM     13  C   UNL     1      10.339  15.997  19.742  0.00  0.00    +0.000 A 
ATOM     14  C   UNL     1      10.028  17.319  19.494  0.00  0.00    +0.000 A 
ATOM     15  C   UNL     1      10.213  17.861  18.234  0.00  0.00    +0.000 A 
ATOM     16  C   UNL     1      10.725  17.070  17.210  0.00  0.00    +0.000 A 
ATOM     17  C   UNL     1      11.039  15.746  17.445  0.00  0.00    +0.000 A 
ENDBRANCH  11  12
ENDBRANCH   8  11
ENDBRANCH   6   7
ENDBRANCH   3   6
ENDBRANCH   1   2
BRANCH   1  18
ATOM     18  C   UNL     1       7.480   6.674  17.689  0.00  0.00    +0.000 C 
ATOM     19  O   UNL     1       7.827   5.504  17.582  0.00  0.00    +0.000 OA
BRANCH  18  20
ATOM     20  O   UNL     1       6.365   7.224  17.135  0.00  0.00    +0.000 OA
BRANCH  20  21
ATOM     21  C   UNL     1       5.687   6.467  16.116  0.00  0.00    +0.000 C 
BRANCH  21  25
ATOM     22  C   UNL     1       2.755   3.769  17.881  0.00  0.00    +0.000 A 
ATOM     23  C   UNL     1       2.611   5.159  18.017  0.00  0.00    +0.000 A 
ATOM     24  C   UNL     1       3.524   6.044  17.424  0.00  0.00    +0.000 A 
ATOM     25  C   UNL     1       4.614   5.557  16.675  0.00  0.00    +0.000 A 
ATOM     26  C   UNL     1       4.695   4.167  16.466  0.00  0.00    +0.000 A 
ATOM     27  C   UNL     1       3.785   3.283  17.063  0.00  0.00    +0.000 A 
BRANCH  22  28
ATOM     28  C   UNL     1       1.894   2.868  18.718  0.00  0.00    +0.000 C 
ATOM     29  O   UNL     1       0.673   2.900  18.704  0.00  0.00    +0.000 OA
BRANCH  28  30
ATOM     30  O   UNL     1       2.655   2.102  19.549  0.00  0.00    +0.000 OA
BRANCH  30  32
ATOM     31  C   UNL     1       2.005   2.990  21.712  0.00  0.00    +0.000 C 
ATOM     32  C   UNL     1       3.149   2.719  20.757  0.00  0.00    +0.000 C 
ENDBRANCH  30  32
ENDBRANCH  28  30
ENDBRANCH  22  28
ENDBRANCH  21  25
ENDBRANCH  20  21
ENDBRANCH  18  20
ENDBRANCH   1  18
TORSDOF 12
ENDMDL
MODEL 8
REMARK VINA RESULT:      -6.9      4.558      6.776
REMARK  Name = 
REMARK  13 active torsions:
REMARK  status: ('A' for Active; 'I' for Inactive)
REMARK    1  A    between atoms: C_1  and  C_2
REMARK    2  A    between atoms: C_2  and  O_3
REMARK    3  A    between atoms: O_3  and  C_4
REMARK    4  A    between atoms: C_4  and  C_6
REMARK    5  A    between atoms: C_9  and  C_10
REMARK    6  A    between atoms: C_10  and  O_11
REMARK    7  A    between atoms: O_11  and  C_12
REMARK    8  A    between atoms: C_12  and  C_14
REMARK    9  A    between atoms: C_14  and  N_15
REMARK   10  A    between atoms: C_16  and  C_18
REMARK   11  A    between atoms: C_18  and  N_19
REMARK   12  A    between atoms: C_20  and  C_22
REMARK   13  A    between atoms: C_22  and  C_23
REMARK                            x       y       z     vdW  Elec       q    Type
REMARK                         _______ _______ _______ _____ _____    ______ ____
ROOT
ATOM      1  C   UNL     1       3.343   4.511  18.971  0.00  0.00    +0.000 C 
ENDROOT
BRANCH   1   2
ATOM      2  N   UNL     1       3.066   5.737  19.700  0.00  0.00    +0.000 N 
ATOM      3  C   UNL     1       1.895   5.866  20.430  0.00  0.00    +0.000 C 
ATOM      4  O   UNL     1       1.104   4.946  20.581  0.00  0.00    +0.000 OA
ATOM      5  H   UNL     1       3.808   6.416  19.856  0.00  0.00    +0.000 HD
BRANCH   3   6
ATOM      6  C   UNL     1       1.698   7.229  21.085  0.00  0.00    +0.000 C 
BRANCH   6   7
ATOM      7  N   UNL     1       1.630   8.285  20.113  0.00  0.00    +0.000 N 
ATOM      8  C   UNL     1       0.595   9.199  20.186  0.00  0.00    +0.000 C 
ATOM      9  O   UNL     1      -0.281   9.121  21.039  0.00  0.00    +0.000 OA
ATOM     10  H   UNL     1       2.119   8.177  19.228  0.00  0.00    +0.000 HD
BRANCH   8  11
ATOM     11  C   UNL     1       0.627  10.291  19.144  0.00  0.00    +0.000 C 
BRANCH  11  12
ATOM     12  C   UNL     1      -0.697  10.592  18.515  0.00  0.00    +0.000 A 
ATOM     13  C   UNL     1      -1.230   9.783  17.505  0.00  0.00    +0.000 A 
ATOM     14  C   UNL     1      -2.538   9.963  17.102  0.00  0.00    +0.000 A 
ATOM     15  C   UNL     1      -3.318  10.956  17.669  0.00  0.00    +0.000 A 
ATOM     16  C   UNL     1      -2.784  11.773  18.660  0.00  0.00    +0.000 A 
ATOM     17  C   UNL     1      -1.476  11.605  19.071  0.00  0.00    +0.000 A 
ENDBRANCH  11  12
ENDBRANCH   8  11
ENDBRANCH   6   7
ENDBRANCH   3   6
ENDBRANCH   1   2
BRANCH   1  18
ATOM     18  C   UNL     1       4.275   3.559  19.708  0.00  0.00    +0.000 C 
ATOM     19  O   UNL     1       3.882   2.657  20.439  0.00  0.00    +0.000 OA
BRANCH  18  20
ATOM     20  O   UNL     1       5.575   3.826  19.408  0.00  0.00    +0.000 OA
BRANCH  20  21
ATOM     21  C   UNL     1       5.877   4.235  18.062  0.00  0.00    +0.000 C 
BRANCH  21  25
ATOM     22  C   UNL     1       7.859   8.116  17.982  0.00  0.00    +0.000 A 
ATOM     23  C   UNL     1       8.317   7.104  18.841  0.00  0.00    +0.000 A 
ATOM     24  C   UNL     1       7.715   5.836  18.854  0.00  0.00    +0.000 A 
ATOM     25  C   UNL     1       6.630   5.547  18.001  0.00  0.00    +0.000 A 
ATOM     26  C   UNL     1       6.242   6.537  17.079  0.00  0.00    +0.000 A 
ATOM     27  C   UNL     1       6.840   7.806  17.070  0.00  0.00    +0.000 A 
BRANCH  22  28
ATOM     28  C   UNL     1       8.380   9.512  18.168  0.00  0.00    +0.000 C 
ATOM     29  O   UNL     1       8.178  10.417  17.374  0.00  0.00    +0.000 OA
BRANCH  28  30
ATOM     30  O   UNL     1       9.175   9.592  19.272  0.00  0.00    +0.000 OA
BRANCH  30  32
ATOM     31  C   UNL     1       9.540  11.292  20.964  0.00  0.00    +0.000 C 
ATOM     32  C   UNL     1       9.817  10.856  19.540  0.00  0.00    +0.000 C 
ENDBRANCH  30  32
ENDBRANCH  28  30
ENDBRANCH  22  28
ENDBRANCH  21  25
ENDBRANCH  20  21
ENDBRANCH  18  20
ENDBRANCH   1  18
TORSDOF 12
ENDMDL
MODEL 9
REMARK VINA RESULT:      -6.9      5.493      8.986
REMARK  Name = 
REMARK  13 active torsions:
REMARK  status: ('A' for Active; 'I' for Inactive)
REMARK    1  A    between atoms: C_1  and  C_2
REMARK    2  A    between atoms: C_2  and  O_3
REMARK    3  A    between atoms: O_3  and  C_4
REMARK    4  A    between atoms: C_4  and  C_6
REMARK    5  A    between atoms: C_9  and  C_10
REMARK    6  A    between atoms: C_10  and  O_11
REMARK    7  A    between atoms: O_11  and  C_12
REMARK    8  A    between atoms: C_12  and  C_14
REMARK    9  A    between atoms: C_14  and  N_15
REMARK   10  A    between atoms: C_16  and  C_18
REMARK   11  A    between atoms: C_18  and  N_19
REMARK   12  A    between atoms: C_20  and  C_22
REMARK   13  A    between atoms: C_22  and  C_23
REMARK                            x       y       z     vdW  Elec       q    Type
REMARK                         _______ _______ _______ _____ _____    ______ ____
ROOT
ATOM      1  C   UNL     1       1.131   3.926  20.806  0.00  0.00    +0.000 C 
ENDROOT
BRANCH   1   2
ATOM      2  N   UNL     1       1.832   5.190  20.649  0.00  0.00    +0.000 N 
ATOM      3  C   UNL     1       2.047   5.716  19.386  0.00  0.00    +0.000 C 
ATOM      4  O   UNL     1       1.583   5.215  18.372  0.00  0.00    +0.000 OA
ATOM      5  H   UNL     1       1.979   5.794  21.455  0.00  0.00    +0.000 HD
BRANCH   3   6
ATOM      6  C   UNL     1       2.857   7.008  19.362  0.00  0.00    +0.000 C 
BRANCH   6   7
ATOM      7  N   UNL     1       2.277   7.987  18.484  0.00  0.00    +0.000 N 
ATOM      8  C   UNL     1       1.491   8.989  19.022  0.00  0.00    +0.000 C 
ATOM      9  O   UNL     1       1.253   9.055  20.222  0.00  0.00    +0.000 OA
ATOM     10  H   UNL     1       2.173   7.769  17.496  0.00  0.00    +0.000 HD
BRANCH   8  11
ATOM     11  C   UNL     1       0.954   9.990  18.026  0.00  0.00    +0.000 C 
BRANCH  11  12
ATOM     12  C   UNL     1       0.900  11.399  18.526  0.00  0.00    +0.000 A 
ATOM     13  C   UNL     1      -0.261  11.930  19.099  0.00  0.00    +0.000 A 
ATOM     14  C   UNL     1      -0.211  13.152  19.740  0.00  0.00    +0.000 A 
ATOM     15  C   UNL     1       0.972  13.869  19.796  0.00  0.00    +0.000 A 
ATOM     16  C   UNL     1       2.123  13.351  19.210  0.00  0.00    +0.000 A 
ATOM     17  C   UNL     1       2.086  12.131  18.564  0.00  0.00    +0.000 A 
ENDBRANCH  11  12
ENDBRANCH   8  11
ENDBRANCH   6   7
ENDBRANCH   3   6
ENDBRANCH   1   2
BRANCH   1  18
ATOM     18  C   UNL     1       2.056   2.738  21.032  0.00  0.00    +0.000 C 
ATOM     19  O   UNL     1       2.628   2.517  22.093  0.00  0.00    +0.000 OA
BRANCH  18  20
ATOM     20  O   UNL     1       2.118   1.955  19.920  0.00  0.00    +0.000 OA
BRANCH  20  21
ATOM     21  C   UNL     1       3.423   1.609  19.422  0.00  0.00    +0.000 C 
BRANCH  21  25
ATOM     22  C   UNL     1       5.047   4.928  17.111  0.00  0.00    +0.000 A 
ATOM     23  C   UNL     1       5.496   4.689  18.419  0.00  0.00    +0.000 A 
ATOM     24  C   UNL     1       5.013   3.603  19.165  0.00  0.00    +0.000 A 
ATOM     25  C   UNL     1       4.058   2.723  18.616  0.00  0.00    +0.000 A 
ATOM     26  C   UNL     1       3.686   2.916  17.273  0.00  0.00    +0.000 A 
ATOM     27  C   UNL     1       4.166   4.005  16.529  0.00  0.00    +0.000 A 
BRANCH  22  28
ATOM     28  C   UNL     1       5.418   6.222  16.444  0.00  0.00    +0.000 C 
ATOM     29  O   UNL     1       5.275   7.315  16.970  0.00  0.00    +0.000 OA
BRANCH  28  30
ATOM     30  O   UNL     1       5.829   6.008  15.163  0.00  0.00    +0.000 OA
BRANCH  30  32
ATOM     31  C   UNL     1       6.500   4.147  13.758  0.00  0.00    +0.000 C 
ATOM     32  C   UNL     1       6.853   5.014  14.949  0.00  0.00    +0.000 C 
ENDBRANCH  30  32
ENDBRANCH  28  30
ENDBRANCH  22  28
ENDBRANCH  21  25
ENDBRANCH  20  21
ENDBRANCH  18  20
ENDBRANCH   1  18
TORSDOF 12
ENDMDL
