MODEL 1
REMARK VINA RESULT:      -7.1      0.000      0.000
REMARK  Name = 
REMARK  12 active torsions:
REMARK  status: ('A' for Active; 'I' for Inactive)
REMARK    1  A    between atoms: C_1  and  C_2
REMARK    2  A    between atoms: C_2  and  O_3
REMARK    3  A    between atoms: O_3  and  C_4
REMARK    4  A    between atoms: C_9  and  O_10
REMARK    5  A    between atoms: O_10  and  C_11
REMARK    6  A    between atoms: C_11  and  C_12
REMARK    7  A    between atoms: N_14  and  C_15
REMARK    8  A    between atoms: C_15  and  C_16
REMARK    9  A    between atoms: C_19  and  C_20
REMARK   10  A    between atoms: C_21  and  O_22
REMARK   11  A    between atoms: O_22  and  C_23
REMARK   12  A    between atoms: C_24  and  C_25
REMARK                            x       y       z     vdW  Elec       q    Type
REMARK                         _______ _______ _______ _____ _____    ______ ____
ROOT
ATOM      1  C   UNL     1       7.988   7.333  17.917  0.00  0.00    +0.000 C 
ATOM      2  O   UNL     1       7.707   7.249  16.725  0.00  0.00    +0.000 OA
ATOM      3  N   UNL     1       8.356   8.528  18.514  0.00  0.00    +0.000 N 
ATOM      4  H   UNL     1       8.666   8.578  19.477  0.00  0.00    +0.000 HD
ENDROOT
BRANCH   1   5
ATOM      5  C   UNL     1       7.867   6.146  18.879  0.00  0.00    +0.000 C 
BRANCH   5   6
ATOM      6  O   UNL     1       7.438   4.956  18.241  0.00  0.00    +0.000 OA
BRANCH   6  12
ATOM      7  C   UNL     1       5.362   4.190  17.057  0.00  0.00    +0.000 A 
ATOM      8  C   UNL     1       3.966   4.052  17.152  0.00  0.00    +0.000 A 
ATOM      9  C   UNL     1       3.275   4.524  18.266  0.00  0.00    +0.000 A 
ATOM     10  C   UNL     1       3.974   5.102  19.317  0.00  0.00    +0.000 A 
ATOM     11  C   UNL     1       5.367   5.194  19.257  0.00  0.00    +0.000 A 
ATOM     12  C   UNL     1       6.080   4.746  18.132  0.00  0.00    +0.000 A 
BRANCH   7  13
ATOM     13  O   UNL     1       6.035   3.768  15.942  0.00  0.00    +0.000 OA
BRANCH  13  15
ATOM     14  C   UNL     1       6.183   3.894  13.562  0.00  0.00    +0.000 C 
ATOM     15  C   UNL     1       6.094   4.689  14.852  0.00  0.00    +0.000 C 
ENDBRANCH  13  15
ENDBRANCH   7  13
ENDBRANCH   6  12
ENDBRANCH   5   6
ENDBRANCH   1   5
BRANCH   3  16
ATOM     16  C   UNL     1       8.271   9.762  17.772  0.00  0.00    +0.000 C 
BRANCH  16  17
ATOM     17  C   UNL     1       9.113  10.900  18.320  0.00  0.00    +0.000 A 
ATOM     18  N   UNL     1      10.148  10.578  19.136  0.00  0.00    +0.000 NA
ATOM     19  C   UNL     1      10.923  11.599  19.575  0.00  0.00    +0.000 A 
ATOM     20  C   UNL     1      10.743  12.947  19.258  0.00  0.00    +0.000 A 
ATOM     21  C   UNL     1      11.743  13.937  19.771  0.00  0.00    +0.000 C 
ATOM     22  C   UNL     1       9.654  13.261  18.438  0.00  0.00    +0.000 A 
ATOM     23  C   UNL     1       8.816  12.228  17.963  0.00  0.00    +0.000 A 
ATOM     24  C   UNL     1       7.630  12.521  17.084  0.00  0.00    +0.000 C 
BRANCH  22  25
ATOM     25  O   UNL     1       9.396  14.506  17.920  0.00  0.00    +0.000 OA
ATOM     26  C   UNL     1       8.713  15.444  18.741  0.00  0.00    +0.000 C 
ENDBRANCH  22  25
ENDBRANCH  16  17
ENDBRANCH   3  16
TORSDOF 8
ENDMDL
MODEL 2
REMARK VINA RESULT:      -6.8      2.620      8.667
REMARK  Name = 
REMARK  12 active torsions:
REMARK  status: ('A' for Active; 'I' for Inactive)
REMARK    1  A    between atoms: C_1  and  C_2
REMARK    2  A    between atoms: C_2  and  O_3
REMARK    3  A    between atoms: O_3  and  C_4
REMARK    4  A    between atoms: C_9  and  O_10
REMARK    5  A    between atoms: O_10  and  C_11
REMARK    6  A    between atoms: C_11  and  C_12
REMARK    7  A    between atoms: N_14  and  C_15
REMARK    8  A    between atoms: C_15  and  C_16
REMARK    9  A    between atoms: C_19  and  C_20
REMARK   10  A    between atoms: C_21  and  O_22
REMARK   11  A    between atoms: O_22  and  C_23
REMARK   12  A    between atoms: C_24  and  C_25
REMARK                            x       y       z     vdW  Elec       q    Type
REMARK                         _______ _______ _______ _____ _____    ______ ____
ROOT
ATOM      1  C   UNL     1       8.072   7.493  18.035  0.00  0.00    +0.000 C 
ATOM      2  O   UNL     1       8.301   6.777  19.006  0.00  0.00    +0.000 OA
ATOM      3  N   UNL     1       7.540   7.000  16.854  0.00  0.00    +0.000 N 
ATOM      4  H   UNL     1       7.429   7.577  16.030  0.00  0.00    +0.000 HD
ENDROOT
BRANCH   1   5
ATOM      5  C   UNL     1       8.263   9.013  18.068  0.00  0.00    +0.000 C 
BRANCH   5   6
ATOM      6  O   UNL     1       9.028   9.453  19.177  0.00  0.00    +0.000 OA
BRANCH   6  12
ATOM      7  C   UNL     1       9.394  11.714  20.201  0.00  0.00    +0.000 A 
ATOM      8  C   UNL     1       9.918  13.002  19.992  0.00  0.00    +0.000 A 
ATOM      9  C   UNL     1      10.442  13.369  18.755  0.00  0.00    +0.000 A 
ATOM     10  C   UNL     1      10.489  12.441  17.723  0.00  0.00    +0.000 A 
ATOM     11  C   UNL     1      10.022  11.142  17.937  0.00  0.00    +0.000 A 
ATOM     12  C   UNL     1       9.467  10.758  19.170  0.00  0.00    +0.000 A 
BRANCH   7  13
ATOM     13  O   UNL     1       8.838  11.368  21.403  0.00  0.00    +0.000 OA
BRANCH  13  15
ATOM     14  C   UNL     1       8.222  11.794  23.671  0.00  0.00    +0.000 C 
ATOM     15  C   UNL     1       8.812  12.387  22.404  0.00  0.00    +0.000 C 
ENDBRANCH  13  15
ENDBRANCH   7  13
ENDBRANCH   6  12
ENDBRANCH   5   6
ENDBRANCH   1   5
BRANCH   3  16
ATOM     16  C   UNL     1       7.087   5.633  16.782  0.00  0.00    +0.000 C 
BRANCH  16  17
ATOM     17  C   UNL     1       5.868   5.315  17.628  0.00  0.00    +0.000 A 
ATOM     18  N   UNL     1       6.011   4.391  18.611  0.00  0.00    +0.000 NA
ATOM     19  C   UNL     1       4.929   4.156  19.393  0.00  0.00    +0.000 A 
ATOM     20  C   UNL     1       3.688   4.783  19.270  0.00  0.00    +0.000 A 
ATOM     21  C   UNL     1       2.624   4.456  20.271  0.00  0.00    +0.000 C 
ATOM     22  C   UNL     1       3.553   5.712  18.233  0.00  0.00    +0.000 A 
ATOM     23  C   UNL     1       4.653   5.983  17.389  0.00  0.00    +0.000 A 
ATOM     24  C   UNL     1       4.551   6.971  16.258  0.00  0.00    +0.000 C 
BRANCH  22  25
ATOM     25  O   UNL     1       2.457   6.516  18.038  0.00  0.00    +0.000 OA
ATOM     26  C   UNL     1       2.333   7.685  18.836  0.00  0.00    +0.000 C 
ENDBRANCH  22  25
ENDBRANCH  16  17
ENDBRANCH   3  16
TORSDOF 8
ENDMDL
MODEL 3
REMARK VINA RESULT:      -6.6      6.176      7.873
REMARK  Name = 
REMARK  12 active torsions:
REMARK  status: ('A' for Active; 'I' for Inactive)
REMARK    1  A    between atoms: C_1  and  C_2
REMARK    2  A    between atoms: C_2  and  O_3
REMARK    3  A    between atoms: O_3  and  C_4
REMARK    4  A    between atoms: C_9  and  O_10
REMARK    5  A    between atoms: O_10  and  C_11
REMARK    6  A    between atoms: C_11  and  C_12
REMARK    7  A    between atoms: N_14  and  C_15
REMARK    8  A    between atoms: C_15  and  C_16
REMARK    9  A    between atoms: C_19  and  C_20
REMARK   10  A    between atoms: C_21  and  O_22
REMARK   11  A    between atoms: O_22  and  C_23
REMARK   12  A    between atoms: C_24  and  C_25
REMARK                            x       y       z     vdW  Elec       q    Type
REMARK                         _______ _______ _______ _____ _____    ______ ____
ROOT
ATOM      1  C   UNL     1       2.253   6.241  20.132  0.00  0.00    +0.000 C 
ATOM      2  O   UNL     1       1.565   5.387  20.684  0.00  0.00    +0.000 OA
ATOM      3  N   UNL     1       2.023   7.599  20.288  0.00  0.00    +0.000 N 
ATOM      4  H   UNL     1       2.541   8.297  19.768  0.00  0.00    +0.000 HD
ENDROOT
BRANCH   1   5
ATOM      5  C   UNL     1       3.489   5.891  19.296  0.00  0.00    +0.000 C 
BRANCH   5   6
ATOM      6  O   UNL     1       3.202   5.743  17.917  0.00  0.00    +0.000 OA
BRANCH   6  12
ATOM      7  C   UNL     1       4.576   3.838  17.032  0.00  0.00    +0.000 A 
ATOM      8  C   UNL     1       5.596   3.473  16.136  0.00  0.00    +0.000 A 
ATOM      9  C   UNL     1       6.269   4.435  15.387  0.00  0.00    +0.000 A 
ATOM     10  C   UNL     1       5.904   5.770  15.492  0.00  0.00    +0.000 A 
ATOM     11  C   UNL     1       4.854   6.138  16.338  0.00  0.00    +0.000 A 
ATOM     12  C   UNL     1       4.178   5.186  17.119  0.00  0.00    +0.000 A 
BRANCH   7  13
ATOM     13  O   UNL     1       3.946   2.898  17.801  0.00  0.00    +0.000 OA
BRANCH  13  15
ATOM     14  C   UNL     1       1.709   2.548  18.561  0.00  0.00    +0.000 C 
ATOM     15  C   UNL     1       2.646   2.494  17.368  0.00  0.00    +0.000 C 
ENDBRANCH  13  15
ENDBRANCH   7  13
ENDBRANCH   6  12
ENDBRANCH   5   6
ENDBRANCH   1   5
BRANCH   3  16
ATOM     16  C   UNL     1       1.046   8.061  21.242  0.00  0.00    +0.000 C 
BRANCH  16  17
ATOM     17  C   UNL     1       0.655   9.521  21.104  0.00  0.00    +0.000 A 
ATOM     18  N   UNL     1       0.850  10.111  19.898  0.00  0.00    +0.000 NA
ATOM     19  C   UNL     1       0.447  11.399  19.774  0.00  0.00    +0.000 A 
ATOM     20  C   UNL     1      -0.149  12.163  20.779  0.00  0.00    +0.000 A 
ATOM     21  C   UNL     1      -0.602  13.550  20.444  0.00  0.00    +0.000 C 
ATOM     22  C   UNL     1      -0.317  11.545  22.023  0.00  0.00    +0.000 A 
ATOM     23  C   UNL     1       0.096  10.205  22.200  0.00  0.00    +0.000 A 
ATOM     24  C   UNL     1      -0.060   9.503  23.522  0.00  0.00    +0.000 C 
BRANCH  22  25
ATOM     25  O   UNL     1      -0.994  12.091  23.085  0.00  0.00    +0.000 OA
ATOM     26  C   UNL     1      -2.414  12.026  23.078  0.00  0.00    +0.000 C 
ENDBRANCH  22  25
ENDBRANCH  16  17
ENDBRANCH   3  16
TORSDOF 8
ENDMDL
MODEL 4
REMARK VINA RESULT:      -6.6      6.767      8.362
REMARK  Name = 
REMARK  12 active torsions:
REMARK  status: ('A' for Active; 'I' for Inactive)
REMARK    1  A    between atoms: C_1  and  C_2
REMARK    2  A    between atoms: C_2  and  O_3
REMARK    3  A    between atoms: O_3  and  C_4
REMARK    4  A    between atoms: C_9  and  O_10
REMARK    5  A    between atoms: O_10  and  C_11
REMARK    6  A    between atoms: C_11  and  C_12
REMARK    7  A    between atoms: N_14  and  C_15
REMARK    8  A    between atoms: C_15  and  C_16
REMARK    9  A    between atoms: C_19  and  C_20
REMARK   10  A    between atoms: C_21  and  O_22
REMARK   11  A    between atoms: O_22  and  C_23
REMARK   12  A    between atoms: C_24  and  C_25
REMARK                            x       y       z     vdW  Elec       q    Type
REMARK                         _______ _______ _______ _____ _____    ______ ____
ROOT
ATOM      1  C   UNL     1       2.002   8.521  18.423  0.00  0.00    +0.000 C 
ATOM      2  O   UNL     1       2.159   8.957  17.286  0.00  0.00    +0.000 OA
ATOM      3  N   UNL     1       1.310   9.220  19.400  0.00  0.00    +0.000 N 
ATOM      4  H   UNL     1       1.253   8.894  20.357  0.00  0.00    +0.000 HD
ENDROOT
BRANCH   1   5
ATOM      5  C   UNL     1       2.473   7.125  18.843  0.00  0.00    +0.000 C 
BRANCH   5   6
ATOM      6  O   UNL     1       3.149   6.432  17.809  0.00  0.00    +0.000 OA
BRANCH   6  12
ATOM      7  C   UNL     1       4.050   4.114  17.473  0.00  0.00    +0.000 A 
ATOM      8  C   UNL     1       3.750   2.742  17.535  0.00  0.00    +0.000 A 
ATOM      9  C   UNL     1       2.463   2.304  17.839  0.00  0.00    +0.000 A 
ATOM     10  C   UNL     1       1.470   3.229  18.129  0.00  0.00    +0.000 A 
ATOM     11  C   UNL     1       1.771   4.594  18.125  0.00  0.00    +0.000 A 
ATOM     12  C   UNL     1       3.056   5.057  17.796  0.00  0.00    +0.000 A 
BRANCH   7  13
ATOM     13  O   UNL     1       5.302   4.545  17.129  0.00  0.00    +0.000 OA
BRANCH  13  15
ATOM     14  C   UNL     1       7.623   4.619  17.685  0.00  0.00    +0.000 C 
ATOM     15  C   UNL     1       6.208   4.783  18.207  0.00  0.00    +0.000 C 
ENDBRANCH  13  15
ENDBRANCH   7  13
ENDBRANCH   6  12
ENDBRANCH   5   6
ENDBRANCH   1   5
BRANCH   3  16
ATOM     16  C   UNL     1       0.609  10.433  19.061  0.00  0.00    +0.000 C 
BRANCH  16  17
ATOM     17  C   UNL     1      -0.314  10.965  20.142  0.00  0.00    +0.000 A 
ATOM     18  N   UNL     1      -0.011  10.662  21.429  0.00  0.00    +0.000 NA
ATOM     19  C   UNL     1      -0.813  11.187  22.387  0.00  0.00    +0.000 A 
ATOM     20  C   UNL     1      -1.918  12.009  22.158  0.00  0.00    +0.000 A 
ATOM     21  C   UNL     1      -2.649  12.564  23.341  0.00  0.00    +0.000 C 
ATOM     22  C   UNL     1      -2.230  12.287  20.823  0.00  0.00    +0.000 A 
ATOM     23  C   UNL     1      -1.425  11.754  19.791  0.00  0.00    +0.000 A 
ATOM     24  C   UNL     1      -1.727  12.021  18.342  0.00  0.00    +0.000 C 
BRANCH  22  25
ATOM     25  O   UNL     1      -3.195  13.172  20.410  0.00  0.00    +0.000 OA
ATOM     26  C   UNL     1      -4.541  12.716  20.353  0.00  0.00    +0.000 C 
ENDBRANCH  22  25
ENDBRANCH  16  17
ENDBRANCH   3  16
TORSDOF 8
ENDMDL
MODEL 5
REMARK VINA RESULT:      -6.6      5.320      7.608
REMARK  Name = 
REMARK  12 active torsions:
REMARK  status: ('A' for Active; 'I' for Inactive)
REMARK    1  A    between atoms: C_1  and  C_2
REMARK    2  A    between atoms: C_2  and  O_3
REMARK    3  A    between atoms: O_3  and  C_4
REMARK    4  A    between atoms: C_9  and  O_10
REMARK    5  A    between atoms: O_10  and  C_11
REMARK    6  A    between atoms: C_11  and  C_12
REMARK    7  A    between atoms: N_14  and  C_15
REMARK    8  A    between atoms: C_15  and  C_16
REMARK    9  A    between atoms: C_19  and  C_20
REMARK   10  A    between atoms: C_21  and  O_22
REMARK   11  A    between atoms: O_22  and  C_23
REMARK   12  A    between atoms: C_24  and  C_25
REMARK                            x       y       z     vdW  Elec       q    Type
REMARK                         _______ _______ _______ _____ _____    ______ ____
ROOT
ATOM      1  C   UNL     1       2.820   5.656  20.048  0.00  0.00    +0.000 C 
ATOM      2  O   UNL     1       2.289   4.943  20.894  0.00  0.00    +0.000 OA
ATOM      3  N   UNL     1       2.483   6.991  19.881  0.00  0.00    +0.000 N 
ATOM      4  H   UNL     1       2.864   7.553  19.130  0.00  0.00    +0.000 HD
ENDROOT
BRANCH   1   5
ATOM      5  C   UNL     1       3.969   5.168  19.160  0.00  0.00    +0.000 C 
BRANCH   5   6
ATOM      6  O   UNL     1       3.876   5.634  17.825  0.00  0.00    +0.000 OA
BRANCH   6  12
ATOM      7  C   UNL     1       6.171   5.908  16.846  0.00  0.00    +0.000 A 
ATOM      8  C   UNL     1       7.086   5.413  15.901  0.00  0.00    +0.000 A 
ATOM      9  C   UNL     1       6.729   4.388  15.028  0.00  0.00    +0.000 A 
ATOM     10  C   UNL     1       5.467   3.815  15.117  0.00  0.00    +0.000 A 
ATOM     11  C   UNL     1       4.570   4.261  16.090  0.00  0.00    +0.000 A 
ATOM     12  C   UNL     1       4.902   5.310  16.964  0.00  0.00    +0.000 A 
BRANCH   7  13
ATOM     13  O   UNL     1       6.506   6.946  17.673  0.00  0.00    +0.000 OA
BRANCH  13  15
ATOM     14  C   UNL     1       7.729   5.797  19.372  0.00  0.00    +0.000 C 
ATOM     15  C   UNL     1       7.788   6.867  18.298  0.00  0.00    +0.000 C 
ENDBRANCH  13  15
ENDBRANCH   7  13
ENDBRANCH   6  12
ENDBRANCH   5   6
ENDBRANCH   1   5
BRANCH   3  16
ATOM     16  C   UNL     1       1.593   7.633  20.816  0.00  0.00    +0.000 C 
BRANCH  16  17
ATOM     17  C   UNL     1       1.002   8.947  20.339  0.00  0.00    +0.000 A 
ATOM     18  N   UNL     1       1.211   9.296  19.045  0.00  0.00    +0.000 NA
ATOM     19  C   UNL     1       0.632  10.445  18.619  0.00  0.00    +0.000 A 
ATOM     20  C   UNL     1      -0.156  11.294  19.399  0.00  0.00    +0.000 A 
ATOM     21  C   UNL     1      -0.780  12.486  18.743  0.00  0.00    +0.000 C 
ATOM     22  C   UNL     1      -0.337  10.931  20.738  0.00  0.00    +0.000 A 
ATOM     23  C   UNL     1       0.254   9.744  21.226  0.00  0.00    +0.000 A 
ATOM     24  C   UNL     1       0.091   9.318  22.660  0.00  0.00    +0.000 C 
BRANCH  22  25
ATOM     25  O   UNL     1      -1.178  11.568  21.616  0.00  0.00    +0.000 OA
ATOM     26  C   UNL     1      -0.689  12.715  22.298  0.00  0.00    +0.000 C 
ENDBRANCH  22  25
ENDBRANCH  16  17
ENDBRANCH   3  16
TORSDOF 8
ENDMDL
MODEL 6
REMARK VINA RESULT:      -6.6      6.830      8.751
REMARK  Name = 
REMARK  12 active torsions:
REMARK  status: ('A' for Active; 'I' for Inactive)
REMARK    1  A    between atoms: C_1  and  C_2
REMARK    2  A    between atoms: C_2  and  O_3
REMARK    3  A    between atoms: O_3  and  C_4
REMARK    4  A    between atoms: C_9  and  O_10
REMARK    5  A    between atoms: O_10  and  C_11
REMARK    6  A    between atoms: C_11  and  C_12
REMARK    7  A    between atoms: N_14  and  C_15
REMARK    8  A    between atoms: C_15  and  C_16
REMARK    9  A    between atoms: C_19  and  C_20
REMARK   10  A    between atoms: C_21  and  O_22
REMARK   11  A    between atoms: O_22  and  C_23
REMARK   12  A    between atoms: C_24  and  C_25
REMARK                            x       y       z     vdW  Elec       q    Type
REMARK                         _______ _______ _______ _____ _____    ______ ____
ROOT
ATOM      1  C   UNL     1       1.904   8.260  18.938  0.00  0.00    +0.000 C 
ATOM      2  O   UNL     1       2.186   8.121  17.751  0.00  0.00    +0.000 OA
ATOM      3  N   UNL     1       1.183   9.345  19.410  0.00  0.00    +0.000 N 
ATOM      4  H   UNL     1       1.022   9.497  20.398  0.00  0.00    +0.000 HD
ENDROOT
BRANCH   1   5
ATOM      5  C   UNL     1       2.238   7.202  19.994  0.00  0.00    +0.000 C 
BRANCH   5   6
ATOM      6  O   UNL     1       3.157   6.227  19.533  0.00  0.00    +0.000 OA
BRANCH   6  12
ATOM      7  C   UNL     1       3.405   3.768  19.096  0.00  0.00    +0.000 A 
ATOM      8  C   UNL     1       2.898   2.490  19.389  0.00  0.00    +0.000 A 
ATOM      9  C   UNL     1       1.769   2.334  20.189  0.00  0.00    +0.000 A 
ATOM     10  C   UNL     1       1.156   3.450  20.742  0.00  0.00    +0.000 A 
ATOM     11  C   UNL     1       1.685   4.721  20.503  0.00  0.00    +0.000 A 
ATOM     12  C   UNL     1       2.809   4.902  19.680  0.00  0.00    +0.000 A 
BRANCH   7  13
ATOM     13  O   UNL     1       4.487   3.924  18.273  0.00  0.00    +0.000 OA
BRANCH  13  15
ATOM     14  C   UNL     1       5.526   4.170  16.136  0.00  0.00    +0.000 C 
ATOM     15  C   UNL     1       4.207   4.058  16.879  0.00  0.00    +0.000 C 
ENDBRANCH  13  15
ENDBRANCH   7  13
ENDBRANCH   6  12
ENDBRANCH   5   6
ENDBRANCH   1   5
BRANCH   3  16
ATOM     16  C   UNL     1       0.600  10.283  18.484  0.00  0.00    +0.000 C 
BRANCH  16  17
ATOM     17  C   UNL     1      -0.649  10.987  18.984  0.00  0.00    +0.000 A 
ATOM     18  N   UNL     1      -0.555  11.678  20.148  0.00  0.00    +0.000 NA
ATOM     19  C   UNL     1      -1.662  12.345  20.555  0.00  0.00    +0.000 A 
ATOM     20  C   UNL     1      -2.883  12.379  19.878  0.00  0.00    +0.000 A 
ATOM     21  C   UNL     1      -3.981  13.232  20.435  0.00  0.00    +0.000 C 
ATOM     22  C   UNL     1      -2.967  11.638  18.694  0.00  0.00    +0.000 A 
ATOM     23  C   UNL     1      -1.839  10.922  18.236  0.00  0.00    +0.000 A 
ATOM     24  C   UNL     1      -1.887  10.107  16.972  0.00  0.00    +0.000 C 
BRANCH  22  25
ATOM     25  O   UNL     1      -4.036  11.655  17.833  0.00  0.00    +0.000 OA
ATOM     26  C   UNL     1      -5.181  10.882  18.172  0.00  0.00    +0.000 C 
ENDBRANCH  22  25
ENDBRANCH  16  17
ENDBRANCH   3  16
TORSDOF 8
ENDMDL
MODEL 7
REMARK VINA RESULT:      -6.6      5.416      7.562
REMARK  Name = 
REMARK  12 active torsions:
REMARK  status: ('A' for Active; 'I' for Inactive)
REMARK    1  A    between atoms: C_1  and  C_2
REMARK    2  A    between atoms: C_2  and  O_3
REMARK    3  A    between atoms: O_3  and  C_4
REMARK    4  A    between atoms: C_9  and  O_10
REMARK    5  A    between atoms: O_10  and  C_11
REMARK    6  A    between atoms: C_11  and  C_12
REMARK    7  A    between atoms: N_14  and  C_15
REMARK    8  A    between atoms: C_15  and  C_16
REMARK    9  A    between atoms: C_19  and  C_20
REMARK   10  A    between atoms: C_21  and  O_22
REMARK   11  A    between atoms: O_22  and  C_23
REMARK   12  A    between atoms: C_24  and  C_25
REMARK                            x       y       z     vdW  Elec       q    Type
REMARK                         _______ _______ _______ _____ _____    ______ ____
ROOT
ATOM      1  C   UNL     1       2.607   5.966  19.041  0.00  0.00    +0.000 C 
ATOM      2  O   UNL     1       2.590   5.310  20.079  0.00  0.00    +0.000 OA
ATOM      3  N   UNL     1       2.207   7.292  18.991  0.00  0.00    +0.000 N 
ATOM      4  H   UNL     1       2.146   7.804  18.119  0.00  0.00    +0.000 HD
ENDROOT
BRANCH   1   5
ATOM      5  C   UNL     1       3.162   5.412  17.724  0.00  0.00    +0.000 C 
BRANCH   5   6
ATOM      6  O   UNL     1       4.356   4.669  17.894  0.00  0.00    +0.000 OA
BRANCH   6  12
ATOM      7  C   UNL     1       6.168   6.167  17.016  0.00  0.00    +0.000 A 
ATOM      8  C   UNL     1       7.375   6.818  17.326  0.00  0.00    +0.000 A 
ATOM      9  C   UNL     1       7.993   6.629  18.560  0.00  0.00    +0.000 A 
ATOM     10  C   UNL     1       7.392   5.823  19.516  0.00  0.00    +0.000 A 
ATOM     11  C   UNL     1       6.164   5.216  19.239  0.00  0.00    +0.000 A 
ATOM     12  C   UNL     1       5.536   5.373  17.992  0.00  0.00    +0.000 A 
BRANCH   7  13
ATOM     13  O   UNL     1       5.584   6.316  15.787  0.00  0.00    +0.000 OA
BRANCH  13  15
ATOM     14  C   UNL     1       6.972   4.846  14.517  0.00  0.00    +0.000 C 
ATOM     15  C   UNL     1       5.553   5.154  14.957  0.00  0.00    +0.000 C 
ENDBRANCH  13  15
ENDBRANCH   7  13
ENDBRANCH   6  12
ENDBRANCH   5   6
ENDBRANCH   1   5
BRANCH   3  16
ATOM     16  C   UNL     1       1.897   7.999  20.208  0.00  0.00    +0.000 C 
BRANCH  16  17
ATOM     17  C   UNL     1       0.969   9.189  20.040  0.00  0.00    +0.000 A 
ATOM     18  N   UNL     1       0.762   9.650  18.781  0.00  0.00    +0.000 NA
ATOM     19  C   UNL     1      -0.110  10.678  18.641  0.00  0.00    +0.000 A 
ATOM     20  C   UNL     1      -0.808  11.297  19.680  0.00  0.00    +0.000 A 
ATOM     21  C   UNL     1      -1.792  12.371  19.334  0.00  0.00    +0.000 C 
ATOM     22  C   UNL     1      -0.560  10.824  20.973  0.00  0.00    +0.000 A 
ATOM     23  C   UNL     1       0.347   9.759  21.167  0.00  0.00    +0.000 A 
ATOM     24  C   UNL     1       0.647   9.223  22.540  0.00  0.00    +0.000 C 
BRANCH  22  25
ATOM     25  O   UNL     1      -1.244  11.219  22.097  0.00  0.00    +0.000 OA
ATOM     26  C   UNL     1      -0.891  12.461  22.692  0.00  0.00    +0.000 C 
ENDBRANCH  22  25
ENDBRANCH  16  17
ENDBRANCH   3  16
TORSDOF 8
ENDMDL
MODEL 8
REMARK VINA RESULT:      -6.5      7.064      8.993
REMARK  Name = 
REMARK  12 active torsions:
REMARK  status: ('A' for Active; 'I' for Inactive)
REMARK    1  A    between atoms: C_1  and  C_2
REMARK    2  A    between atoms: C_2  and  O_3
REMARK    3  A    between atoms: O_3  and  C_4
REMARK    4  A    between atoms: C_9  and  O_10
REMARK    5  A    between atoms: O_10  and  C_11
REMARK    6  A    between atoms: C_11  and  C_12
REMARK    7  A    between atoms: N_14  and  C_15
REMARK    8  A    between atoms: C_15  and  C_16
REMARK    9  A    between atoms: C_19  and  C_20
REMARK   10  A    between atoms: C_21  and  O_22
REMARK   11  A    between atoms: O_22  and  C_23
REMARK   12  A    between atoms: C_24  and  C_25
REMARK                            x       y       z     vdW  Elec       q    Type
REMARK                         _______ _______ _______ _____ _____    ______ ____
ROOT
ATOM      1  C   UNL     1       1.598   8.288  19.837  0.00  0.00    +0.000 C 
ATOM      2  O   UNL     1       1.411   8.139  21.042  0.00  0.00    +0.000 OA
ATOM      3  N   UNL     1       1.066   9.353  19.127  0.00  0.00    +0.000 N 
ATOM      4  H   UNL     1       1.154   9.429  18.121  0.00  0.00    +0.000 HD
ENDROOT
BRANCH   1   5
ATOM      5  C   UNL     1       2.513   7.367  19.024  0.00  0.00    +0.000 C 
BRANCH   5   6
ATOM      6  O   UNL     1       2.939   6.226  19.748  0.00  0.00    +0.000 OA
BRANCH   6  12
ATOM      7  C   UNL     1       2.628   4.257  18.224  0.00  0.00    +0.000 A 
ATOM      8  C   UNL     1       1.981   3.020  18.059  0.00  0.00    +0.000 A 
ATOM      9  C   UNL     1       1.062   2.561  18.999  0.00  0.00    +0.000 A 
ATOM     10  C   UNL     1       0.809   3.312  20.139  0.00  0.00    +0.000 A 
ATOM     11  C   UNL     1       1.488   4.517  20.340  0.00  0.00    +0.000 A 
ATOM     12  C   UNL     1       2.401   5.009  19.392  0.00  0.00    +0.000 A 
BRANCH   7  13
ATOM     13  O   UNL     1       3.496   4.728  17.277  0.00  0.00    +0.000 OA
BRANCH  13  15
ATOM     14  C   UNL     1       5.222   4.352  15.669  0.00  0.00    +0.000 C 
ATOM     15  C   UNL     1       4.631   3.907  16.995  0.00  0.00    +0.000 C 
ENDBRANCH  13  15
ENDBRANCH   7  13
ENDBRANCH   6  12
ENDBRANCH   5   6
ENDBRANCH   1   5
BRANCH   3  16
ATOM     16  C   UNL     1       0.392  10.420  19.824  0.00  0.00    +0.000 C 
BRANCH  16  17
ATOM     17  C   UNL     1      -0.936  10.842  19.220  0.00  0.00    +0.000 A 
ATOM     18  N   UNL     1      -1.336  10.215  18.086  0.00  0.00    +0.000 NA
ATOM     19  C   UNL     1      -2.547  10.565  17.588  0.00  0.00    +0.000 A 
ATOM     20  C   UNL     1      -3.411  11.511  18.144  0.00  0.00    +0.000 A 
ATOM     21  C   UNL     1      -4.748  11.717  17.502  0.00  0.00    +0.000 C 
ATOM     22  C   UNL     1      -2.967  12.165  19.298  0.00  0.00    +0.000 A 
ATOM     23  C   UNL     1      -1.708  11.838  19.848  0.00  0.00    +0.000 A 
ATOM     24  C   UNL     1      -1.189  12.521  21.084  0.00  0.00    +0.000 C 
BRANCH  22  25
ATOM     25  O   UNL     1      -3.726  13.026  20.052  0.00  0.00    +0.000 OA
ATOM     26  C   UNL     1      -4.776  12.479  20.839  0.00  0.00    +0.000 C 
ENDBRANCH  22  25
ENDBRANCH  16  17
ENDBRANCH   3  16
TORSDOF 8
ENDMDL
MODEL 9
REMARK VINA RESULT:      -6.5      6.089     10.283
REMARK  Name = 
REMARK  12 active torsions:
REMARK  status: ('A' for Active; 'I' for Inactive)
REMARK    1  A    between atoms: C_1  and  C_2
REMARK    2  A    between atoms: C_2  and  O_3
REMARK    3  A    between atoms: O_3  and  C_4
REMARK    4  A    between atoms: C_9  and  O_10
REMARK    5  A    between atoms: O_10  and  C_11
REMARK    6  A    between atoms: C_11  and  C_12
REMARK    7  A    between atoms: N_14  and  C_15
REMARK    8  A    between atoms: C_15  and  C_16
REMARK    9  A    between atoms: C_19  and  C_20
REMARK   10  A    between atoms: C_21  and  O_22
REMARK   11  A    between atoms: O_22  and  C_23
REMARK   12  A    between atoms: C_24  and  C_25
REMARK                            x       y       z     vdW  Elec       q    Type
REMARK                         _______ _______ _______ _____ _____    ______ ____
ROOT
ATOM      1  C   UNL     1       0.664   8.616  21.204  0.00  0.00    +0.000 C 
ATOM      2  O   UNL     1      -0.385   8.121  21.605  0.00  0.00    +0.000 OA
ATOM      3  N   UNL     1       1.753   7.847  20.825  0.00  0.00    +0.000 N 
ATOM      4  H   UNL     1       2.643   8.259  20.572  0.00  0.00    +0.000 HD
ENDROOT
BRANCH   1   5
ATOM      5  C   UNL     1       0.838  10.124  20.993  0.00  0.00    +0.000 C 
BRANCH   5   6
ATOM      6  O   UNL     1       0.759  10.506  19.631  0.00  0.00    +0.000 OA
BRANCH   6  12
ATOM      7  C   UNL     1      -0.518  12.553  18.939  0.00  0.00    +0.000 A 
ATOM      8  C   UNL     1      -0.439  13.939  18.718  0.00  0.00    +0.000 A 
ATOM      9  C   UNL     1       0.774  14.614  18.830  0.00  0.00    +0.000 A 
ATOM     10  C   UNL     1       1.917  13.921  19.207  0.00  0.00    +0.000 A 
ATOM     11  C   UNL     1       1.838  12.553  19.484  0.00  0.00    +0.000 A 
ATOM     12  C   UNL     1       0.629  11.850  19.353  0.00  0.00    +0.000 A 
BRANCH   7  13
ATOM     13  O   UNL     1      -1.701  11.882  18.784  0.00  0.00    +0.000 OA
BRANCH  13  15
ATOM     14  C   UNL     1      -2.003  10.021  17.319  0.00  0.00    +0.000 C 
ATOM     15  C   UNL     1      -2.058  11.532  17.447  0.00  0.00    +0.000 C 
ENDBRANCH  13  15
ENDBRANCH   7  13
ENDBRANCH   6  12
ENDBRANCH   5   6
ENDBRANCH   1   5
BRANCH   3  16
ATOM     16  C   UNL     1       1.631   6.412  20.744  0.00  0.00    +0.000 C 
BRANCH  16  17
ATOM     17  C   UNL     1       2.340   5.774  19.563  0.00  0.00    +0.000 A 
ATOM     18  N   UNL     1       3.265   6.520  18.908  0.00  0.00    +0.000 NA
ATOM     19  C   UNL     1       3.927   5.919  17.890  0.00  0.00    +0.000 A 
ATOM     20  C   UNL     1       3.737   4.604  17.463  0.00  0.00    +0.000 A 
ATOM     21  C   UNL     1       4.613   4.078  16.369  0.00  0.00    +0.000 C 
ATOM     22  C   UNL     1       2.760   3.860  18.134  0.00  0.00    +0.000 A 
ATOM     23  C   UNL     1       2.040   4.449  19.197  0.00  0.00    +0.000 A 
ATOM     24  C   UNL     1       0.976   3.687  19.941  0.00  0.00    +0.000 C 
BRANCH  22  25
ATOM     25  O   UNL     1       2.524   2.521  17.941  0.00  0.00    +0.000 OA
ATOM     26  C   UNL     1       3.449   1.592  18.490  0.00  0.00    +0.000 C 
ENDBRANCH  22  25
ENDBRANCH  16  17
ENDBRANCH   3  16
TORSDOF 8
ENDMDL
