MODEL 1
REMARK VINA RESULT:      -6.9      0.000      0.000
REMARK  Name = 
REMARK  9 active torsions:
REMARK  status: ('A' for Active; 'I' for Inactive)
REMARK    1  A    between atoms: C_1  and  C_2
REMARK    2  A    between atoms: C_2  and  C_3
REMARK    3  A    between atoms: C_2  and  C_4
REMARK    4  A    between atoms: N_6  and  C_7
REMARK    5  A    between atoms: C_12  and  S_13
REMARK    6  A    between atoms: S_13  and  C_14
REMARK    7  A    between atoms: C_14  and  C_15
REMARK    8  A    between atoms: C_15  and  O_16
REMARK    9  A    between atoms: O_16  and  C_17
REMARK                            x       y       z     vdW  Elec       q    Type
REMARK                         _______ _______ _______ _____ _____    ______ ____
ROOT
ATOM      1  C   UNL     1       1.133   9.398  19.076  0.00  0.00    +0.000 A 
ATOM      2  C   UNL     1       1.022   8.598  20.214  0.00  0.00    +0.000 A 
ATOM      3  C   UNL     1       1.792   7.444  20.374  0.00  0.00    +0.000 A 
ATOM      4  C   UNL     1       2.701   7.073  19.377  0.00  0.00    +0.000 A 
ATOM      5  N   UNL     1       3.541   5.980  19.430  0.00  0.00    +0.000 NA
ATOM      6  C   UNL     1       4.268   5.923  18.343  0.00  0.00    +0.000 A 
ATOM      7  S   UNL     1       3.978   7.148  17.182  0.00  0.00    +0.000 S 
ATOM      8  C   UNL     1       2.786   7.849  18.218  0.00  0.00    +0.000 A 
ATOM      9  C   UNL     1       1.991   9.003  18.035  0.00  0.00    +0.000 A 
ENDROOT
BRANCH   1  12
ATOM     10  C   UNL     1      -0.911  10.693  18.484  0.00  0.00    +0.000 C 
ATOM     11  O   UNL     1      -1.647   9.737  18.252  0.00  0.00    +0.000 OA
ATOM     12  N   UNL     1       0.401  10.602  18.931  0.00  0.00    +0.000 N 
ATOM     13  H   UNL     1       0.818  11.442  19.314  0.00  0.00    +0.000 HD
BRANCH  10  15
ATOM     14  C   UNL     1      -2.464  12.453  19.400  0.00  0.00    +0.000 C 
ATOM     15  C   UNL     1      -1.426  12.126  18.332  0.00  0.00    +0.000 C 
ATOM     16  C   UNL     1      -0.258  13.115  18.429  0.00  0.00    +0.000 C 
ENDBRANCH  10  15
ENDBRANCH   1  12
BRANCH   6  17
ATOM     17  S   UNL     1       5.424   4.625  18.106  0.00  0.00    +0.000 S 
BRANCH  17  18
ATOM     18  C   UNL     1       4.662   3.743  16.695  0.00  0.00    +0.000 C 
BRANCH  18  19
ATOM     19  C   UNL     1       3.169   3.518  16.926  0.00  0.00    +0.000 C 
BRANCH  19  20
ATOM     20  O   UNL     1       2.973   2.354  17.737  0.00  0.00    +0.000 OA
BRANCH  20  21
ATOM     21  C   UNL     1       2.537   2.609  19.012  0.00  0.00    +0.000 A 
ATOM     22  C   UNL     1       1.242   3.120  19.114  0.00  0.00    +0.000 A 
ATOM     23  C   UNL     1       0.701   3.429  20.365  0.00  0.00    +0.000 A 
ATOM     24  C   UNL     1       1.446   3.212  21.522  0.00  0.00    +0.000 A 
ATOM     25  C   UNL     1       2.728   2.676  21.429  0.00  0.00    +0.000 A 
ATOM     26  C   UNL     1       3.271   2.372  20.178  0.00  0.00    +0.000 A 
ENDBRANCH  20  21
ENDBRANCH  19  20
ENDBRANCH  18  19
ENDBRANCH  17  18
ENDBRANCH   6  17
TORSDOF 7
ENDMDL
MODEL 2
REMARK VINA RESULT:      -6.7      1.418      1.861
REMARK  Name = 
REMARK  9 active torsions:
REMARK  status: ('A' for Active; 'I' for Inactive)
REMARK    1  A    between atoms: C_1  and  C_2
REMARK    2  A    between atoms: C_2  and  C_3
REMARK    3  A    between atoms: C_2  and  C_4
REMARK    4  A    between atoms: N_6  and  C_7
REMARK    5  A    between atoms: C_12  and  S_13
REMARK    6  A    between atoms: S_13  and  C_14
REMARK    7  A    between atoms: C_14  and  C_15
REMARK    8  A    between atoms: C_15  and  O_16
REMARK    9  A    between atoms: O_16  and  C_17
REMARK                            x       y       z     vdW  Elec       q    Type
REMARK                         _______ _______ _______ _____ _____    ______ ____
ROOT
ATOM      1  C   UNL     1       0.713   9.469  19.949  0.00  0.00    +0.000 A 
ATOM      2  C   UNL     1       0.724   8.518  20.969  0.00  0.00    +0.000 A 
ATOM      3  C   UNL     1       1.520   7.372  20.892  0.00  0.00    +0.000 A 
ATOM      4  C   UNL     1       2.331   7.166  19.770  0.00  0.00    +0.000 A 
ATOM      5  N   UNL     1       3.185   6.098  19.590  0.00  0.00    +0.000 NA
ATOM      6  C   UNL     1       3.802   6.210  18.440  0.00  0.00    +0.000 A 
ATOM      7  S   UNL     1       3.385   7.576  17.495  0.00  0.00    +0.000 S 
ATOM      8  C   UNL     1       2.293   8.097  18.729  0.00  0.00    +0.000 A 
ATOM      9  C   UNL     1       1.470   9.244  18.786  0.00  0.00    +0.000 A 
ENDROOT
BRANCH   1  12
ATOM     10  C   UNL     1       0.353  11.810  20.724  0.00  0.00    +0.000 C 
ATOM     11  O   UNL     1       1.452  11.979  21.245  0.00  0.00    +0.000 OA
ATOM     12  N   UNL     1      -0.043  10.663  20.045  0.00  0.00    +0.000 N 
ATOM     13  H   UNL     1      -0.866  10.734  19.459  0.00  0.00    +0.000 HD
BRANCH  10  15
ATOM     14  C   UNL     1      -0.910  13.506  19.355  0.00  0.00    +0.000 C 
ATOM     15  C   UNL     1      -0.699  12.921  20.747  0.00  0.00    +0.000 C 
ATOM     16  C   UNL     1      -2.027  12.375  21.284  0.00  0.00    +0.000 C 
ENDBRANCH  10  15
ENDBRANCH   1  12
BRANCH   6  17
ATOM     17  S   UNL     1       4.945   4.987  17.915  0.00  0.00    +0.000 S 
BRANCH  17  18
ATOM     18  C   UNL     1       3.873   3.954  16.851  0.00  0.00    +0.000 C 
BRANCH  18  19
ATOM     19  C   UNL     1       3.924   2.487  17.274  0.00  0.00    +0.000 C 
BRANCH  19  20
ATOM     20  O   UNL     1       2.621   2.054  17.681  0.00  0.00    +0.000 OA
BRANCH  20  21
ATOM     21  C   UNL     1       2.217   2.524  18.905  0.00  0.00    +0.000 A 
ATOM     22  C   UNL     1       3.105   2.299  19.959  0.00  0.00    +0.000 A 
ATOM     23  C   UNL     1       2.789   2.724  21.252  0.00  0.00    +0.000 A 
ATOM     24  C   UNL     1       1.591   3.392  21.494  0.00  0.00    +0.000 A 
ATOM     25  C   UNL     1       0.714   3.645  20.442  0.00  0.00    +0.000 A 
ATOM     26  C   UNL     1       1.028   3.215  19.151  0.00  0.00    +0.000 A 
ENDBRANCH  20  21
ENDBRANCH  19  20
ENDBRANCH  18  19
ENDBRANCH  17  18
ENDBRANCH   6  17
TORSDOF 7
ENDMDL
MODEL 3
REMARK VINA RESULT:      -6.6      0.461      1.258
REMARK  Name = 
REMARK  9 active torsions:
REMARK  status: ('A' for Active; 'I' for Inactive)
REMARK    1  A    between atoms: C_1  and  C_2
REMARK    2  A    between atoms: C_2  and  C_3
REMARK    3  A    between atoms: C_2  and  C_4
REMARK    4  A    between atoms: N_6  and  C_7
REMARK    5  A    between atoms: C_12  and  S_13
REMARK    6  A    between atoms: S_13  and  C_14
REMARK    7  A    between atoms: C_14  and  C_15
REMARK    8  A    between atoms: C_15  and  O_16
REMARK    9  A    between atoms: O_16  and  C_17
REMARK                            x       y       z     vdW  Elec       q    Type
REMARK                         _______ _______ _______ _____ _____    ______ ____
ROOT
ATOM      1  C   UNL     1       0.978   9.154  19.537  0.00  0.00    +0.000 A 
ATOM      2  C   UNL     1       0.966   8.269  20.616  0.00  0.00    +0.000 A 
ATOM      3  C   UNL     1       1.796   7.146  20.649  0.00  0.00    +0.000 A 
ATOM      4  C   UNL     1       2.663   6.893  19.580  0.00  0.00    +0.000 A 
ATOM      5  N   UNL     1       3.553   5.841  19.507  0.00  0.00    +0.000 NA
ATOM      6  C   UNL     1       4.220   5.900  18.382  0.00  0.00    +0.000 A 
ATOM      7  S   UNL     1       3.811   7.190  17.333  0.00  0.00    +0.000 S 
ATOM      8  C   UNL     1       2.648   7.755  18.480  0.00  0.00    +0.000 A 
ATOM      9  C   UNL     1       1.793   8.879  18.426  0.00  0.00    +0.000 A 
ENDROOT
BRANCH   1  12
ATOM     10  C   UNL     1      -1.051  10.453  18.901  0.00  0.00    +0.000 C 
ATOM     11  O   UNL     1      -1.672   9.534  18.371  0.00  0.00    +0.000 OA
ATOM     12  N   UNL     1       0.186  10.329  19.522  0.00  0.00    +0.000 N 
ATOM     13  H   UNL     1       0.479  11.088  20.125  0.00  0.00    +0.000 HD
BRANCH  10  15
ATOM     14  C   UNL     1      -0.732  12.871  18.269  0.00  0.00    +0.000 C 
ATOM     15  C   UNL     1      -1.645  11.862  18.958  0.00  0.00    +0.000 C 
ATOM     16  C   UNL     1      -3.026  11.876  18.292  0.00  0.00    +0.000 C 
ENDBRANCH  10  15
ENDBRANCH   1  12
BRANCH   6  17
ATOM     17  S   UNL     1       5.418   4.680  17.987  0.00  0.00    +0.000 S 
BRANCH  17  18
ATOM     18  C   UNL     1       4.564   3.786  16.639  0.00  0.00    +0.000 C 
BRANCH  18  19
ATOM     19  C   UNL     1       3.069   3.651  16.925  0.00  0.00    +0.000 C 
BRANCH  19  20
ATOM     20  O   UNL     1       2.822   2.445  17.655  0.00  0.00    +0.000 OA
BRANCH  20  21
ATOM     21  C   UNL     1       2.390   2.632  18.943  0.00  0.00    +0.000 A 
ATOM     22  C   UNL     1       3.325   2.347  19.939  0.00  0.00    +0.000 A 
ATOM     23  C   UNL     1       2.988   2.490  21.288  0.00  0.00    +0.000 A 
ATOM     24  C   UNL     1       1.718   2.937  21.647  0.00  0.00    +0.000 A 
ATOM     25  C   UNL     1       0.790   3.250  20.657  0.00  0.00    +0.000 A 
ATOM     26  C   UNL     1       1.125   3.102  19.310  0.00  0.00    +0.000 A 
ENDBRANCH  20  21
ENDBRANCH  19  20
ENDBRANCH  18  19
ENDBRANCH  17  18
ENDBRANCH   6  17
TORSDOF 7
ENDMDL
MODEL 4
REMARK VINA RESULT:      -6.6      2.325      2.955
REMARK  Name = 
REMARK  9 active torsions:
REMARK  status: ('A' for Active; 'I' for Inactive)
REMARK    1  A    between atoms: C_1  and  C_2
REMARK    2  A    between atoms: C_2  and  C_3
REMARK    3  A    between atoms: C_2  and  C_4
REMARK    4  A    between atoms: N_6  and  C_7
REMARK    5  A    between atoms: C_12  and  S_13
REMARK    6  A    between atoms: S_13  and  C_14
REMARK    7  A    between atoms: C_14  and  C_15
REMARK    8  A    between atoms: C_15  and  O_16
REMARK    9  A    between atoms: O_16  and  C_17
REMARK                            x       y       z     vdW  Elec       q    Type
REMARK                         _______ _______ _______ _____ _____    ______ ____
ROOT
ATOM      1  C   UNL     1       0.267  10.478  19.969  0.00  0.00    +0.000 A 
ATOM      2  C   UNL     1       0.724  11.013  18.764  0.00  0.00    +0.000 A 
ATOM      3  C   UNL     1       1.599  10.306  17.936  0.00  0.00    +0.000 A 
ATOM      4  C   UNL     1       2.033   9.030  18.314  0.00  0.00    +0.000 A 
ATOM      5  N   UNL     1       2.866   8.218  17.571  0.00  0.00    +0.000 NA
ATOM      6  C   UNL     1       3.068   7.090  18.204  0.00  0.00    +0.000 A 
ATOM      7  S   UNL     1       2.303   6.937  19.729  0.00  0.00    +0.000 S 
ATOM      8  C   UNL     1       1.609   8.508  19.539  0.00  0.00    +0.000 A 
ATOM      9  C   UNL     1       0.745   9.227  20.395  0.00  0.00    +0.000 A 
ENDROOT
BRANCH   1  12
ATOM     10  C   UNL     1      -0.370  12.228  21.624  0.00  0.00    +0.000 C 
ATOM     11  O   UNL     1       0.720  12.791  21.692  0.00  0.00    +0.000 OA
ATOM     12  N   UNL     1      -0.668  11.160  20.785  0.00  0.00    +0.000 N 
ATOM     13  H   UNL     1      -1.647  10.945  20.642  0.00  0.00    +0.000 HD
BRANCH  10  15
ATOM     14  C   UNL     1      -2.124  11.585  23.314  0.00  0.00    +0.000 C 
ATOM     15  C   UNL     1      -1.551  12.716  22.465  0.00  0.00    +0.000 C 
ATOM     16  C   UNL     1      -1.108  13.869  23.373  0.00  0.00    +0.000 C 
ENDBRANCH  10  15
ENDBRANCH   1  12
BRANCH   6  17
ATOM     17  S   UNL     1       4.107   5.854  17.519  0.00  0.00    +0.000 S 
BRANCH  17  18
ATOM     18  C   UNL     1       4.968   5.261  19.021  0.00  0.00    +0.000 C 
BRANCH  18  19
ATOM     19  C   UNL     1       5.390   3.800  18.877  0.00  0.00    +0.000 C 
BRANCH  19  20
ATOM     20  O   UNL     1       4.763   3.011  19.893  0.00  0.00    +0.000 OA
BRANCH  20  21
ATOM     21  C   UNL     1       3.403   2.889  19.767  0.00  0.00    +0.000 A 
ATOM     22  C   UNL     1       2.659   3.262  20.888  0.00  0.00    +0.000 A 
ATOM     23  C   UNL     1       1.264   3.167  20.875  0.00  0.00    +0.000 A 
ATOM     24  C   UNL     1       0.606   2.714  19.734  0.00  0.00    +0.000 A 
ATOM     25  C   UNL     1       1.340   2.367  18.603  0.00  0.00    +0.000 A 
ATOM     26  C   UNL     1       2.734   2.458  18.617  0.00  0.00    +0.000 A 
ENDBRANCH  20  21
ENDBRANCH  19  20
ENDBRANCH  18  19
ENDBRANCH  17  18
ENDBRANCH   6  17
TORSDOF 7
ENDMDL
MODEL 5
REMARK VINA RESULT:      -6.6      1.082      1.259
REMARK  Name = 
REMARK  9 active torsions:
REMARK  status: ('A' for Active; 'I' for Inactive)
REMARK    1  A    between atoms: C_1  and  C_2
REMARK    2  A    between atoms: C_2  and  C_3
REMARK    3  A    between atoms: C_2  and  C_4
REMARK    4  A    between atoms: N_6  and  C_7
REMARK    5  A    between atoms: C_12  and  S_13
REMARK    6  A    between atoms: S_13  and  C_14
REMARK    7  A    between atoms: C_14  and  C_15
REMARK    8  A    between atoms: C_15  and  O_16
REMARK    9  A    between atoms: O_16  and  C_17
REMARK                            x       y       z     vdW  Elec       q    Type
REMARK                         _______ _______ _______ _____ _____    ______ ____
ROOT
ATOM      1  C   UNL     1       1.018   9.092  19.477  0.00  0.00    +0.000 A 
ATOM      2  C   UNL     1       0.998   8.221  20.567  0.00  0.00    +0.000 A 
ATOM      3  C   UNL     1       1.840   7.108  20.630  0.00  0.00    +0.000 A 
ATOM      4  C   UNL     1       2.729   6.852  19.581  0.00  0.00    +0.000 A 
ATOM      5  N   UNL     1       3.633   5.810  19.539  0.00  0.00    +0.000 NA
ATOM      6  C   UNL     1       4.320   5.862  18.425  0.00  0.00    +0.000 A 
ATOM      7  S   UNL     1       3.915   7.133  17.351  0.00  0.00    +0.000 S 
ATOM      8  C   UNL     1       2.725   7.699  18.469  0.00  0.00    +0.000 A 
ATOM      9  C   UNL     1       1.858   8.811  18.385  0.00  0.00    +0.000 A 
ENDROOT
BRANCH   1  12
ATOM     10  C   UNL     1       0.681  11.559  19.556  0.00  0.00    +0.000 C 
ATOM     11  O   UNL     1       1.865  11.882  19.619  0.00  0.00    +0.000 OA
ATOM     12  N   UNL     1       0.213  10.256  19.431  0.00  0.00    +0.000 N 
ATOM     13  H   UNL     1      -0.752  10.137  19.147  0.00  0.00    +0.000 HD
BRANCH  10  15
ATOM     14  C   UNL     1      -0.804  13.026  18.146  0.00  0.00    +0.000 C 
ATOM     15  C   UNL     1      -0.418  12.624  19.566  0.00  0.00    +0.000 C 
ATOM     16  C   UNL     1      -1.652  12.097  20.306  0.00  0.00    +0.000 C 
ENDBRANCH  10  15
ENDBRANCH   1  12
BRANCH   6  17
ATOM     17  S   UNL     1       5.540   4.652  18.069  0.00  0.00    +0.000 S 
BRANCH  17  18
ATOM     18  C   UNL     1       4.790   3.828  16.617  0.00  0.00    +0.000 C 
BRANCH  18  19
ATOM     19  C   UNL     1       3.389   3.309  16.938  0.00  0.00    +0.000 C 
BRANCH  19  20
ATOM     20  O   UNL     1       3.471   2.259  17.908  0.00  0.00    +0.000 OA
BRANCH  20  21
ATOM     21  C   UNL     1       2.829   2.519  19.092  0.00  0.00    +0.000 A 
ATOM     22  C   UNL     1       1.488   2.890  18.979  0.00  0.00    +0.000 A 
ATOM     23  C   UNL     1       0.739   3.191  20.121  0.00  0.00    +0.000 A 
ATOM     24  C   UNL     1       1.325   3.106  21.382  0.00  0.00    +0.000 A 
ATOM     25  C   UNL     1       2.654   2.709  21.503  0.00  0.00    +0.000 A 
ATOM     26  C   UNL     1       3.403   2.413  20.362  0.00  0.00    +0.000 A 
ENDBRANCH  20  21
ENDBRANCH  19  20
ENDBRANCH  18  19
ENDBRANCH  17  18
ENDBRANCH   6  17
TORSDOF 7
ENDMDL
MODEL 6
REMARK VINA RESULT:      -6.6      1.899      2.557
REMARK  Name = 
REMARK  9 active torsions:
REMARK  status: ('A' for Active; 'I' for Inactive)
REMARK    1  A    between atoms: C_1  and  C_2
REMARK    2  A    between atoms: C_2  and  C_3
REMARK    3  A    between atoms: C_2  and  C_4
REMARK    4  A    between atoms: N_6  and  C_7
REMARK    5  A    between atoms: C_12  and  S_13
REMARK    6  A    between atoms: S_13  and  C_14
REMARK    7  A    between atoms: C_14  and  C_15
REMARK    8  A    between atoms: C_15  and  O_16
REMARK    9  A    between atoms: O_16  and  C_17
REMARK                            x       y       z     vdW  Elec       q    Type
REMARK                         _______ _______ _______ _____ _____    ______ ____
ROOT
ATOM      1  C   UNL     1       1.122   9.123  19.890  0.00  0.00    +0.000 A 
ATOM      2  C   UNL     1       1.214   9.682  18.615  0.00  0.00    +0.000 A 
ATOM      3  C   UNL     1       2.007   9.105  17.619  0.00  0.00    +0.000 A 
ATOM      4  C   UNL     1       2.728   7.938  17.897  0.00  0.00    +0.000 A 
ATOM      5  N   UNL     1       3.516   7.255  16.994  0.00  0.00    +0.000 NA
ATOM      6  C   UNL     1       4.042   6.203  17.569  0.00  0.00    +0.000 A 
ATOM      7  S   UNL     1       3.654   5.978  19.222  0.00  0.00    +0.000 S 
ATOM      8  C   UNL     1       2.669   7.398  19.184  0.00  0.00    +0.000 A 
ATOM      9  C   UNL     1       1.892   7.990  20.205  0.00  0.00    +0.000 A 
ENDROOT
BRANCH   1  12
ATOM     10  C   UNL     1       0.432  10.910  21.483  0.00  0.00    +0.000 C 
ATOM     11  O   UNL     1       1.265  11.750  21.153  0.00  0.00    +0.000 OA
ATOM     12  N   UNL     1       0.274   9.664  20.887  0.00  0.00    +0.000 N 
ATOM     13  H   UNL     1      -0.588   9.167  21.077  0.00  0.00    +0.000 HD
BRANCH  10  15
ATOM     14  C   UNL     1      -1.811  11.906  22.051  0.00  0.00    +0.000 C 
ATOM     15  C   UNL     1      -0.572  11.205  22.599  0.00  0.00    +0.000 C 
ATOM     16  C   UNL     1      -0.982   9.901  23.293  0.00  0.00    +0.000 C 
ENDBRANCH  10  15
ENDBRANCH   1  12
BRANCH   6  17
ATOM     17  S   UNL     1       5.116   5.139  16.679  0.00  0.00    +0.000 S 
BRANCH  17  18
ATOM     18  C   UNL     1       4.528   3.504  17.253  0.00  0.00    +0.000 C 
BRANCH  18  19
ATOM     19  C   UNL     1       3.065   3.279  16.876  0.00  0.00    +0.000 C 
BRANCH  19  20
ATOM     20  O   UNL     1       2.507   2.242  17.691  0.00  0.00    +0.000 OA
BRANCH  20  21
ATOM     21  C   UNL     1       2.168   2.631  18.962  0.00  0.00    +0.000 A 
ATOM     22  C   UNL     1       3.022   2.190  19.974  0.00  0.00    +0.000 A 
ATOM     23  C   UNL     1       2.766   2.516  21.308  0.00  0.00    +0.000 A 
ATOM     24  C   UNL     1       1.662   3.301  21.636  0.00  0.00    +0.000 A 
ATOM     25  C   UNL     1       0.823   3.769  20.628  0.00  0.00    +0.000 A 
ATOM     26  C   UNL     1       1.076   3.438  19.295  0.00  0.00    +0.000 A 
ENDBRANCH  20  21
ENDBRANCH  19  20
ENDBRANCH  18  19
ENDBRANCH  17  18
ENDBRANCH   6  17
TORSDOF 7
ENDMDL
MODEL 7
REMARK VINA RESULT:      -6.4      2.700      4.294
REMARK  Name = 
REMARK  9 active torsions:
REMARK  status: ('A' for Active; 'I' for Inactive)
REMARK    1  A    between atoms: C_1  and  C_2
REMARK    2  A    between atoms: C_2  and  C_3
REMARK    3  A    between atoms: C_2  and  C_4
REMARK    4  A    between atoms: N_6  and  C_7
REMARK    5  A    between atoms: C_12  and  S_13
REMARK    6  A    between atoms: S_13  and  C_14
REMARK    7  A    between atoms: C_14  and  C_15
REMARK    8  A    between atoms: C_15  and  O_16
REMARK    9  A    between atoms: O_16  and  C_17
REMARK                            x       y       z     vdW  Elec       q    Type
REMARK                         _______ _______ _______ _____ _____    ______ ____
ROOT
ATOM      1  C   UNL     1       0.864   9.243  20.183  0.00  0.00    +0.000 A 
ATOM      2  C   UNL     1       1.388   9.458  18.908  0.00  0.00    +0.000 A 
ATOM      3  C   UNL     1       2.149   8.483  18.257  0.00  0.00    +0.000 A 
ATOM      4  C   UNL     1       2.394   7.259  18.890  0.00  0.00    +0.000 A 
ATOM      5  N   UNL     1       3.099   6.206  18.342  0.00  0.00    +0.000 NA
ATOM      6  C   UNL     1       3.138   5.208  19.190  0.00  0.00    +0.000 A 
ATOM      7  S   UNL     1       2.365   5.471  20.695  0.00  0.00    +0.000 S 
ATOM      8  C   UNL     1       1.905   7.056  20.183  0.00  0.00    +0.000 A 
ATOM      9  C   UNL     1       1.158   8.046  20.859  0.00  0.00    +0.000 A 
ENDROOT
BRANCH   1  12
ATOM     10  C   UNL     1       0.460  11.449  21.269  0.00  0.00    +0.000 C 
ATOM     11  O   UNL     1       1.572  11.933  21.071  0.00  0.00    +0.000 OA
ATOM     12  N   UNL     1       0.041  10.200  20.826  0.00  0.00    +0.000 N 
ATOM     13  H   UNL     1      -0.956  10.016  20.837  0.00  0.00    +0.000 HD
BRANCH  10  15
ATOM     14  C   UNL     1      -1.555  12.944  21.041  0.00  0.00    +0.000 C 
ATOM     15  C   UNL     1      -0.613  12.244  22.016  0.00  0.00    +0.000 C 
ATOM     16  C   UNL     1      -1.417  11.311  22.929  0.00  0.00    +0.000 C 
ENDBRANCH  10  15
ENDBRANCH   1  12
BRANCH   6  17
ATOM     17  S   UNL     1       3.985   3.725  18.787  0.00  0.00    +0.000 S 
BRANCH  17  18
ATOM     18  C   UNL     1       3.749   3.681  16.973  0.00  0.00    +0.000 C 
BRANCH  18  19
ATOM     19  C   UNL     1       4.800   4.529  16.258  0.00  0.00    +0.000 C 
BRANCH  19  20
ATOM     20  O   UNL     1       6.100   4.232  16.780  0.00  0.00    +0.000 OA
BRANCH  20  21
ATOM     21  C   UNL     1       6.764   5.308  17.311  0.00  0.00    +0.000 A 
ATOM     22  C   UNL     1       7.432   5.069  18.513  0.00  0.00    +0.000 A 
ATOM     23  C   UNL     1       8.132   6.098  19.150  0.00  0.00    +0.000 A 
ATOM     24  C   UNL     1       8.181   7.367  18.578  0.00  0.00    +0.000 A 
ATOM     25  C   UNL     1       7.541   7.605  17.365  0.00  0.00    +0.000 A 
ATOM     26  C   UNL     1       6.837   6.577  16.731  0.00  0.00    +0.000 A 
ENDBRANCH  20  21
ENDBRANCH  19  20
ENDBRANCH  18  19
ENDBRANCH  17  18
ENDBRANCH   6  17
TORSDOF 7
ENDMDL
MODEL 8
REMARK VINA RESULT:      -6.4      2.383      3.084
REMARK  Name = 
REMARK  9 active torsions:
REMARK  status: ('A' for Active; 'I' for Inactive)
REMARK    1  A    between atoms: C_1  and  C_2
REMARK    2  A    between atoms: C_2  and  C_3
REMARK    3  A    between atoms: C_2  and  C_4
REMARK    4  A    between atoms: N_6  and  C_7
REMARK    5  A    between atoms: C_12  and  S_13
REMARK    6  A    between atoms: S_13  and  C_14
REMARK    7  A    between atoms: C_14  and  C_15
REMARK    8  A    between atoms: C_15  and  O_16
REMARK    9  A    between atoms: O_16  and  C_17
REMARK                            x       y       z     vdW  Elec       q    Type
REMARK                         _______ _______ _______ _____ _____    ______ ____
ROOT
ATOM      1  C   UNL     1       0.163  10.763  20.244  0.00  0.00    +0.000 A 
ATOM      2  C   UNL     1       0.570  11.235  18.996  0.00  0.00    +0.000 A 
ATOM      3  C   UNL     1       1.376  10.466  18.152  0.00  0.00    +0.000 A 
ATOM      4  C   UNL     1       1.788   9.192  18.558  0.00  0.00    +0.000 A 
ATOM      5  N   UNL     1       2.554   8.325  17.805  0.00  0.00    +0.000 NA
ATOM      6  C   UNL     1       2.754   7.215  18.472  0.00  0.00    +0.000 A 
ATOM      7  S   UNL     1       2.069   7.147  20.040  0.00  0.00    +0.000 S 
ATOM      8  C   UNL     1       1.416   8.733  19.824  0.00  0.00    +0.000 A 
ATOM      9  C   UNL     1       0.623   9.514  20.695  0.00  0.00    +0.000 A 
ENDROOT
BRANCH   1  12
ATOM     10  C   UNL     1      -0.793  11.375  22.462  0.00  0.00    +0.000 C 
ATOM     11  O   UNL     1      -0.062  10.671  23.153  0.00  0.00    +0.000 OA
ATOM     12  N   UNL     1      -0.704  11.508  21.081  0.00  0.00    +0.000 N 
ATOM     13  H   UNL     1      -1.192  12.289  20.659  0.00  0.00    +0.000 HD
BRANCH  10  15
ATOM     14  C   UNL     1      -1.318  13.577  23.569  0.00  0.00    +0.000 C 
ATOM     15  C   UNL     1      -1.881  12.237  23.107  0.00  0.00    +0.000 C 
ATOM     16  C   UNL     1      -3.022  12.473  22.110  0.00  0.00    +0.000 C 
ENDBRANCH  10  15
ENDBRANCH   1  12
BRANCH   6  17
ATOM     17  S   UNL     1       3.714   5.919  17.783  0.00  0.00    +0.000 S 
BRANCH  17  18
ATOM     18  C   UNL     1       4.617   5.339  19.265  0.00  0.00    +0.000 C 
BRANCH  18  19
ATOM     19  C   UNL     1       5.323   4.011  18.998  0.00  0.00    +0.000 C 
BRANCH  19  20
ATOM     20  O   UNL     1       4.815   3.005  19.881  0.00  0.00    +0.000 OA
BRANCH  20  21
ATOM     21  C   UNL     1       3.448   2.889  19.894  0.00  0.00    +0.000 A 
ATOM     22  C   UNL     1       2.877   2.379  18.727  0.00  0.00    +0.000 A 
ATOM     23  C   UNL     1       1.491   2.230  18.625  0.00  0.00    +0.000 A 
ATOM     24  C   UNL     1       0.671   2.575  19.697  0.00  0.00    +0.000 A 
ATOM     25  C   UNL     1       1.236   3.058  20.874  0.00  0.00    +0.000 A 
ATOM     26  C   UNL     1       2.621   3.211  20.974  0.00  0.00    +0.000 A 
ENDBRANCH  20  21
ENDBRANCH  19  20
ENDBRANCH  18  19
ENDBRANCH  17  18
ENDBRANCH   6  17
TORSDOF 7
ENDMDL
MODEL 9
REMARK VINA RESULT:      -6.4      2.552      4.093
REMARK  Name = 
REMARK  9 active torsions:
REMARK  status: ('A' for Active; 'I' for Inactive)
REMARK    1  A    between atoms: C_1  and  C_2
REMARK    2  A    between atoms: C_2  and  C_3
REMARK    3  A    between atoms: C_2  and  C_4
REMARK    4  A    between atoms: N_6  and  C_7
REMARK    5  A    between atoms: C_12  and  S_13
REMARK    6  A    between atoms: S_13  and  C_14
REMARK    7  A    between atoms: C_14  and  C_15
REMARK    8  A    between atoms: C_15  and  O_16
REMARK    9  A    between atoms: O_16  and  C_17
REMARK                            x       y       z     vdW  Elec       q    Type
REMARK                         _______ _______ _______ _____ _____    ______ ____
ROOT
ATOM      1  C   UNL     1       1.505   8.876  19.906  0.00  0.00    +0.000 A 
ATOM      2  C   UNL     1       1.872   8.752  18.566  0.00  0.00    +0.000 A 
ATOM      3  C   UNL     1       2.188   7.511  18.006  0.00  0.00    +0.000 A 
ATOM      4  C   UNL     1       2.136   6.360  18.800  0.00  0.00    +0.000 A 
ATOM      5  N   UNL     1       2.390   5.077  18.360  0.00  0.00    +0.000 NA
ATOM      6  C   UNL     1       2.247   4.231  19.349  0.00  0.00    +0.000 A 
ATOM      7  S   UNL     1       1.828   4.911  20.864  0.00  0.00    +0.000 S 
ATOM      8  C   UNL     1       1.808   6.485  20.152  0.00  0.00    +0.000 A 
ATOM      9  C   UNL     1       1.513   7.739  20.733  0.00  0.00    +0.000 A 
ENDROOT
BRANCH   1  12
ATOM     10  C   UNL     1      -0.083  10.768  20.233  0.00  0.00    +0.000 C 
ATOM     11  O   UNL     1      -1.022  10.304  19.590  0.00  0.00    +0.000 OA
ATOM     12  N   UNL     1       1.124  10.119  20.468  0.00  0.00    +0.000 N 
ATOM     13  H   UNL     1       1.714  10.493  21.201  0.00  0.00    +0.000 HD
BRANCH  10  15
ATOM     14  C   UNL     1      -0.638  12.021  22.347  0.00  0.00    +0.000 C 
ATOM     15  C   UNL     1      -0.196  12.144  20.892  0.00  0.00    +0.000 C 
ATOM     16  C   UNL     1       1.153  12.871  20.822  0.00  0.00    +0.000 C 
ENDBRANCH  10  15
ENDBRANCH   1  12
BRANCH   6  17
ATOM     17  S   UNL     1       2.524   2.515  19.106  0.00  0.00    +0.000 S 
BRANCH  17  18
ATOM     18  C   UNL     1       4.351   2.452  19.180  0.00  0.00    +0.000 C 
BRANCH  18  19
ATOM     19  C   UNL     1       4.976   3.631  18.437  0.00  0.00    +0.000 C 
BRANCH  19  20
ATOM     20  O   UNL     1       6.160   4.062  19.118  0.00  0.00    +0.000 OA
BRANCH  20  21
ATOM     21  C   UNL     1       6.677   5.251  18.671  0.00  0.00    +0.000 A 
ATOM     22  C   UNL     1       5.972   5.862  17.633  0.00  0.00    +0.000 A 
ATOM     23  C   UNL     1       6.417   7.071  17.091  0.00  0.00    +0.000 A 
ATOM     24  C   UNL     1       7.561   7.685  17.599  0.00  0.00    +0.000 A 
ATOM     25  C   UNL     1       8.252   7.095  18.654  0.00  0.00    +0.000 A 
ATOM     26  C   UNL     1       7.810   5.884  19.191  0.00  0.00    +0.000 A 
ENDBRANCH  20  21
ENDBRANCH  19  20
ENDBRANCH  18  19
ENDBRANCH  17  18
ENDBRANCH   6  17
TORSDOF 7
ENDMDL
