MODEL 1
REMARK VINA RESULT:      -9.0      0.000      0.000
REMARK  Name = 
REMARK  5 active torsions:
REMARK  status: ('A' for Active; 'I' for Inactive)
REMARK    1  A    between atoms: C_1  and  C_2
REMARK    2  A    between atoms: C_5  and  S_6
REMARK    3  A    between atoms: S_6  and  N_9
REMARK    4  A    between atoms: C_15  and  N_16
REMARK    5  A    between atoms: C_17  and  C_19
REMARK                            x       y       z     vdW  Elec       q    Type
REMARK                         _______ _______ _______ _____ _____    ______ ____
ROOT
ATOM      1  N   UNL     1       5.808   5.396  17.973  0.00  0.00    +0.000 N 
ATOM      2  C   UNL     1       5.530   3.999  18.393  0.00  0.00    +0.000 C 
ATOM      3  C   UNL     1       4.414   3.822  19.363  0.00  0.00    +0.000 C 
ATOM      4  C   UNL     1       3.433   4.880  19.683  0.00  0.00    +0.000 C 
ATOM      5  C   UNL     1       3.549   6.089  18.848  0.00  0.00    +0.000 A 
ATOM      6  C   UNL     1       2.435   6.943  19.139  0.00  0.00    +0.000 A 
ATOM      7  C   UNL     1       2.154   8.094  18.473  0.00  0.00    +0.000 A 
ATOM      8  C   UNL     1       3.126   8.380  17.486  0.00  0.00    +0.000 A 
ATOM      9  C   UNL     1       4.331   7.521  17.220  0.00  0.00    +0.000 A 
ATOM     10  C   UNL     1       4.573   6.316  17.902  0.00  0.00    +0.000 A 
ENDROOT
BRANCH   7  11
ATOM     11  N   UNL     1       0.959   8.860  18.808  0.00  0.00    +0.000 N 
ATOM     12  C   UNL     1       0.821  10.280  18.725  0.00  0.00    +0.000 C 
ATOM     13  O   UNL     1       1.717  11.042  18.353  0.00  0.00    +0.000 OA
ATOM     14  H   UNL     1       0.161   8.335  19.143  0.00  0.00    +0.000 HD
BRANCH  12  15
ATOM     15  C   UNL     1      -0.472  11.007  19.087  0.00  0.00    +0.000 A 
ATOM     16  C   UNL     1      -0.515  11.695  20.341  0.00  0.00    +0.000 A 
ATOM     17  C   UNL     1      -1.664  12.369  20.807  0.00  0.00    +0.000 A 
ATOM     18  C   UNL     1      -2.810  12.373  20.022  0.00  0.00    +0.000 A 
ATOM     19  C   UNL     1      -2.809  11.680  18.806  0.00  0.00    +0.000 A 
ATOM     20  C   UNL     1      -1.662  11.000  18.350  0.00  0.00    +0.000 A 
ATOM     21 CL   UNL     1      -1.869  10.068  16.914  0.00  0.00    +0.000 Cl
ENDBRANCH  12  15
ENDBRANCH   7  11
BRANCH   1  22
ATOM     22  S   UNL     1       7.223   5.302  16.904  0.00  0.00    +0.000 S 
ATOM     23  O   UNL     1       8.077   4.238  17.346  0.00  0.00    +0.000 OA
ATOM     24  O   UNL     1       7.749   6.654  16.710  0.00  0.00    +0.000 OA
BRANCH  22  29
ATOM     25  C   UNL     1       5.136   2.907  11.473  0.00  0.00    +0.000 C 
ATOM     26  C   UNL     1       5.620   3.622  12.717  0.00  0.00    +0.000 A 
ATOM     27  C   UNL     1       4.813   3.692  13.867  0.00  0.00    +0.000 A 
ATOM     28  C   UNL     1       5.274   4.263  15.083  0.00  0.00    +0.000 A 
ATOM     29  C   UNL     1       6.572   4.771  15.186  0.00  0.00    +0.000 A 
ATOM     30  C   UNL     1       7.369   4.777  14.014  0.00  0.00    +0.000 A 
ATOM     31  C   UNL     1       6.894   4.201  12.793  0.00  0.00    +0.000 A 
ENDBRANCH  22  29
ENDBRANCH   1  22
TORSDOF 4
ENDMDL
MODEL 2
REMARK VINA RESULT:      -8.8      1.003      1.329
REMARK  Name = 
REMARK  5 active torsions:
REMARK  status: ('A' for Active; 'I' for Inactive)
REMARK    1  A    between atoms: C_1  and  C_2
REMARK    2  A    between atoms: C_5  and  S_6
REMARK    3  A    between atoms: S_6  and  N_9
REMARK    4  A    between atoms: C_15  and  N_16
REMARK    5  A    between atoms: C_17  and  C_19
REMARK                            x       y       z     vdW  Elec       q    Type
REMARK                         _______ _______ _______ _____ _____    ______ ____
ROOT
ATOM      1  N   UNL     1       5.839   5.390  17.968  0.00  0.00    +0.000 N 
ATOM      2  C   UNL     1       5.594   3.995  18.412  0.00  0.00    +0.000 C 
ATOM      3  C   UNL     1       4.489   3.809  19.391  0.00  0.00    +0.000 C 
ATOM      4  C   UNL     1       3.487   4.850  19.702  0.00  0.00    +0.000 C 
ATOM      5  C   UNL     1       3.571   6.048  18.847  0.00  0.00    +0.000 A 
ATOM      6  C   UNL     1       2.441   6.882  19.132  0.00  0.00    +0.000 A 
ATOM      7  C   UNL     1       2.130   8.016  18.450  0.00  0.00    +0.000 A 
ATOM      8  C   UNL     1       3.089   8.308  17.452  0.00  0.00    +0.000 A 
ATOM      9  C   UNL     1       4.311   7.470  17.191  0.00  0.00    +0.000 A 
ATOM     10  C   UNL     1       4.584   6.282  17.891  0.00  0.00    +0.000 A 
ENDROOT
BRANCH   7  11
ATOM     11  N   UNL     1       0.921   8.760  18.780  0.00  0.00    +0.000 N 
ATOM     12  C   UNL     1       0.757  10.177  18.694  0.00  0.00    +0.000 C 
ATOM     13  O   UNL     1       1.640  10.955  18.321  0.00  0.00    +0.000 OA
ATOM     14  H   UNL     1       0.132   8.222  19.116  0.00  0.00    +0.000 HD
BRANCH  12  15
ATOM     15  C   UNL     1      -0.550  10.881  19.051  0.00  0.00    +0.000 A 
ATOM     16  C   UNL     1      -1.606  10.844  18.086  0.00  0.00    +0.000 A 
ATOM     17  C   UNL     1      -2.846  11.490  18.281  0.00  0.00    +0.000 A 
ATOM     18  C   UNL     1      -3.063  12.196  19.457  0.00  0.00    +0.000 A 
ATOM     19  C   UNL     1      -2.037  12.278  20.405  0.00  0.00    +0.000 A 
ATOM     20  C   UNL     1      -0.797  11.640  20.201  0.00  0.00    +0.000 A 
ATOM     21 CL   UNL     1       0.413  11.965  21.386  0.00  0.00    +0.000 Cl
ENDBRANCH  12  15
ENDBRANCH   7  11
BRANCH   1  22
ATOM     22  S   UNL     1       7.249   5.311  16.892  0.00  0.00    +0.000 S 
ATOM     23  O   UNL     1       8.115   4.254  17.327  0.00  0.00    +0.000 OA
ATOM     24  O   UNL     1       7.763   6.667  16.697  0.00  0.00    +0.000 OA
BRANCH  22  29
ATOM     25  C   UNL     1       5.166   2.906  11.463  0.00  0.00    +0.000 C 
ATOM     26  C   UNL     1       5.645   3.623  12.709  0.00  0.00    +0.000 A 
ATOM     27  C   UNL     1       4.848   3.665  13.867  0.00  0.00    +0.000 A 
ATOM     28  C   UNL     1       5.307   4.238  15.083  0.00  0.00    +0.000 A 
ATOM     29  C   UNL     1       6.594   4.777  15.177  0.00  0.00    +0.000 A 
ATOM     30  C   UNL     1       7.379   4.811  13.997  0.00  0.00    +0.000 A 
ATOM     31  C   UNL     1       6.906   4.233  12.775  0.00  0.00    +0.000 A 
ENDBRANCH  22  29
ENDBRANCH   1  22
TORSDOF 4
ENDMDL
MODEL 3
REMARK VINA RESULT:      -8.5      3.630     10.159
REMARK  Name = 
REMARK  5 active torsions:
REMARK  status: ('A' for Active; 'I' for Inactive)
REMARK    1  A    between atoms: C_1  and  C_2
REMARK    2  A    between atoms: C_5  and  S_6
REMARK    3  A    between atoms: S_6  and  N_9
REMARK    4  A    between atoms: C_15  and  N_16
REMARK    5  A    between atoms: C_17  and  C_19
REMARK                            x       y       z     vdW  Elec       q    Type
REMARK                         _______ _______ _______ _____ _____    ______ ____
ROOT
ATOM      1  N   UNL     1      -0.703  11.067  21.148  0.00  0.00    +0.000 N 
ATOM      2  C   UNL     1      -0.498  10.740  22.581  0.00  0.00    +0.000 C 
ATOM      3  C   UNL     1       0.097   9.405  22.865  0.00  0.00    +0.000 C 
ATOM      4  C   UNL     1       0.731   8.556  21.834  0.00  0.00    +0.000 C 
ATOM      5  C   UNL     1       0.870   9.203  20.516  0.00  0.00    +0.000 A 
ATOM      6  C   UNL     1       1.655   8.346  19.678  0.00  0.00    +0.000 A 
ATOM      7  C   UNL     1       2.082   8.672  18.429  0.00  0.00    +0.000 A 
ATOM      8  C   UNL     1       1.613   9.946  18.030  0.00  0.00    +0.000 A 
ATOM      9  C   UNL     1       0.736  10.821  18.882  0.00  0.00    +0.000 A 
ATOM     10  C   UNL     1       0.341  10.469  20.184  0.00  0.00    +0.000 A 
ENDROOT
BRANCH   7  11
ATOM     11  N   UNL     1       2.930   7.751  17.682  0.00  0.00    +0.000 N 
ATOM     12  C   UNL     1       3.578   6.591  18.208  0.00  0.00    +0.000 C 
ATOM     13  O   UNL     1       3.496   6.225  19.384  0.00  0.00    +0.000 OA
ATOM     14  H   UNL     1       3.083   7.964  16.704  0.00  0.00    +0.000 HD
BRANCH  12  15
ATOM     15  C   UNL     1       4.445   5.670  17.353  0.00  0.00    +0.000 A 
ATOM     16  C   UNL     1       5.650   6.215  16.806  0.00  0.00    +0.000 A 
ATOM     17  C   UNL     1       6.514   5.478  15.968  0.00  0.00    +0.000 A 
ATOM     18  C   UNL     1       6.191   4.164  15.653  0.00  0.00    +0.000 A 
ATOM     19  C   UNL     1       5.003   3.614  16.146  0.00  0.00    +0.000 A 
ATOM     20  C   UNL     1       4.138   4.358  16.975  0.00  0.00    +0.000 A 
ATOM     21 CL   UNL     1       2.644   3.593  17.370  0.00  0.00    +0.000 Cl
ENDBRANCH  12  15
ENDBRANCH   7  11
BRANCH   1  22
ATOM     22  S   UNL     1      -1.495  12.655  21.127  0.00  0.00    +0.000 S 
ATOM     23  O   UNL     1      -0.654  13.593  20.441  0.00  0.00    +0.000 OA
ATOM     24  O   UNL     1      -1.996  12.943  22.471  0.00  0.00    +0.000 OA
BRANCH  22  29
ATOM     25  C   UNL     1      -6.827  11.529  17.980  0.00  0.00    +0.000 C 
ATOM     26  C   UNL     1      -5.516  11.911  18.637  0.00  0.00    +0.000 A 
ATOM     27  C   UNL     1      -5.499  12.596  19.865  0.00  0.00    +0.000 A 
ATOM     28  C   UNL     1      -4.292  12.879  20.558  0.00  0.00    +0.000 A 
ATOM     29  C   UNL     1      -3.060  12.468  20.043  0.00  0.00    +0.000 A 
ATOM     30  C   UNL     1      -3.056  11.846  18.769  0.00  0.00    +0.000 A 
ATOM     31  C   UNL     1      -4.278  11.567  18.077  0.00  0.00    +0.000 A 
ENDBRANCH  22  29
ENDBRANCH   1  22
TORSDOF 4
ENDMDL
MODEL 4
REMARK VINA RESULT:      -8.5      3.116      3.944
REMARK  Name = 
REMARK  5 active torsions:
REMARK  status: ('A' for Active; 'I' for Inactive)
REMARK    1  A    between atoms: C_1  and  C_2
REMARK    2  A    between atoms: C_5  and  S_6
REMARK    3  A    between atoms: S_6  and  N_9
REMARK    4  A    between atoms: C_15  and  N_16
REMARK    5  A    between atoms: C_17  and  C_19
REMARK                            x       y       z     vdW  Elec       q    Type
REMARK                         _______ _______ _______ _____ _____    ______ ____
ROOT
ATOM      1  N   UNL     1       3.995   5.001  19.167  0.00  0.00    +0.000 N 
ATOM      2  C   UNL     1       3.432   3.715  19.649  0.00  0.00    +0.000 C 
ATOM      3  C   UNL     1       2.384   3.817  20.701  0.00  0.00    +0.000 C 
ATOM      4  C   UNL     1       1.706   5.081  21.060  0.00  0.00    +0.000 C 
ATOM      5  C   UNL     1       2.036   6.218  20.182  0.00  0.00    +0.000 A 
ATOM      6  C   UNL     1       1.179   7.313  20.528  0.00  0.00    +0.000 A 
ATOM      7  C   UNL     1       1.124   8.490  19.849  0.00  0.00    +0.000 A 
ATOM      8  C   UNL     1       2.056   8.527  18.786  0.00  0.00    +0.000 A 
ATOM      9  C   UNL     1       3.002   7.405  18.459  0.00  0.00    +0.000 A 
ATOM     10  C   UNL     1       3.009   6.186  19.159  0.00  0.00    +0.000 A 
ENDROOT
BRANCH   7  11
ATOM     11  N   UNL     1       0.171   9.520  20.247  0.00  0.00    +0.000 N 
ATOM     12  C   UNL     1       0.322  10.428  21.340  0.00  0.00    +0.000 C 
ATOM     13  O   UNL     1       1.299  10.446  22.094  0.00  0.00    +0.000 OA
ATOM     14  H   UNL     1      -0.682   9.586  19.705  0.00  0.00    +0.000 HD
BRANCH  12  15
ATOM     15  C   UNL     1      -0.721  11.487  21.686  0.00  0.00    +0.000 A 
ATOM     16  C   UNL     1      -1.485  11.297  22.880  0.00  0.00    +0.000 A 
ATOM     17  C   UNL     1      -2.507  12.183  23.287  0.00  0.00    +0.000 A 
ATOM     18  C   UNL     1      -2.791  13.292  22.501  0.00  0.00    +0.000 A 
ATOM     19  C   UNL     1      -2.083  13.487  21.310  0.00  0.00    +0.000 A 
ATOM     20  C   UNL     1      -1.071  12.593  20.903  0.00  0.00    +0.000 A 
ATOM     21 CL   UNL     1      -0.403  12.884  19.340  0.00  0.00    +0.000 Cl
ENDBRANCH  12  15
ENDBRANCH   7  11
BRANCH   1  22
ATOM     22  S   UNL     1       5.262   4.564  18.003  0.00  0.00    +0.000 S 
ATOM     23  O   UNL     1       4.683   4.462  16.694  0.00  0.00    +0.000 OA
ATOM     24  O   UNL     1       6.048   3.465  18.561  0.00  0.00    +0.000 OA
BRANCH  22  29
ATOM     25  C   UNL     1       8.966   9.639  18.358  0.00  0.00    +0.000 C 
ATOM     26  C   UNL     1       8.141   8.387  18.139  0.00  0.00    +0.000 A 
ATOM     27  C   UNL     1       8.391   7.220  18.884  0.00  0.00    +0.000 A 
ATOM     28  C   UNL     1       7.574   6.064  18.778  0.00  0.00    +0.000 A 
ATOM     29  C   UNL     1       6.466   6.049  17.927  0.00  0.00    +0.000 A 
ATOM     30  C   UNL     1       6.248   7.189  17.113  0.00  0.00    +0.000 A 
ATOM     31  C   UNL     1       7.079   8.349  17.225  0.00  0.00    +0.000 A 
ENDBRANCH  22  29
ENDBRANCH   1  22
TORSDOF 4
ENDMDL
MODEL 5
REMARK VINA RESULT:      -8.4      3.853     10.534
REMARK  Name = 
REMARK  5 active torsions:
REMARK  status: ('A' for Active; 'I' for Inactive)
REMARK    1  A    between atoms: C_1  and  C_2
REMARK    2  A    between atoms: C_5  and  S_6
REMARK    3  A    between atoms: S_6  and  N_9
REMARK    4  A    between atoms: C_15  and  N_16
REMARK    5  A    between atoms: C_17  and  C_19
REMARK                            x       y       z     vdW  Elec       q    Type
REMARK                         _______ _______ _______ _____ _____    ______ ____
ROOT
ATOM      1  N   UNL     1      -1.330  11.606  21.421  0.00  0.00    +0.000 N 
ATOM      2  C   UNL     1      -1.129  11.317  22.863  0.00  0.00    +0.000 C 
ATOM      3  C   UNL     1      -0.527   9.993  23.182  0.00  0.00    +0.000 C 
ATOM      4  C   UNL     1       0.115   9.122  22.175  0.00  0.00    +0.000 C 
ATOM      5  C   UNL     1       0.255   9.735  20.843  0.00  0.00    +0.000 A 
ATOM      6  C   UNL     1       1.048   8.862  20.029  0.00  0.00    +0.000 A 
ATOM      7  C   UNL     1       1.478   9.159  18.774  0.00  0.00    +0.000 A 
ATOM      8  C   UNL     1       1.003  10.419  18.341  0.00  0.00    +0.000 A 
ATOM      9  C   UNL     1       0.118  11.311  19.166  0.00  0.00    +0.000 A 
ATOM     10  C   UNL     1      -0.279  10.990  20.476  0.00  0.00    +0.000 A 
ENDROOT
BRANCH   7  11
ATOM     11  N   UNL     1       2.334   8.224  18.054  0.00  0.00    +0.000 N 
ATOM     12  C   UNL     1       2.878   7.009  18.575  0.00  0.00    +0.000 C 
ATOM     13  O   UNL     1       2.683   6.600  19.724  0.00  0.00    +0.000 OA
ATOM     14  H   UNL     1       2.575   8.467  17.101  0.00  0.00    +0.000 HD
BRANCH  12  15
ATOM     15  C   UNL     1       3.761   6.077  17.749  0.00  0.00    +0.000 A 
ATOM     16  C   UNL     1       4.953   6.628  17.181  0.00  0.00    +0.000 A 
ATOM     17  C   UNL     1       5.830   5.880  16.365  0.00  0.00    +0.000 A 
ATOM     18  C   UNL     1       5.533   4.550  16.096  0.00  0.00    +0.000 A 
ATOM     19  C   UNL     1       4.358   3.993  16.611  0.00  0.00    +0.000 A 
ATOM     20  C   UNL     1       3.480   4.747  17.416  0.00  0.00    +0.000 A 
ATOM     21 CL   UNL     1       2.002   3.967  17.841  0.00  0.00    +0.000 Cl
ENDBRANCH  12  15
ENDBRANCH   7  11
BRANCH   1  22
ATOM     22  S   UNL     1      -2.132  13.189  21.356  0.00  0.00    +0.000 S 
ATOM     23  O   UNL     1      -1.335  14.089  20.575  0.00  0.00    +0.000 OA
ATOM     24  O   UNL     1      -2.560  13.549  22.708  0.00  0.00    +0.000 OA
BRANCH  22  29
ATOM     25  C   UNL     1      -7.162  12.704  17.607  0.00  0.00    +0.000 C 
ATOM     26  C   UNL     1      -6.031  12.743  18.613  0.00  0.00    +0.000 A 
ATOM     27  C   UNL     1      -4.884  11.947  18.440  0.00  0.00    +0.000 A 
ATOM     28  C   UNL     1      -3.762  12.033  19.306  0.00  0.00    +0.000 A 
ATOM     29  C   UNL     1      -3.753  12.938  20.372  0.00  0.00    +0.000 A 
ATOM     30  C   UNL     1      -4.931  13.690  20.605  0.00  0.00    +0.000 A 
ATOM     31  C   UNL     1      -6.058  13.593  19.727  0.00  0.00    +0.000 A 
ENDBRANCH  22  29
ENDBRANCH   1  22
TORSDOF 4
ENDMDL
MODEL 6
REMARK VINA RESULT:      -8.4      3.882     10.792
REMARK  Name = 
REMARK  5 active torsions:
REMARK  status: ('A' for Active; 'I' for Inactive)
REMARK    1  A    between atoms: C_1  and  C_2
REMARK    2  A    between atoms: C_5  and  S_6
REMARK    3  A    between atoms: S_6  and  N_9
REMARK    4  A    between atoms: C_15  and  N_16
REMARK    5  A    between atoms: C_17  and  C_19
REMARK                            x       y       z     vdW  Elec       q    Type
REMARK                         _______ _______ _______ _____ _____    ______ ____
ROOT
ATOM      1  N   UNL     1      -1.003  11.532  21.403  0.00  0.00    +0.000 N 
ATOM      2  C   UNL     1      -0.874  11.134  22.827  0.00  0.00    +0.000 C 
ATOM      3  C   UNL     1      -0.399   9.744  23.074  0.00  0.00    +0.000 C 
ATOM      4  C   UNL     1       0.198   8.887  22.028  0.00  0.00    +0.000 C 
ATOM      5  C   UNL     1       0.433   9.570  20.744  0.00  0.00    +0.000 A 
ATOM      6  C   UNL     1       1.174   8.683  19.895  0.00  0.00    +0.000 A 
ATOM      7  C   UNL     1       1.668   9.021  18.675  0.00  0.00    +0.000 A 
ATOM      8  C   UNL     1       1.318  10.343  18.314  0.00  0.00    +0.000 A 
ATOM      9  C   UNL     1       0.486  11.255  19.173  0.00  0.00    +0.000 A 
ATOM     10  C   UNL     1       0.021  10.887  20.448  0.00  0.00    +0.000 A 
ENDROOT
BRANCH   7  11
ATOM     11  N   UNL     1       2.463   8.063  17.916  0.00  0.00    +0.000 N 
ATOM     12  C   UNL     1       3.055   6.868  18.431  0.00  0.00    +0.000 C 
ATOM     13  O   UNL     1       2.962   6.500  19.605  0.00  0.00    +0.000 OA
ATOM     14  H   UNL     1       2.620   8.273  16.938  0.00  0.00    +0.000 HD
BRANCH  12  15
ATOM     15  C   UNL     1       3.868   5.909  17.565  0.00  0.00    +0.000 A 
ATOM     16  C   UNL     1       4.977   6.451  16.840  0.00  0.00    +0.000 A 
ATOM     17  C   UNL     1       5.779   5.677  15.975  0.00  0.00    +0.000 A 
ATOM     18  C   UNL     1       5.491   4.327  15.813  0.00  0.00    +0.000 A 
ATOM     19  C   UNL     1       4.394   3.777  16.483  0.00  0.00    +0.000 A 
ATOM     20  C   UNL     1       3.589   4.557  17.338  0.00  0.00    +0.000 A 
ATOM     21 CL   UNL     1       2.187   3.771  17.964  0.00  0.00    +0.000 Cl
ENDBRANCH  12  15
ENDBRANCH   7  11
BRANCH   1  22
ATOM     22  S   UNL     1      -1.663  13.180  21.423  0.00  0.00    +0.000 S 
ATOM     23  O   UNL     1      -1.267  13.860  20.225  0.00  0.00    +0.000 OA
ATOM     24  O   UNL     1      -1.406  13.768  22.738  0.00  0.00    +0.000 OA
BRANCH  22  29
ATOM     25  C   UNL     1      -7.842  11.992  21.379  0.00  0.00    +0.000 C 
ATOM     26  C   UNL     1      -6.388  12.412  21.324  0.00  0.00    +0.000 A 
ATOM     27  C   UNL     1      -5.705  12.799  22.491  0.00  0.00    +0.000 A 
ATOM     28  C   UNL     1      -4.317  13.098  22.493  0.00  0.00    +0.000 A 
ATOM     29  C   UNL     1      -3.565  13.005  21.319  0.00  0.00    +0.000 A 
ATOM     30  C   UNL     1      -4.255  12.692  20.121  0.00  0.00    +0.000 A 
ATOM     31  C   UNL     1      -5.655  12.394  20.129  0.00  0.00    +0.000 A 
ENDBRANCH  22  29
ENDBRANCH   1  22
TORSDOF 4
ENDMDL
MODEL 7
REMARK VINA RESULT:      -8.3      3.647     10.163
REMARK  Name = 
REMARK  5 active torsions:
REMARK  status: ('A' for Active; 'I' for Inactive)
REMARK    1  A    between atoms: C_1  and  C_2
REMARK    2  A    between atoms: C_5  and  S_6
REMARK    3  A    between atoms: S_6  and  N_9
REMARK    4  A    between atoms: C_15  and  N_16
REMARK    5  A    between atoms: C_17  and  C_19
REMARK                            x       y       z     vdW  Elec       q    Type
REMARK                         _______ _______ _______ _____ _____    ______ ____
ROOT
ATOM      1  N   UNL     1      -0.555  10.900  20.991  0.00  0.00    +0.000 N 
ATOM      2  C   UNL     1      -0.445  10.463  22.406  0.00  0.00    +0.000 C 
ATOM      3  C   UNL     1       0.098   9.094  22.623  0.00  0.00    +0.000 C 
ATOM      4  C   UNL     1       0.772   8.305  21.570  0.00  0.00    +0.000 C 
ATOM      5  C   UNL     1       1.006   9.041  20.315  0.00  0.00    +0.000 A 
ATOM      6  C   UNL     1       1.819   8.225  19.463  0.00  0.00    +0.000 A 
ATOM      7  C   UNL     1       2.329   8.629  18.269  0.00  0.00    +0.000 A 
ATOM      8  C   UNL     1       1.916   9.942  17.939  0.00  0.00    +0.000 A 
ATOM      9  C   UNL     1       1.011  10.778  18.801  0.00  0.00    +0.000 A 
ATOM     10  C   UNL     1       0.530  10.344  20.048  0.00  0.00    +0.000 A 
ENDROOT
BRANCH   7  11
ATOM     11  N   UNL     1       3.197   7.741  17.505  0.00  0.00    +0.000 N 
ATOM     12  C   UNL     1       3.958   6.652  18.033  0.00  0.00    +0.000 C 
ATOM     13  O   UNL     1       3.971   6.330  19.224  0.00  0.00    +0.000 OA
ATOM     14  H   UNL     1       3.277   7.924  16.513  0.00  0.00    +0.000 HD
BRANCH  12  15
ATOM     15  C   UNL     1       4.838   5.761  17.162  0.00  0.00    +0.000 A 
ATOM     16  C   UNL     1       4.302   4.499  16.753  0.00  0.00    +0.000 A 
ATOM     17  C   UNL     1       5.031   3.569  15.981  0.00  0.00    +0.000 A 
ATOM     18  C   UNL     1       6.328   3.881  15.594  0.00  0.00    +0.000 A 
ATOM     19  C   UNL     1       6.892   5.094  16.006  0.00  0.00    +0.000 A 
ATOM     20  C   UNL     1       6.163   6.015  16.786  0.00  0.00    +0.000 A 
ATOM     21 CL   UNL     1       7.047   7.387  17.342  0.00  0.00    +0.000 Cl
ENDBRANCH  12  15
ENDBRANCH   7  11
BRANCH   1  22
ATOM     22  S   UNL     1      -1.306  12.508  21.043  0.00  0.00    +0.000 S 
ATOM     23  O   UNL     1      -0.438  13.453  20.402  0.00  0.00    +0.000 OA
ATOM     24  O   UNL     1      -1.802  12.746  22.398  0.00  0.00    +0.000 OA
BRANCH  22  29
ATOM     25  C   UNL     1      -6.692  11.724  17.886  0.00  0.00    +0.000 C 
ATOM     26  C   UNL     1      -5.357  12.016  18.540  0.00  0.00    +0.000 A 
ATOM     27  C   UNL     1      -5.287  12.757  19.733  0.00  0.00    +0.000 A 
ATOM     28  C   UNL     1      -4.065  12.961  20.428  0.00  0.00    +0.000 A 
ATOM     29  C   UNL     1      -2.872  12.412  19.949  0.00  0.00    +0.000 A 
ATOM     30  C   UNL     1      -2.915  11.729  18.707  0.00  0.00    +0.000 A 
ATOM     31  C   UNL     1      -4.151  11.531  18.014  0.00  0.00    +0.000 A 
ENDBRANCH  22  29
ENDBRANCH   1  22
TORSDOF 4
ENDMDL
MODEL 8
REMARK VINA RESULT:      -8.3      4.607     11.392
REMARK  Name = 
REMARK  5 active torsions:
REMARK  status: ('A' for Active; 'I' for Inactive)
REMARK    1  A    between atoms: C_1  and  C_2
REMARK    2  A    between atoms: C_5  and  S_6
REMARK    3  A    between atoms: S_6  and  N_9
REMARK    4  A    between atoms: C_15  and  N_16
REMARK    5  A    between atoms: C_17  and  C_19
REMARK                            x       y       z     vdW  Elec       q    Type
REMARK                         _______ _______ _______ _____ _____    ______ ____
ROOT
ATOM      1  N   UNL     1      -1.093  12.532  20.700  0.00  0.00    +0.000 N 
ATOM      2  C   UNL     1      -2.061  12.570  19.574  0.00  0.00    +0.000 C 
ATOM      3  C   UNL     1      -1.809  11.605  18.468  0.00  0.00    +0.000 C 
ATOM      4  C   UNL     1      -0.864  10.473  18.570  0.00  0.00    +0.000 C 
ATOM      5  C   UNL     1      -0.296  10.275  19.915  0.00  0.00    +0.000 A 
ATOM      6  C   UNL     1       0.448   9.050  19.911  0.00  0.00    +0.000 A 
ATOM      7  C   UNL     1       1.014   8.490  21.012  0.00  0.00    +0.000 A 
ATOM      8  C   UNL     1       0.828   9.291  22.163  0.00  0.00    +0.000 A 
ATOM      9  C   UNL     1       0.103  10.609  22.160  0.00  0.00    +0.000 A 
ATOM     10  C   UNL     1      -0.504  11.142  21.010  0.00  0.00    +0.000 A 
ENDROOT
BRANCH   7  11
ATOM     11  N   UNL     1       1.699   7.207  20.911  0.00  0.00    +0.000 N 
ATOM     12  C   UNL     1       2.379   6.706  19.758  0.00  0.00    +0.000 C 
ATOM     13  O   UNL     1       2.467   7.314  18.688  0.00  0.00    +0.000 OA
ATOM     14  H   UNL     1       1.677   6.612  21.730  0.00  0.00    +0.000 HD
BRANCH  12  15
ATOM     15  C   UNL     1       3.082   5.351  19.736  0.00  0.00    +0.000 A 
ATOM     16  C   UNL     1       4.441   5.319  19.290  0.00  0.00    +0.000 A 
ATOM     17  C   UNL     1       5.186   4.124  19.186  0.00  0.00    +0.000 A 
ATOM     18  C   UNL     1       4.584   2.920  19.530  0.00  0.00    +0.000 A 
ATOM     19  C   UNL     1       3.246   2.917  19.939  0.00  0.00    +0.000 A 
ATOM     20  C   UNL     1       2.504   4.111  20.031  0.00  0.00    +0.000 A 
ATOM     21 CL   UNL     1       0.829   3.922  20.397  0.00  0.00    +0.000 Cl
ENDBRANCH  12  15
ENDBRANCH   7  11
BRANCH   1  22
ATOM     22  S   UNL     1      -1.590  13.832  21.802  0.00  0.00    +0.000 S 
ATOM     23  O   UNL     1      -1.805  15.033  21.049  0.00  0.00    +0.000 OA
ATOM     24  O   UNL     1      -0.698  13.825  22.962  0.00  0.00    +0.000 OA
BRANCH  22  29
ATOM     25  C   UNL     1      -7.334  12.862  24.183  0.00  0.00    +0.000 C 
ATOM     26  C   UNL     1      -5.943  12.945  23.589  0.00  0.00    +0.000 A 
ATOM     27  C   UNL     1      -5.742  13.449  22.292  0.00  0.00    +0.000 A 
ATOM     28  C   UNL     1      -4.446  13.637  21.743  0.00  0.00    +0.000 A 
ATOM     29  C   UNL     1      -3.304  13.334  22.490  0.00  0.00    +0.000 A 
ATOM     30  C   UNL     1      -3.492  12.753  23.769  0.00  0.00    +0.000 A 
ATOM     31  C   UNL     1      -4.803  12.565  24.313  0.00  0.00    +0.000 A 
ENDBRANCH  22  29
ENDBRANCH   1  22
TORSDOF 4
ENDMDL
MODEL 9
REMARK VINA RESULT:      -8.3      4.147     11.323
REMARK  Name = 
REMARK  5 active torsions:
REMARK  status: ('A' for Active; 'I' for Inactive)
REMARK    1  A    between atoms: C_1  and  C_2
REMARK    2  A    between atoms: C_5  and  S_6
REMARK    3  A    between atoms: S_6  and  N_9
REMARK    4  A    between atoms: C_15  and  N_16
REMARK    5  A    between atoms: C_17  and  C_19
REMARK                            x       y       z     vdW  Elec       q    Type
REMARK                         _______ _______ _______ _____ _____    ______ ____
ROOT
ATOM      1  N   UNL     1      -1.172  12.069  21.603  0.00  0.00    +0.000 N 
ATOM      2  C   UNL     1      -1.183  11.603  23.013  0.00  0.00    +0.000 C 
ATOM      3  C   UNL     1      -0.882  10.161  23.223  0.00  0.00    +0.000 C 
ATOM      4  C   UNL     1      -0.314   9.282  22.178  0.00  0.00    +0.000 C 
ATOM      5  C   UNL     1       0.080   9.985  20.944  0.00  0.00    +0.000 A 
ATOM      6  C   UNL     1       0.774   9.054  20.103  0.00  0.00    +0.000 A 
ATOM      7  C   UNL     1       1.384   9.382  18.932  0.00  0.00    +0.000 A 
ATOM      8  C   UNL     1       1.206  10.749  18.613  0.00  0.00    +0.000 A 
ATOM      9  C   UNL     1       0.424  11.714  19.460  0.00  0.00    +0.000 A 
ATOM     10  C   UNL     1      -0.163  11.351  20.684  0.00  0.00    +0.000 A 
ENDROOT
BRANCH   7  11
ATOM     11  N   UNL     1       2.117   8.371  18.181  0.00  0.00    +0.000 N 
ATOM     12  C   UNL     1       2.692   7.178  18.718  0.00  0.00    +0.000 C 
ATOM     13  O   UNL     1       2.635   6.856  19.908  0.00  0.00    +0.000 OA
ATOM     14  H   UNL     1       2.241   8.539  17.190  0.00  0.00    +0.000 HD
BRANCH  12  15
ATOM     15  C   UNL     1       3.439   6.161  17.859  0.00  0.00    +0.000 A 
ATOM     16  C   UNL     1       4.557   6.631  17.100  0.00  0.00    +0.000 A 
ATOM     17  C   UNL     1       5.304   5.800  16.237  0.00  0.00    +0.000 A 
ATOM     18  C   UNL     1       4.947   4.463  16.112  0.00  0.00    +0.000 A 
ATOM     19  C   UNL     1       3.838   3.982  16.816  0.00  0.00    +0.000 A 
ATOM     20  C   UNL     1       3.089   4.819  17.668  0.00  0.00    +0.000 A 
ATOM     21 CL   UNL     1       1.664   4.118  18.339  0.00  0.00    +0.000 Cl
ENDBRANCH  12  15
ENDBRANCH   7  11
BRANCH   1  22
ATOM     22  S   UNL     1      -1.646  13.779  21.659  0.00  0.00    +0.000 S 
ATOM     23  O   UNL     1      -1.631  14.315  20.329  0.00  0.00    +0.000 OA
ATOM     24  O   UNL     1      -0.905  14.432  22.738  0.00  0.00    +0.000 OA
BRANCH  22  29
ATOM     25  C   UNL     1      -7.444  13.676  24.102  0.00  0.00    +0.000 C 
ATOM     26  C   UNL     1      -6.112  13.753  23.385  0.00  0.00    +0.000 A 
ATOM     27  C   UNL     1      -5.181  14.759  23.700  0.00  0.00    +0.000 A 
ATOM     28  C   UNL     1      -3.884  14.800  23.123  0.00  0.00    +0.000 A 
ATOM     29  C   UNL     1      -3.475  13.818  22.217  0.00  0.00    +0.000 A 
ATOM     30  C   UNL     1      -4.429  12.843  21.831  0.00  0.00    +0.000 A 
ATOM     31  C   UNL     1      -5.735  12.811  22.416  0.00  0.00    +0.000 A 
ENDBRANCH  22  29
ENDBRANCH   1  22
TORSDOF 4
ENDMDL
