MODEL 1
REMARK VINA RESULT:      -6.9      0.000      0.000
REMARK  Name = 
REMARK  10 active torsions:
REMARK  status: ('A' for Active; 'I' for Inactive)
REMARK    1  A    between atoms: C_1  and  O_2
REMARK    2  A    between atoms: O_2  and  C_3
REMARK    3  A    between atoms: C_6  and  C_7
REMARK    4  A    between atoms: C_7  and  N_8
REMARK    5  A    between atoms: N_8  and  C_9
REMARK    6  A    between atoms: C_9  and  C_10
REMARK    7  A    between atoms: C_13  and  C_14
REMARK    8  A    between atoms: C_19  and  C_20
REMARK    9  A    between atoms: C_23  and  O_24
REMARK   10  A    between atoms: O_24  and  C_25
REMARK                            x       y       z     vdW  Elec       q    Type
REMARK                         _______ _______ _______ _____ _____    ______ ____
ROOT
ATOM      1  N   UNL     1       2.629   2.787  17.500  0.00  0.00    +0.000 NA
ATOM      2  H   UNL     1       2.313   2.119  16.793  0.00  0.00    +0.000 HD
ENDROOT
BRANCH   1   3
ATOM      3  C   UNL     1       4.049   2.568  17.748  0.00  0.00    +0.000 C 
BRANCH   3   7
ATOM      4  C   UNL     1       6.633   5.884  16.756  0.00  0.00    +0.000 A 
ATOM      5  C   UNL     1       5.892   5.887  17.949  0.00  0.00    +0.000 A 
ATOM      6  C   UNL     1       5.038   4.834  18.262  0.00  0.00    +0.000 A 
ATOM      7  C   UNL     1       4.868   3.775  17.370  0.00  0.00    +0.000 A 
ATOM      8  C   UNL     1       5.524   3.829  16.132  0.00  0.00    +0.000 A 
ATOM      9  C   UNL     1       6.402   4.876  15.809  0.00  0.00    +0.000 A 
BRANCH   4  11
ATOM     10  C   UNL     1       7.714   7.828  17.547  0.00  0.00    +0.000 C 
ATOM     11  O   UNL     1       7.559   6.862  16.507  0.00  0.00    +0.000 OA
ENDBRANCH   4  11
BRANCH   9  12
ATOM     12  O   UNL     1       6.947   4.718  14.563  0.00  0.00    +0.000 OA
ATOM     13  C   UNL     1       6.252   3.942  13.601  0.00  0.00    +0.000 C 
ENDBRANCH   9  12
ENDBRANCH   3   7
ENDBRANCH   1   3
BRANCH   1  14
ATOM     14  C   UNL     1       1.857   2.558  18.719  0.00  0.00    +0.000 C 
BRANCH  14  15
ATOM     15  C   UNL     1       1.967   3.772  19.569  0.00  0.00    +0.000 A 
ATOM     16  C   UNL     1       2.414   3.898  20.861  0.00  0.00    +0.000 A 
ATOM     17  O   UNL     1       2.333   5.213  21.213  0.00  0.00    +0.000 OA
ATOM     18  C   UNL     1       1.831   5.829  20.094  0.00  0.00    +0.000 A 
ATOM     19  N   UNL     1       1.609   5.008  19.085  0.00  0.00    +0.000 NA
BRANCH  18  20
ATOM     20  C   UNL     1       1.559   7.265  20.200  0.00  0.00    +0.000 A 
ATOM     21  C   UNL     1       0.933   7.776  21.351  0.00  0.00    +0.000 A 
ATOM     22  C   UNL     1       0.656   9.138  21.478  0.00  0.00    +0.000 A 
ATOM     23  C   UNL     1       1.000  10.013  20.454  0.00  0.00    +0.000 A 
ATOM     24  C   UNL     1       1.624   9.529  19.306  0.00  0.00    +0.000 A 
ATOM     25  C   UNL     1       1.911   8.160  19.163  0.00  0.00    +0.000 A 
ATOM     26  C   UNL     1       2.581   7.694  17.896  0.00  0.00    +0.000 C 
ENDBRANCH  18  20
ENDBRANCH  14  15
ENDBRANCH   1  14
TORSDOF 7
ENDMDL
MODEL 2
REMARK VINA RESULT:      -6.8      4.590      7.413
REMARK  Name = 
REMARK  10 active torsions:
REMARK  status: ('A' for Active; 'I' for Inactive)
REMARK    1  A    between atoms: C_1  and  O_2
REMARK    2  A    between atoms: O_2  and  C_3
REMARK    3  A    between atoms: C_6  and  C_7
REMARK    4  A    between atoms: C_7  and  N_8
REMARK    5  A    between atoms: N_8  and  C_9
REMARK    6  A    between atoms: C_9  and  C_10
REMARK    7  A    between atoms: C_13  and  C_14
REMARK    8  A    between atoms: C_19  and  C_20
REMARK    9  A    between atoms: C_23  and  O_24
REMARK   10  A    between atoms: O_24  and  C_25
REMARK                            x       y       z     vdW  Elec       q    Type
REMARK                         _______ _______ _______ _____ _____    ______ ____
ROOT
ATOM      1  N   UNL     1       7.820   8.981  17.901  0.00  0.00    +0.000 NA
ATOM      2  H   UNL     1       7.878   9.714  17.189  0.00  0.00    +0.000 HD
ENDROOT
BRANCH   1   3
ATOM      3  C   UNL     1       8.904   9.172  18.857  0.00  0.00    +0.000 C 
BRANCH   3   7
ATOM      4  C   UNL     1       9.558  13.405  19.422  0.00  0.00    +0.000 A 
ATOM      5  C   UNL     1       9.459  12.863  18.130  0.00  0.00    +0.000 A 
ATOM      6  C   UNL     1       9.274  11.497  17.941  0.00  0.00    +0.000 A 
ATOM      7  C   UNL     1       9.231  10.633  19.035  0.00  0.00    +0.000 A 
ATOM      8  C   UNL     1       9.441  11.163  20.316  0.00  0.00    +0.000 A 
ATOM      9  C   UNL     1       9.611  12.541  20.525  0.00  0.00    +0.000 A 
BRANCH   4  11
ATOM     10  C   UNL     1       9.804  15.526  18.417  0.00  0.00    +0.000 C 
ATOM     11  O   UNL     1       9.621  14.760  19.607  0.00  0.00    +0.000 OA
ENDBRANCH   4  11
BRANCH   9  12
ATOM     12  O   UNL     1       9.779  12.838  21.851  0.00  0.00    +0.000 OA
ATOM     13  C   UNL     1       8.637  13.111  22.645  0.00  0.00    +0.000 C 
ENDBRANCH   9  12
ENDBRANCH   3   7
ENDBRANCH   1   3
BRANCH   1  14
ATOM     14  C   UNL     1       7.949   7.688  17.235  0.00  0.00    +0.000 C 
BRANCH  14  15
ATOM     15  C   UNL     1       7.107   6.706  17.966  0.00  0.00    +0.000 A 
ATOM     16  C   UNL     1       7.463   5.786  18.920  0.00  0.00    +0.000 A 
ATOM     17  O   UNL     1       6.341   5.112  19.303  0.00  0.00    +0.000 OA
ATOM     18  C   UNL     1       5.341   5.669  18.545  0.00  0.00    +0.000 A 
ATOM     19  N   UNL     1       5.752   6.633  17.742  0.00  0.00    +0.000 NA
BRANCH  18  20
ATOM     20  C   UNL     1       4.006   5.084  18.686  0.00  0.00    +0.000 A 
ATOM     21  C   UNL     1       3.184   5.465  19.762  0.00  0.00    +0.000 A 
ATOM     22  C   UNL     1       1.910   4.921  19.926  0.00  0.00    +0.000 A 
ATOM     23  C   UNL     1       1.435   3.982  19.016  0.00  0.00    +0.000 A 
ATOM     24  C   UNL     1       2.231   3.592  17.941  0.00  0.00    +0.000 A 
ATOM     25  C   UNL     1       3.516   4.132  17.761  0.00  0.00    +0.000 A 
ATOM     26  C   UNL     1       4.334   3.667  16.583  0.00  0.00    +0.000 C 
ENDBRANCH  18  20
ENDBRANCH  14  15
ENDBRANCH   1  14
TORSDOF 7
ENDMDL
MODEL 3
REMARK VINA RESULT:      -6.8      4.477      7.129
REMARK  Name = 
REMARK  10 active torsions:
REMARK  status: ('A' for Active; 'I' for Inactive)
REMARK    1  A    between atoms: C_1  and  O_2
REMARK    2  A    between atoms: O_2  and  C_3
REMARK    3  A    between atoms: C_6  and  C_7
REMARK    4  A    between atoms: C_7  and  N_8
REMARK    5  A    between atoms: N_8  and  C_9
REMARK    6  A    between atoms: C_9  and  C_10
REMARK    7  A    between atoms: C_13  and  C_14
REMARK    8  A    between atoms: C_19  and  C_20
REMARK    9  A    between atoms: C_23  and  O_24
REMARK   10  A    between atoms: O_24  and  C_25
REMARK                            x       y       z     vdW  Elec       q    Type
REMARK                         _______ _______ _______ _____ _____    ______ ____
ROOT
ATOM      1  N   UNL     1       7.858   8.934  17.961  0.00  0.00    +0.000 NA
ATOM      2  H   UNL     1       8.090   9.688  17.310  0.00  0.00    +0.000 HD
ENDROOT
BRANCH   1   3
ATOM      3  C   UNL     1       8.848   8.920  19.031  0.00  0.00    +0.000 C 
BRANCH   3   7
ATOM      4  C   UNL     1      10.854  12.690  19.686  0.00  0.00    +0.000 A 
ATOM      5  C   UNL     1      10.005  12.152  20.667  0.00  0.00    +0.000 A 
ATOM      6  C   UNL     1       9.335  10.951  20.451  0.00  0.00    +0.000 A 
ATOM      7  C   UNL     1       9.461  10.282  19.233  0.00  0.00    +0.000 A 
ATOM      8  C   UNL     1      10.222  10.877  18.218  0.00  0.00    +0.000 A 
ATOM      9  C   UNL     1      10.916  12.080  18.425  0.00  0.00    +0.000 A 
BRANCH   4  11
ATOM     10  C   UNL     1      10.854  14.953  20.356  0.00  0.00    +0.000 C 
ATOM     11  O   UNL     1      11.601  13.807  19.947  0.00  0.00    +0.000 OA
ENDBRANCH   4  11
BRANCH   9  12
ATOM     12  O   UNL     1      11.609  12.467  17.309  0.00  0.00    +0.000 OA
ATOM     13  C   UNL     1      11.319  13.724  16.721  0.00  0.00    +0.000 C 
ENDBRANCH   9  12
ENDBRANCH   3   7
ENDBRANCH   1   3
BRANCH   1  14
ATOM     14  C   UNL     1       7.884   7.673  17.225  0.00  0.00    +0.000 C 
BRANCH  14  15
ATOM     15  C   UNL     1       7.065   6.684  17.972  0.00  0.00    +0.000 A 
ATOM     16  C   UNL     1       7.448   5.762  18.913  0.00  0.00    +0.000 A 
ATOM     17  O   UNL     1       6.339   5.081  19.320  0.00  0.00    +0.000 OA
ATOM     18  C   UNL     1       5.318   5.637  18.589  0.00  0.00    +0.000 A 
ATOM     19  N   UNL     1       5.705   6.606  17.780  0.00  0.00    +0.000 NA
BRANCH  18  20
ATOM     20  C   UNL     1       3.989   5.046  18.760  0.00  0.00    +0.000 A 
ATOM     21  C   UNL     1       3.178   5.445  19.837  0.00  0.00    +0.000 A 
ATOM     22  C   UNL     1       1.910   4.894  20.029  0.00  0.00    +0.000 A 
ATOM     23  C   UNL     1       1.432   3.932  19.146  0.00  0.00    +0.000 A 
ATOM     24  C   UNL     1       2.217   3.524  18.070  0.00  0.00    +0.000 A 
ATOM     25  C   UNL     1       3.496   4.069  17.862  0.00  0.00    +0.000 A 
ATOM     26  C   UNL     1       4.303   3.584  16.685  0.00  0.00    +0.000 C 
ENDBRANCH  18  20
ENDBRANCH  14  15
ENDBRANCH   1  14
TORSDOF 7
ENDMDL
MODEL 4
REMARK VINA RESULT:      -6.8      1.210      2.430
REMARK  Name = 
REMARK  10 active torsions:
REMARK  status: ('A' for Active; 'I' for Inactive)
REMARK    1  A    between atoms: C_1  and  O_2
REMARK    2  A    between atoms: O_2  and  C_3
REMARK    3  A    between atoms: C_6  and  C_7
REMARK    4  A    between atoms: C_7  and  N_8
REMARK    5  A    between atoms: N_8  and  C_9
REMARK    6  A    between atoms: C_9  and  C_10
REMARK    7  A    between atoms: C_13  and  C_14
REMARK    8  A    between atoms: C_19  and  C_20
REMARK    9  A    between atoms: C_23  and  O_24
REMARK   10  A    between atoms: O_24  and  C_25
REMARK                            x       y       z     vdW  Elec       q    Type
REMARK                         _______ _______ _______ _____ _____    ______ ____
ROOT
ATOM      1  N   UNL     1       4.720   3.336  18.824  0.00  0.00    +0.000 NA
ATOM      2  H   UNL     1       5.104   4.241  19.107  0.00  0.00    +0.000 HD
ENDROOT
BRANCH   1   3
ATOM      3  C   UNL     1       4.233   3.444  17.454  0.00  0.00    +0.000 C 
BRANCH   3   7
ATOM      4  C   UNL     1       7.136   5.040  14.679  0.00  0.00    +0.000 A 
ATOM      5  C   UNL     1       6.431   3.862  14.379  0.00  0.00    +0.000 A 
ATOM      6  C   UNL     1       5.513   3.329  15.280  0.00  0.00    +0.000 A 
ATOM      7  C   UNL     1       5.313   3.932  16.522  0.00  0.00    +0.000 A 
ATOM      8  C   UNL     1       6.097   5.043  16.862  0.00  0.00    +0.000 A 
ATOM      9  C   UNL     1       7.014   5.603  15.958  0.00  0.00    +0.000 A 
BRANCH   4  11
ATOM     10  C   UNL     1       7.676   5.256  12.392  0.00  0.00    +0.000 C 
ATOM     11  O   UNL     1       7.947   5.625  13.745  0.00  0.00    +0.000 OA
ENDBRANCH   4  11
BRANCH   9  12
ATOM     12  O   UNL     1       7.655   6.690  16.489  0.00  0.00    +0.000 OA
ATOM     13  C   UNL     1       7.565   6.929  17.884  0.00  0.00    +0.000 C 
ENDBRANCH   9  12
ENDBRANCH   3   7
ENDBRANCH   1   3
BRANCH   1  14
ATOM     14  C   UNL     1       3.625   3.003  19.730  0.00  0.00    +0.000 C 
BRANCH  14  15
ATOM     15  C   UNL     1       2.912   4.259  20.076  0.00  0.00    +0.000 A 
ATOM     16  C   UNL     1       2.072   4.529  21.127  0.00  0.00    +0.000 A 
ATOM     17  O   UNL     1       1.666   5.827  21.027  0.00  0.00    +0.000 OA
ATOM     18  C   UNL     1       2.293   6.287  19.895  0.00  0.00    +0.000 A 
ATOM     19  N   UNL     1       3.056   5.388  19.303  0.00  0.00    +0.000 NA
BRANCH  18  20
ATOM     20  C   UNL     1       1.980   7.657  19.482  0.00  0.00    +0.000 A 
ATOM     21  C   UNL     1       1.200   8.479  20.314  0.00  0.00    +0.000 A 
ATOM     22  C   UNL     1       0.881   9.787  19.945  0.00  0.00    +0.000 A 
ATOM     23  C   UNL     1       1.337  10.295  18.733  0.00  0.00    +0.000 A 
ATOM     24  C   UNL     1       2.115   9.500  17.894  0.00  0.00    +0.000 A 
ATOM     25  C   UNL     1       2.446   8.181  18.253  0.00  0.00    +0.000 A 
ATOM     26  C   UNL     1       3.284   7.365  17.302  0.00  0.00    +0.000 C 
ENDBRANCH  18  20
ENDBRANCH  14  15
ENDBRANCH   1  14
TORSDOF 7
ENDMDL
MODEL 5
REMARK VINA RESULT:      -6.8      2.236      7.537
REMARK  Name = 
REMARK  10 active torsions:
REMARK  status: ('A' for Active; 'I' for Inactive)
REMARK    1  A    between atoms: C_1  and  O_2
REMARK    2  A    between atoms: O_2  and  C_3
REMARK    3  A    between atoms: C_6  and  C_7
REMARK    4  A    between atoms: C_7  and  N_8
REMARK    5  A    between atoms: N_8  and  C_9
REMARK    6  A    between atoms: C_9  and  C_10
REMARK    7  A    between atoms: C_13  and  C_14
REMARK    8  A    between atoms: C_19  and  C_20
REMARK    9  A    between atoms: C_23  and  O_24
REMARK   10  A    between atoms: O_24  and  C_25
REMARK                            x       y       z     vdW  Elec       q    Type
REMARK                         _______ _______ _______ _____ _____    ______ ____
ROOT
ATOM      1  N   UNL     1       3.837   7.489  16.906  0.00  0.00    +0.000 NA
ATOM      2  H   UNL     1       3.874   8.294  16.276  0.00  0.00    +0.000 HD
ENDROOT
BRANCH   1   3
ATOM      3  C   UNL     1       2.892   7.778  17.977  0.00  0.00    +0.000 C 
BRANCH   3   7
ATOM      4  C   UNL     1       1.428   4.242  19.983  0.00  0.00    +0.000 A 
ATOM      5  C   UNL     1       1.751   5.397  20.714  0.00  0.00    +0.000 A 
ATOM      6  C   UNL     1       2.248   6.531  20.077  0.00  0.00    +0.000 A 
ATOM      7  C   UNL     1       2.478   6.522  18.701  0.00  0.00    +0.000 A 
ATOM      8  C   UNL     1       2.257   5.333  17.992  0.00  0.00    +0.000 A 
ATOM      9  C   UNL     1       1.741   4.187  18.617  0.00  0.00    +0.000 A 
BRANCH   4  11
ATOM     10  C   UNL     1       1.598   2.561  21.631  0.00  0.00    +0.000 C 
ATOM     11  O   UNL     1       0.830   3.174  20.595  0.00  0.00    +0.000 OA
ENDBRANCH   4  11
BRANCH   9  12
ATOM     12  O   UNL     1       1.586   3.151  17.735  0.00  0.00    +0.000 OA
ATOM     13  C   UNL     1       2.565   2.126  17.698  0.00  0.00    +0.000 C 
ENDBRANCH   9  12
ENDBRANCH   3   7
ENDBRANCH   1   3
BRANCH   1  14
ATOM     14  C   UNL     1       5.175   7.274  17.449  0.00  0.00    +0.000 C 
BRANCH  14  15
ATOM     15  C   UNL     1       5.830   6.203  16.655  0.00  0.00    +0.000 A 
ATOM     16  C   UNL     1       6.824   5.328  17.016  0.00  0.00    +0.000 A 
ATOM     17  O   UNL     1       7.093   4.524  15.948  0.00  0.00    +0.000 OA
ATOM     18  C   UNL     1       6.232   4.963  14.973  0.00  0.00    +0.000 A 
ATOM     19  N   UNL     1       5.451   5.956  15.356  0.00  0.00    +0.000 NA
BRANCH  18  20
ATOM     20  C   UNL     1       6.345   4.324  13.660  0.00  0.00    +0.000 A 
ATOM     21  C   UNL     1       5.429   3.325  13.285  0.00  0.00    +0.000 A 
ATOM     22  C   UNL     1       5.515   2.694  12.044  0.00  0.00    +0.000 A 
ATOM     23  C   UNL     1       6.523   3.051  11.154  0.00  0.00    +0.000 A 
ATOM     24  C   UNL     1       7.440   4.041  11.503  0.00  0.00    +0.000 A 
ATOM     25  C   UNL     1       7.366   4.687  12.750  0.00  0.00    +0.000 A 
ATOM     26  C   UNL     1       8.389   5.744  13.075  0.00  0.00    +0.000 C 
ENDBRANCH  18  20
ENDBRANCH  14  15
ENDBRANCH   1  14
TORSDOF 7
ENDMDL
MODEL 6
REMARK VINA RESULT:      -6.8      2.762      7.632
REMARK  Name = 
REMARK  10 active torsions:
REMARK  status: ('A' for Active; 'I' for Inactive)
REMARK    1  A    between atoms: C_1  and  O_2
REMARK    2  A    between atoms: O_2  and  C_3
REMARK    3  A    between atoms: C_6  and  C_7
REMARK    4  A    between atoms: C_7  and  N_8
REMARK    5  A    between atoms: N_8  and  C_9
REMARK    6  A    between atoms: C_9  and  C_10
REMARK    7  A    between atoms: C_13  and  C_14
REMARK    8  A    between atoms: C_19  and  C_20
REMARK    9  A    between atoms: C_23  and  O_24
REMARK   10  A    between atoms: O_24  and  C_25
REMARK                            x       y       z     vdW  Elec       q    Type
REMARK                         _______ _______ _______ _____ _____    ______ ____
ROOT
ATOM      1  N   UNL     1       2.256   6.723  20.548  0.00  0.00    +0.000 NA
ATOM      2  H   UNL     1       3.088   6.892  21.119  0.00  0.00    +0.000 HD
ENDROOT
BRANCH   1   3
ATOM      3  C   UNL     1       1.144   7.480  21.108  0.00  0.00    +0.000 C 
BRANCH   3   7
ATOM      4  C   UNL     1       0.715  11.458  19.476  0.00  0.00    +0.000 A 
ATOM      5  C   UNL     1       1.194  10.405  18.679  0.00  0.00    +0.000 A 
ATOM      6  C   UNL     1       1.359   9.127  19.205  0.00  0.00    +0.000 A 
ATOM      7  C   UNL     1       1.094   8.881  20.553  0.00  0.00    +0.000 A 
ATOM      8  C   UNL     1       0.723   9.957  21.371  0.00  0.00    +0.000 A 
ATOM      9  C   UNL     1       0.536  11.248  20.851  0.00  0.00    +0.000 A 
BRANCH   4  11
ATOM     10  C   UNL     1      -0.855  12.808  18.345  0.00  0.00    +0.000 C 
ATOM     11  O   UNL     1       0.443  12.682  18.927  0.00  0.00    +0.000 OA
ENDBRANCH   4  11
BRANCH   9  12
ATOM     12  O   UNL     1       0.155  12.137  21.820  0.00  0.00    +0.000 OA
ATOM     13  C   UNL     1      -0.890  11.780  22.710  0.00  0.00    +0.000 C 
ENDBRANCH   9  12
ENDBRANCH   3   7
ENDBRANCH   1   3
BRANCH   1  14
ATOM     14  C   UNL     1       1.967   5.292  20.578  0.00  0.00    +0.000 C 
BRANCH  14  15
ATOM     15  C   UNL     1       2.972   4.599  19.732  0.00  0.00    +0.000 A 
ATOM     16  C   UNL     1       3.493   3.335  19.849  0.00  0.00    +0.000 A 
ATOM     17  O   UNL     1       4.381   3.143  18.831  0.00  0.00    +0.000 OA
ATOM     18  C   UNL     1       4.352   4.327  18.135  0.00  0.00    +0.000 A 
ATOM     19  N   UNL     1       3.516   5.219  18.631  0.00  0.00    +0.000 NA
BRANCH  18  20
ATOM     20  C   UNL     1       5.279   4.448  17.008  0.00  0.00    +0.000 A 
ATOM     21  C   UNL     1       4.861   4.088  15.715  0.00  0.00    +0.000 A 
ATOM     22  C   UNL     1       5.724   4.187  14.622  0.00  0.00    +0.000 A 
ATOM     23  C   UNL     1       7.023   4.648  14.806  0.00  0.00    +0.000 A 
ATOM     24  C   UNL     1       7.458   5.014  16.077  0.00  0.00    +0.000 A 
ATOM     25  C   UNL     1       6.601   4.921  17.188  0.00  0.00    +0.000 A 
ATOM     26  C   UNL     1       7.129   5.325  18.541  0.00  0.00    +0.000 C 
ENDBRANCH  18  20
ENDBRANCH  14  15
ENDBRANCH   1  14
TORSDOF 7
ENDMDL
MODEL 7
REMARK VINA RESULT:      -6.8      3.698      6.354
REMARK  Name = 
REMARK  10 active torsions:
REMARK  status: ('A' for Active; 'I' for Inactive)
REMARK    1  A    between atoms: C_1  and  O_2
REMARK    2  A    between atoms: O_2  and  C_3
REMARK    3  A    between atoms: C_6  and  C_7
REMARK    4  A    between atoms: C_7  and  N_8
REMARK    5  A    between atoms: N_8  and  C_9
REMARK    6  A    between atoms: C_9  and  C_10
REMARK    7  A    between atoms: C_13  and  C_14
REMARK    8  A    between atoms: C_19  and  C_20
REMARK    9  A    between atoms: C_23  and  O_24
REMARK   10  A    between atoms: O_24  and  C_25
REMARK                            x       y       z     vdW  Elec       q    Type
REMARK                         _______ _______ _______ _____ _____    ______ ____
ROOT
ATOM      1  N   UNL     1       1.078   7.883  21.027  0.00  0.00    +0.000 NA
ATOM      2  H   UNL     1       1.408   7.255  21.765  0.00  0.00    +0.000 HD
ENDROOT
BRANCH   1   3
ATOM      3  C   UNL     1       2.042   7.865  19.934  0.00  0.00    +0.000 C 
BRANCH   3   7
ATOM      4  C   UNL     1       3.582   3.899  19.181  0.00  0.00    +0.000 A 
ATOM      5  C   UNL     1       3.674   4.900  18.200  0.00  0.00    +0.000 A 
ATOM      6  C   UNL     1       3.157   6.173  18.427  0.00  0.00    +0.000 A 
ATOM      7  C   UNL     1       2.493   6.461  19.620  0.00  0.00    +0.000 A 
ATOM      8  C   UNL     1       2.307   5.429  20.550  0.00  0.00    +0.000 A 
ATOM      9  C   UNL     1       2.837   4.146  20.343  0.00  0.00    +0.000 A 
BRANCH   4  11
ATOM     10  C   UNL     1       3.426   1.720  18.287  0.00  0.00    +0.000 C 
ATOM     11  O   UNL     1       4.195   2.688  19.001  0.00  0.00    +0.000 OA
ENDBRANCH   4  11
BRANCH   9  12
ATOM     12  O   UNL     1       2.554   3.304  21.384  0.00  0.00    +0.000 OA
ATOM     13  C   UNL     1       1.291   2.661  21.427  0.00  0.00    +0.000 C 
ENDBRANCH   9  12
ENDBRANCH   3   7
ENDBRANCH   1   3
BRANCH   1  14
ATOM     14  C   UNL     1       0.967   9.226  21.588  0.00  0.00    +0.000 C 
BRANCH  14  15
ATOM     15  C   UNL     1       0.312  10.096  20.577  0.00  0.00    +0.000 A 
ATOM     16  C   UNL     1       0.558  11.409  20.259  0.00  0.00    +0.000 A 
ATOM     17  O   UNL     1      -0.295  11.773  19.260  0.00  0.00    +0.000 OA
ATOM     18  C   UNL     1      -1.031  10.639  19.018  0.00  0.00    +0.000 A 
ATOM     19  N   UNL     1      -0.694   9.611  19.773  0.00  0.00    +0.000 NA
BRANCH  18  20
ATOM     20  C   UNL     1      -2.102  10.750  18.025  0.00  0.00    +0.000 A 
ATOM     21  C   UNL     1      -1.977  10.102  16.784  0.00  0.00    +0.000 A 
ATOM     22  C   UNL     1      -2.979  10.195  15.816  0.00  0.00    +0.000 A 
ATOM     23  C   UNL     1      -4.124  10.941  16.074  0.00  0.00    +0.000 A 
ATOM     24  C   UNL     1      -4.270  11.589  17.298  0.00  0.00    +0.000 A 
ATOM     25  C   UNL     1      -3.271  11.505  18.284  0.00  0.00    +0.000 A 
ATOM     26  C   UNL     1      -3.482  12.233  19.587  0.00  0.00    +0.000 C 
ENDBRANCH  18  20
ENDBRANCH  14  15
ENDBRANCH   1  14
TORSDOF 7
ENDMDL
MODEL 8
REMARK VINA RESULT:      -6.7      2.045      6.493
REMARK  Name = 
REMARK  10 active torsions:
REMARK  status: ('A' for Active; 'I' for Inactive)
REMARK    1  A    between atoms: C_1  and  O_2
REMARK    2  A    between atoms: O_2  and  C_3
REMARK    3  A    between atoms: C_6  and  C_7
REMARK    4  A    between atoms: C_7  and  N_8
REMARK    5  A    between atoms: N_8  and  C_9
REMARK    6  A    between atoms: C_9  and  C_10
REMARK    7  A    between atoms: C_13  and  C_14
REMARK    8  A    between atoms: C_19  and  C_20
REMARK    9  A    between atoms: C_23  and  O_24
REMARK   10  A    between atoms: O_24  and  C_25
REMARK                            x       y       z     vdW  Elec       q    Type
REMARK                         _______ _______ _______ _____ _____    ______ ____
ROOT
ATOM      1  N   UNL     1       0.932   3.973  20.057  0.00  0.00    +0.000 NA
ATOM      2  H   UNL     1       0.886   4.391  19.125  0.00  0.00    +0.000 HD
ENDROOT
BRANCH   1   3
ATOM      3  C   UNL     1       1.751   4.825  20.911  0.00  0.00    +0.000 C 
BRANCH   3   7
ATOM      4  C   UNL     1       1.660   8.835  19.306  0.00  0.00    +0.000 A 
ATOM      5  C   UNL     1       2.258   7.790  18.584  0.00  0.00    +0.000 A 
ATOM      6  C   UNL     1       2.314   6.501  19.107  0.00  0.00    +0.000 A 
ATOM      7  C   UNL     1       1.815   6.236  20.383  0.00  0.00    +0.000 A 
ATOM      8  C   UNL     1       1.319   7.303  21.143  0.00  0.00    +0.000 A 
ATOM      9  C   UNL     1       1.241   8.605  20.624  0.00  0.00    +0.000 A 
BRANCH   4  11
ATOM     10  C   UNL     1       0.221  10.313  18.158  0.00  0.00    +0.000 C 
ATOM     11  O   UNL     1       1.502  10.072  18.740  0.00  0.00    +0.000 OA
ENDBRANCH   4  11
BRANCH   9  12
ATOM     12  O   UNL     1       0.708   9.484  21.528  0.00  0.00    +0.000 OA
ATOM     13  C   UNL     1      -0.397   9.074  22.317  0.00  0.00    +0.000 C 
ENDBRANCH   9  12
ENDBRANCH   3   7
ENDBRANCH   1   3
BRANCH   1  14
ATOM     14  C   UNL     1       1.532   2.647  19.934  0.00  0.00    +0.000 C 
BRANCH  14  15
ATOM     15  C   UNL     1       2.923   2.815  19.436  0.00  0.00    +0.000 A 
ATOM     16  C   UNL     1       4.105   2.379  19.979  0.00  0.00    +0.000 A 
ATOM     17  O   UNL     1       5.121   2.768  19.157  0.00  0.00    +0.000 OA
ATOM     18  C   UNL     1       4.489   3.435  18.136  0.00  0.00    +0.000 A 
ATOM     19  N   UNL     1       3.176   3.476  18.257  0.00  0.00    +0.000 NA
BRANCH  18  20
ATOM     20  C   UNL     1       5.348   4.045  17.119  0.00  0.00    +0.000 A 
ATOM     21  C   UNL     1       5.347   3.540  15.807  0.00  0.00    +0.000 A 
ATOM     22  C   UNL     1       6.159   4.098  14.818  0.00  0.00    +0.000 A 
ATOM     23  C   UNL     1       6.989   5.170  15.126  0.00  0.00    +0.000 A 
ATOM     24  C   UNL     1       7.004   5.689  16.419  0.00  0.00    +0.000 A 
ATOM     25  C   UNL     1       6.190   5.140  17.427  0.00  0.00    +0.000 A 
ATOM     26  C   UNL     1       6.253   5.738  18.808  0.00  0.00    +0.000 C 
ENDBRANCH  18  20
ENDBRANCH  14  15
ENDBRANCH   1  14
TORSDOF 7
ENDMDL
MODEL 9
REMARK VINA RESULT:      -6.7      4.141      7.032
REMARK  Name = 
REMARK  10 active torsions:
REMARK  status: ('A' for Active; 'I' for Inactive)
REMARK    1  A    between atoms: C_1  and  O_2
REMARK    2  A    between atoms: O_2  and  C_3
REMARK    3  A    between atoms: C_6  and  C_7
REMARK    4  A    between atoms: C_7  and  N_8
REMARK    5  A    between atoms: N_8  and  C_9
REMARK    6  A    between atoms: C_9  and  C_10
REMARK    7  A    between atoms: C_13  and  C_14
REMARK    8  A    between atoms: C_19  and  C_20
REMARK    9  A    between atoms: C_23  and  O_24
REMARK   10  A    between atoms: O_24  and  C_25
REMARK                            x       y       z     vdW  Elec       q    Type
REMARK                         _______ _______ _______ _____ _____    ______ ____
ROOT
ATOM      1  N   UNL     1       7.881   8.454  17.878  0.00  0.00    +0.000 NA
ATOM      2  H   UNL     1       8.168   8.763  16.946  0.00  0.00    +0.000 HD
ENDROOT
BRANCH   1   3
ATOM      3  C   UNL     1       8.874   8.907  18.845  0.00  0.00    +0.000 C 
BRANCH   3   7
ATOM      4  C   UNL     1       9.802  13.070  18.160  0.00  0.00    +0.000 A 
ATOM      5  C   UNL     1      10.634  12.276  18.966  0.00  0.00    +0.000 A 
ATOM      6  C   UNL     1      10.326  10.940  19.212  0.00  0.00    +0.000 A 
ATOM      7  C   UNL     1       9.156  10.380  18.697  0.00  0.00    +0.000 A 
ATOM      8  C   UNL     1       8.275  11.205  17.986  0.00  0.00    +0.000 A 
ATOM      9  C   UNL     1       8.579  12.549  17.715  0.00  0.00    +0.000 A 
BRANCH   4  11
ATOM     10  C   UNL     1      11.239  14.441  16.884  0.00  0.00    +0.000 C 
ATOM     11  O   UNL     1      10.169  14.346  17.824  0.00  0.00    +0.000 OA
ENDBRANCH   4  11
BRANCH   9  12
ATOM     12  O   UNL     1       7.590  13.159  16.991  0.00  0.00    +0.000 OA
ATOM     13  C   UNL     1       6.789  14.148  17.616  0.00  0.00    +0.000 C 
ENDBRANCH   9  12
ENDBRANCH   3   7
ENDBRANCH   1   3
BRANCH   1  14
ATOM     14  C   UNL     1       7.804   6.996  17.871  0.00  0.00    +0.000 C 
BRANCH  14  15
ATOM     15  C   UNL     1       6.403   6.609  17.559  0.00  0.00    +0.000 A 
ATOM     16  C   UNL     1       5.512   7.175  16.682  0.00  0.00    +0.000 A 
ATOM     17  O   UNL     1       4.349   6.467  16.739  0.00  0.00    +0.000 OA
ATOM     18  C   UNL     1       4.599   5.487  17.668  0.00  0.00    +0.000 A 
ATOM     19  N   UNL     1       5.816   5.527  18.174  0.00  0.00    +0.000 NA
BRANCH  18  20
ATOM     20  C   UNL     1       3.483   4.599  18.002  0.00  0.00    +0.000 A 
ATOM     21  C   UNL     1       3.383   3.337  17.388  0.00  0.00    +0.000 A 
ATOM     22  C   UNL     1       2.329   2.472  17.682  0.00  0.00    +0.000 A 
ATOM     23  C   UNL     1       1.352   2.856  18.596  0.00  0.00    +0.000 A 
ATOM     24  C   UNL     1       1.432   4.099  19.218  0.00  0.00    +0.000 A 
ATOM     25  C   UNL     1       2.490   4.982  18.934  0.00  0.00    +0.000 A 
ATOM     26  C   UNL     1       2.520   6.317  19.633  0.00  0.00    +0.000 C 
ENDBRANCH  18  20
ENDBRANCH  14  15
ENDBRANCH   1  14
TORSDOF 7
ENDMDL
