MODEL 1
REMARK VINA RESULT:      -8.2      0.000      0.000
REMARK  Name = 
REMARK  6 active torsions:
REMARK  status: ('A' for Active; 'I' for Inactive)
REMARK    1  A    between atoms: C_2  and  C_18
REMARK    2  A    between atoms: N_3  and  CA_4
REMARK    3  A    between atoms: CA_4  and  CB_5
REMARK    4  A    between atoms: CA_4  and  C_15
REMARK    5  A    between atoms: CB_5  and  CG_6
REMARK    6  A    between atoms: C_15  and  OXT_17
REMARK                            x       y       z     vdW  Elec       q    Type
REMARK                         _______ _______ _______ _____ _____    ______ ____
ROOT
ATOM      1  CA  TRP A   1       6.069   6.823  17.295  0.00  0.00    +0.000 C 
ENDROOT
BRANCH   1   4
ATOM      2  O   UNK A   0       7.623   4.675  16.381  0.00  0.00    +0.000 OA
ATOM      3  C   UNK A   0       6.824   5.174  15.592  0.00  0.00    +0.000 C 
ATOM      4  N   TRP A   1       6.049   6.246  15.947  0.00  0.00    +0.000 N 
ATOM      5  H   TRP A   1       5.403   6.666  15.280  0.00  0.00    +0.000 HD
BRANCH   3   6
ATOM      6  C   UNK A   0       6.720   4.638  14.199  0.00  0.00    +0.000 A 
ATOM      7  C   UNK A   0       5.611   3.804  13.946  0.00  0.00    +0.000 A 
ATOM      8  C   UNK A   0       5.383   3.262  12.678  0.00  0.00    +0.000 A 
ATOM      9  C   UNK A   0       6.256   3.548  11.637  0.00  0.00    +0.000 A 
ATOM     10  C   UNK A   0       7.356   4.372  11.866  0.00  0.00    +0.000 A 
ATOM     11  C   UNK A   0       7.594   4.919  13.141  0.00  0.00    +0.000 A 
ATOM     12 CL   UNK A   0       8.966   5.960  13.264  0.00  0.00    +0.000 Cl
ENDBRANCH   3   6
ENDBRANCH   1   4
BRANCH   1  13
ATOM     13  C   TRP A   1       7.497   7.309  17.601  0.00  0.00    +0.000 C 
ATOM     14  O   TRP A   1       8.052   8.231  17.018  0.00  0.00    +0.000 OA
BRANCH  13  15
ATOM     15  OXT TRP A   1       8.104   6.648  18.617  0.00  0.00    +0.000 OA
ATOM     16  HXT TRP A   1       8.138   7.136  19.460  0.00  0.00    +0.000 HD
ENDBRANCH  13  15
ENDBRANCH   1  13
BRANCH   1  17
ATOM     17  CB  TRP A   1       5.540   5.863  18.377  0.00  0.00    +0.000 C 
BRANCH  17  18
ATOM     18  CG  TRP A   1       4.085   5.540  18.219  0.00  0.00    +0.000 A 
ATOM     19  CD1 TRP A   1       3.044   6.446  18.149  0.00  0.00    +0.000 A 
ATOM     20  NE1 TRP A   1       1.867   5.743  18.164  0.00  0.00    +0.000 N 
ATOM     21  CE2 TRP A   1       2.121   4.395  18.245  0.00  0.00    +0.000 A 
ATOM     22  CZ2 TRP A   1       1.240   3.316  18.371  0.00  0.00    +0.000 A 
ATOM     23  CH2 TRP A   1       1.794   2.034  18.447  0.00  0.00    +0.000 A 
ATOM     24  CZ3 TRP A   1       3.170   1.838  18.352  0.00  0.00    +0.000 A 
ATOM     25  CE3 TRP A   1       4.034   2.927  18.217  0.00  0.00    +0.000 A 
ATOM     26  CD2 TRP A   1       3.505   4.234  18.201  0.00  0.00    +0.000 A 
ATOM     27  HE1 TRP A   1       0.945   6.155  18.169  0.00  0.00    +0.000 HD
ENDBRANCH  17  18
ENDBRANCH   1  17
TORSDOF 6
ENDMDL
MODEL 2
REMARK VINA RESULT:      -8.0      1.130      1.147
REMARK  Name = 
REMARK  6 active torsions:
REMARK  status: ('A' for Active; 'I' for Inactive)
REMARK    1  A    between atoms: C_2  and  C_18
REMARK    2  A    between atoms: N_3  and  CA_4
REMARK    3  A    between atoms: CA_4  and  CB_5
REMARK    4  A    between atoms: CA_4  and  C_15
REMARK    5  A    between atoms: CB_5  and  CG_6
REMARK    6  A    between atoms: C_15  and  OXT_17
REMARK                            x       y       z     vdW  Elec       q    Type
REMARK                         _______ _______ _______ _____ _____    ______ ____
ROOT
ATOM      1  CA  TRP A   1       6.026   6.554  17.382  0.00  0.00    +0.000 C 
ENDROOT
BRANCH   1   4
ATOM      2  O   UNK A   0       7.771   4.651  16.287  0.00  0.00    +0.000 OA
ATOM      3  C   UNK A   0       6.868   5.074  15.568  0.00  0.00    +0.000 C 
ATOM      4  N   TRP A   1       5.992   6.027  16.013  0.00  0.00    +0.000 N 
ATOM      5  H   TRP A   1       5.258   6.387  15.404  0.00  0.00    +0.000 HD
BRANCH   3   6
ATOM      6  C   UNK A   0       6.743   4.580  14.162  0.00  0.00    +0.000 A 
ATOM      7  C   UNK A   0       5.641   3.736  13.906  0.00  0.00    +0.000 A 
ATOM      8  C   UNK A   0       5.394   3.229  12.628  0.00  0.00    +0.000 A 
ATOM      9  C   UNK A   0       6.240   3.560  11.578  0.00  0.00    +0.000 A 
ATOM     10  C   UNK A   0       7.333   4.395  11.809  0.00  0.00    +0.000 A 
ATOM     11  C   UNK A   0       7.590   4.906  13.095  0.00  0.00    +0.000 A 
ATOM     12 CL   UNK A   0       8.949   5.964  13.222  0.00  0.00    +0.000 Cl
ENDBRANCH   3   6
ENDBRANCH   1   4
BRANCH   1  13
ATOM     13  C   TRP A   1       7.427   7.130  17.653  0.00  0.00    +0.000 C 
ATOM     14  O   TRP A   1       7.910   8.080  17.052  0.00  0.00    +0.000 OA
BRANCH  13  15
ATOM     15  OXT TRP A   1       8.097   6.515  18.658  0.00  0.00    +0.000 OA
ATOM     16  HXT TRP A   1       9.065   6.629  18.634  0.00  0.00    +0.000 HD
ENDBRANCH  13  15
ENDBRANCH   1  13
BRANCH   1  17
ATOM     17  CB  TRP A   1       5.611   5.518  18.445  0.00  0.00    +0.000 C 
BRANCH  17  18
ATOM     18  CG  TRP A   1       4.153   5.578  18.788  0.00  0.00    +0.000 A 
ATOM     19  CD1 TRP A   1       3.298   6.640  18.564  0.00  0.00    +0.000 A 
ATOM     20  NE1 TRP A   1       2.098   6.353  19.162  0.00  0.00    +0.000 N 
ATOM     21  CE2 TRP A   1       2.156   5.125  19.776  0.00  0.00    +0.000 A 
ATOM     22  CZ2 TRP A   1       1.212   4.467  20.571  0.00  0.00    +0.000 A 
ATOM     23  CH2 TRP A   1       1.558   3.211  21.081  0.00  0.00    +0.000 A 
ATOM     24  CZ3 TRP A   1       2.780   2.620  20.769  0.00  0.00    +0.000 A 
ATOM     25  CE3 TRP A   1       3.707   3.288  19.965  0.00  0.00    +0.000 A 
ATOM     26  CD2 TRP A   1       3.407   4.582  19.490  0.00  0.00    +0.000 A 
ATOM     27  HE1 TRP A   1       1.303   6.974  19.196  0.00  0.00    +0.000 HD
ENDBRANCH  17  18
ENDBRANCH   1  17
TORSDOF 6
ENDMDL
MODEL 3
REMARK VINA RESULT:      -7.8      1.519      1.983
REMARK  Name = 
REMARK  6 active torsions:
REMARK  status: ('A' for Active; 'I' for Inactive)
REMARK    1  A    between atoms: C_2  and  C_18
REMARK    2  A    between atoms: N_3  and  CA_4
REMARK    3  A    between atoms: CA_4  and  CB_5
REMARK    4  A    between atoms: CA_4  and  C_15
REMARK    5  A    between atoms: CB_5  and  CG_6
REMARK    6  A    between atoms: C_15  and  OXT_17
REMARK                            x       y       z     vdW  Elec       q    Type
REMARK                         _______ _______ _______ _____ _____    ______ ____
ROOT
ATOM      1  CA  TRP A   1       5.641   5.922  17.672  0.00  0.00    +0.000 C 
ENDROOT
BRANCH   1   4
ATOM      2  O   UNK A   0       7.683   6.131  15.761  0.00  0.00    +0.000 OA
ATOM      3  C   UNK A   0       6.717   5.423  15.484  0.00  0.00    +0.000 C 
ATOM      4  N   TRP A   1       5.662   5.292  16.348  0.00  0.00    +0.000 N 
ATOM      5  H   TRP A   1       4.855   4.718  16.103  0.00  0.00    +0.000 HD
BRANCH   3   6
ATOM      6  C   UNK A   0       6.659   4.725  14.163  0.00  0.00    +0.000 A 
ATOM      7  C   UNK A   0       5.583   3.828  13.993  0.00  0.00    +0.000 A 
ATOM      8  C   UNK A   0       5.398   3.133  12.794  0.00  0.00    +0.000 A 
ATOM      9  C   UNK A   0       6.283   3.324  11.741  0.00  0.00    +0.000 A 
ATOM     10  C   UNK A   0       7.351   4.208  11.889  0.00  0.00    +0.000 A 
ATOM     11  C   UNK A   0       7.545   4.909  13.094  0.00  0.00    +0.000 A 
ATOM     12 CL   UNK A   0       8.880   6.004  13.116  0.00  0.00    +0.000 Cl
ENDBRANCH   3   6
ENDBRANCH   1   4
BRANCH   1  13
ATOM     13  C   TRP A   1       6.534   5.104  18.621  0.00  0.00    +0.000 C 
ATOM     14  O   TRP A   1       6.682   5.348  19.811  0.00  0.00    +0.000 OA
BRANCH  13  15
ATOM     15  OXT TRP A   1       7.136   4.038  18.039  0.00  0.00    +0.000 OA
ATOM     16  HXT TRP A   1       7.729   4.259  17.297  0.00  0.00    +0.000 HD
ENDBRANCH  13  15
ENDBRANCH   1  13
BRANCH   1  17
ATOM     17  CB  TRP A   1       4.219   6.112  18.235  0.00  0.00    +0.000 C 
BRANCH  17  18
ATOM     18  CG  TRP A   1       3.412   4.849  18.234  0.00  0.00    +0.000 A 
ATOM     19  CD1 TRP A   1       3.009   4.131  17.125  0.00  0.00    +0.000 A 
ATOM     20  NE1 TRP A   1       2.164   3.138  17.546  0.00  0.00    +0.000 N 
ATOM     21  CE2 TRP A   1       2.005   3.197  18.910  0.00  0.00    +0.000 A 
ATOM     22  CZ2 TRP A   1       1.180   2.448  19.756  0.00  0.00    +0.000 A 
ATOM     23  CH2 TRP A   1       1.217   2.744  21.123  0.00  0.00    +0.000 A 
ATOM     24  CZ3 TRP A   1       2.079   3.716  21.625  0.00  0.00    +0.000 A 
ATOM     25  CE3 TRP A   1       2.902   4.448  20.765  0.00  0.00    +0.000 A 
ATOM     26  CD2 TRP A   1       2.838   4.211  19.377  0.00  0.00    +0.000 A 
ATOM     27  HE1 TRP A   1       1.682   2.489  16.940  0.00  0.00    +0.000 HD
ENDBRANCH  17  18
ENDBRANCH   1  17
TORSDOF 6
ENDMDL
MODEL 4
REMARK VINA RESULT:      -7.8      1.508      1.670
REMARK  Name = 
REMARK  6 active torsions:
REMARK  status: ('A' for Active; 'I' for Inactive)
REMARK    1  A    between atoms: C_2  and  C_18
REMARK    2  A    between atoms: N_3  and  CA_4
REMARK    3  A    between atoms: CA_4  and  CB_5
REMARK    4  A    between atoms: CA_4  and  C_15
REMARK    5  A    between atoms: CB_5  and  CG_6
REMARK    6  A    between atoms: C_15  and  OXT_17
REMARK                            x       y       z     vdW  Elec       q    Type
REMARK                         _______ _______ _______ _____ _____    ______ ____
ROOT
ATOM      1  CA  TRP A   1       6.058   5.642  17.557  0.00  0.00    +0.000 C 
ENDROOT
BRANCH   1   4
ATOM      2  O   UNK A   0       5.397   6.552  14.988  0.00  0.00    +0.000 OA
ATOM      3  C   UNK A   0       5.933   5.450  15.079  0.00  0.00    +0.000 C 
ATOM      4  N   TRP A   1       6.259   4.917  16.298  0.00  0.00    +0.000 N 
ATOM      5  H   TRP A   1       6.685   3.993  16.366  0.00  0.00    +0.000 HD
BRANCH   3   6
ATOM      6  C   UNK A   0       6.195   4.645  13.846  0.00  0.00    +0.000 A 
ATOM      7  C   UNK A   0       5.198   3.708  13.504  0.00  0.00    +0.000 A 
ATOM      8  C   UNK A   0       5.308   2.912  12.360  0.00  0.00    +0.000 A 
ATOM      9  C   UNK A   0       6.416   3.042  11.533  0.00  0.00    +0.000 A 
ATOM     10  C   UNK A   0       7.412   3.965  11.853  0.00  0.00    +0.000 A 
ATOM     11  C   UNK A   0       7.309   4.766  13.004  0.00  0.00    +0.000 A 
ATOM     12 CL   UNK A   0       8.592   5.896  13.247  0.00  0.00    +0.000 Cl
ENDBRANCH   3   6
ENDBRANCH   1   4
BRANCH   1  13
ATOM     13  C   TRP A   1       7.372   6.347  17.935  0.00  0.00    +0.000 C 
ATOM     14  O   TRP A   1       8.063   6.047  18.899  0.00  0.00    +0.000 OA
BRANCH  13  15
ATOM     15  OXT TRP A   1       7.741   7.332  17.080  0.00  0.00    +0.000 OA
ATOM     16  HXT TRP A   1       7.215   7.380  16.261  0.00  0.00    +0.000 HD
ENDBRANCH  13  15
ENDBRANCH   1  13
BRANCH   1  17
ATOM     17  CB  TRP A   1       5.531   4.749  18.697  0.00  0.00    +0.000 C 
BRANCH  17  18
ATOM     18  CG  TRP A   1       4.041   4.590  18.681  0.00  0.00    +0.000 A 
ATOM     19  CD1 TRP A   1       3.156   5.214  17.823  0.00  0.00    +0.000 A 
ATOM     20  NE1 TRP A   1       1.883   4.924  18.240  0.00  0.00    +0.000 N 
ATOM     21  CE2 TRP A   1       1.921   4.125  19.358  0.00  0.00    +0.000 A 
ATOM     22  CZ2 TRP A   1       0.882   3.656  20.169  0.00  0.00    +0.000 A 
ATOM     23  CH2 TRP A   1       1.226   2.860  21.266  0.00  0.00    +0.000 A 
ATOM     24  CZ3 TRP A   1       2.552   2.511  21.513  0.00  0.00    +0.000 A 
ATOM     25  CE3 TRP A   1       3.576   2.980  20.687  0.00  0.00    +0.000 A 
ATOM     26  CD2 TRP A   1       3.261   3.835  19.611  0.00  0.00    +0.000 A 
ATOM     27  HE1 TRP A   1       1.038   5.286  17.823  0.00  0.00    +0.000 HD
ENDBRANCH  17  18
ENDBRANCH   1  17
TORSDOF 6
ENDMDL
MODEL 5
REMARK VINA RESULT:      -7.7      3.306      6.913
REMARK  Name = 
REMARK  6 active torsions:
REMARK  status: ('A' for Active; 'I' for Inactive)
REMARK    1  A    between atoms: C_2  and  C_18
REMARK    2  A    between atoms: N_3  and  CA_4
REMARK    3  A    between atoms: CA_4  and  CB_5
REMARK    4  A    between atoms: CA_4  and  C_15
REMARK    5  A    between atoms: CB_5  and  CG_6
REMARK    6  A    between atoms: C_15  and  OXT_17
REMARK                            x       y       z     vdW  Elec       q    Type
REMARK                         _______ _______ _______ _____ _____    ______ ____
ROOT
ATOM      1  CA  TRP A   1       2.827   3.403  17.235  0.00  0.00    +0.000 C 
ENDROOT
BRANCH   1   4
ATOM      2  O   UNK A   0       3.146   4.294  19.876  0.00  0.00    +0.000 OA
ATOM      3  C   UNK A   0       2.601   5.057  19.081  0.00  0.00    +0.000 C 
ATOM      4  N   TRP A   1       2.378   4.688  17.781  0.00  0.00    +0.000 N 
ATOM      5  H   TRP A   1       1.907   5.319  17.133  0.00  0.00    +0.000 HD
BRANCH   3   6
ATOM      6  C   UNK A   0       2.125   6.397  19.543  0.00  0.00    +0.000 A 
ATOM      7  C   UNK A   0       1.429   6.410  20.769  0.00  0.00    +0.000 A 
ATOM      8  C   UNK A   0       0.956   7.602  21.325  0.00  0.00    +0.000 A 
ATOM      9  C   UNK A   0       1.175   8.805  20.668  0.00  0.00    +0.000 A 
ATOM     10  C   UNK A   0       1.864   8.814  19.456  0.00  0.00    +0.000 A 
ATOM     11  C   UNK A   0       2.340   7.618  18.889  0.00  0.00    +0.000 A 
ATOM     12 CL   UNK A   0       3.217   7.787  17.411  0.00  0.00    +0.000 Cl
ENDBRANCH   3   6
ENDBRANCH   1   4
BRANCH   1  13
ATOM     13  C   TRP A   1       2.176   2.269  18.047  0.00  0.00    +0.000 C 
ATOM     14  O   TRP A   1       0.973   2.164  18.244  0.00  0.00    +0.000 OA
BRANCH  13  15
ATOM     15  OXT TRP A   1       3.052   1.346  18.515  0.00  0.00    +0.000 OA
ATOM     16  HXT TRP A   1       3.990   1.609  18.461  0.00  0.00    +0.000 HD
ENDBRANCH  13  15
ENDBRANCH   1  13
BRANCH   1  17
ATOM     17  CB  TRP A   1       4.361   3.268  17.179  0.00  0.00    +0.000 C 
BRANCH  17  18
ATOM     18  CG  TRP A   1       5.053   4.548  16.818  0.00  0.00    +0.000 A 
ATOM     19  CD1 TRP A   1       4.984   5.207  15.606  0.00  0.00    +0.000 A 
ATOM     20  NE1 TRP A   1       5.879   6.245  15.635  0.00  0.00    +0.000 N 
ATOM     21  CE2 TRP A   1       6.533   6.273  16.844  0.00  0.00    +0.000 A 
ATOM     22  CZ2 TRP A   1       7.578   7.091  17.287  0.00  0.00    +0.000 A 
ATOM     23  CH2 TRP A   1       8.062   6.878  18.581  0.00  0.00    +0.000 A 
ATOM     24  CZ3 TRP A   1       7.492   5.918  19.413  0.00  0.00    +0.000 A 
ATOM     25  CE3 TRP A   1       6.443   5.115  18.957  0.00  0.00    +0.000 A 
ATOM     26  CD2 TRP A   1       5.979   5.268  17.634  0.00  0.00    +0.000 A 
ATOM     27  HE1 TRP A   1       6.072   6.867  14.864  0.00  0.00    +0.000 HD
ENDBRANCH  17  18
ENDBRANCH   1  17
TORSDOF 6
ENDMDL
MODEL 6
REMARK VINA RESULT:      -7.6      2.032      3.485
REMARK  Name = 
REMARK  6 active torsions:
REMARK  status: ('A' for Active; 'I' for Inactive)
REMARK    1  A    between atoms: C_2  and  C_18
REMARK    2  A    between atoms: N_3  and  CA_4
REMARK    3  A    between atoms: CA_4  and  CB_5
REMARK    4  A    between atoms: CA_4  and  C_15
REMARK    5  A    between atoms: CB_5  and  CG_6
REMARK    6  A    between atoms: C_15  and  OXT_17
REMARK                            x       y       z     vdW  Elec       q    Type
REMARK                         _______ _______ _______ _____ _____    ______ ____
ROOT
ATOM      1  CA  TRP A   1       4.736   4.985  17.487  0.00  0.00    +0.000 C 
ENDROOT
BRANCH   1   4
ATOM      2  O   UNK A   0       5.957   6.356  15.367  0.00  0.00    +0.000 OA
ATOM      3  C   UNK A   0       5.699   5.166  15.200  0.00  0.00    +0.000 C 
ATOM      4  N   TRP A   1       5.074   4.431  16.172  0.00  0.00    +0.000 N 
ATOM      5  H   TRP A   1       4.846   3.449  16.018  0.00  0.00    +0.000 HD
BRANCH   3   6
ATOM      6  C   UNK A   0       6.025   4.509  13.896  0.00  0.00    +0.000 A 
ATOM      7  C   UNK A   0       5.040   3.638  13.387  0.00  0.00    +0.000 A 
ATOM      8  C   UNK A   0       5.208   2.983  12.164  0.00  0.00    +0.000 A 
ATOM      9  C   UNK A   0       6.365   3.190  11.424  0.00  0.00    +0.000 A 
ATOM     10  C   UNK A   0       7.350   4.050  11.909  0.00  0.00    +0.000 A 
ATOM     11  C   UNK A   0       7.188   4.710  13.140  0.00  0.00    +0.000 A 
ATOM     12 CL   UNK A   0       8.467   5.779  13.591  0.00  0.00    +0.000 Cl
ENDBRANCH   3   6
ENDBRANCH   1   4
BRANCH   1  13
ATOM     13  C   TRP A   1       5.686   4.380  18.536  0.00  0.00    +0.000 C 
ATOM     14  O   TRP A   1       6.708   4.923  18.935  0.00  0.00    +0.000 OA
BRANCH  13  15
ATOM     15  OXT TRP A   1       5.282   3.184  19.028  0.00  0.00    +0.000 OA
ATOM     16  HXT TRP A   1       4.397   3.187  19.436  0.00  0.00    +0.000 HD
ENDBRANCH  13  15
ENDBRANCH   1  13
BRANCH   1  17
ATOM     17  CB  TRP A   1       3.255   4.791  17.867  0.00  0.00    +0.000 C 
BRANCH  17  18
ATOM     18  CG  TRP A   1       2.802   5.712  18.959  0.00  0.00    +0.000 A 
ATOM     19  CD1 TRP A   1       2.559   5.372  20.276  0.00  0.00    +0.000 A 
ATOM     20  NE1 TRP A   1       2.015   6.461  20.904  0.00  0.00    +0.000 N 
ATOM     21  CE2 TRP A   1       1.894   7.507  20.020  0.00  0.00    +0.000 A 
ATOM     22  CZ2 TRP A   1       1.320   8.771  20.189  0.00  0.00    +0.000 A 
ATOM     23  CH2 TRP A   1       1.328   9.637  19.091  0.00  0.00    +0.000 A 
ATOM     24  CZ3 TRP A   1       1.926   9.269  17.888  0.00  0.00    +0.000 A 
ATOM     25  CE3 TRP A   1       2.502   8.005  17.740  0.00  0.00    +0.000 A 
ATOM     26  CD2 TRP A   1       2.453   7.090  18.813  0.00  0.00    +0.000 A 
ATOM     27  HE1 TRP A   1       1.697   6.481  21.862  0.00  0.00    +0.000 HD
ENDBRANCH  17  18
ENDBRANCH   1  17
TORSDOF 6
ENDMDL
MODEL 7
REMARK VINA RESULT:      -7.5      3.613      5.331
REMARK  Name = 
REMARK  6 active torsions:
REMARK  status: ('A' for Active; 'I' for Inactive)
REMARK    1  A    between atoms: C_2  and  C_18
REMARK    2  A    between atoms: N_3  and  CA_4
REMARK    3  A    between atoms: CA_4  and  CB_5
REMARK    4  A    between atoms: CA_4  and  C_15
REMARK    5  A    between atoms: CB_5  and  CG_6
REMARK    6  A    between atoms: C_15  and  OXT_17
REMARK                            x       y       z     vdW  Elec       q    Type
REMARK                         _______ _______ _______ _____ _____    ______ ____
ROOT
ATOM      1  CA  TRP A   1       2.671   4.293  19.642  0.00  0.00    +0.000 C 
ENDROOT
BRANCH   1   4
ATOM      2  O   UNK A   0       5.371   3.584  19.378  0.00  0.00    +0.000 OA
ATOM      3  C   UNK A   0       4.822   4.098  18.407  0.00  0.00    +0.000 C 
ATOM      4  N   TRP A   1       3.514   4.503  18.461  0.00  0.00    +0.000 N 
ATOM      5  H   TRP A   1       3.072   4.946  17.657  0.00  0.00    +0.000 HD
BRANCH   3   6
ATOM      6  C   UNK A   0       5.598   4.335  17.150  0.00  0.00    +0.000 A 
ATOM      7  C   UNK A   0       4.933   4.008  15.950  0.00  0.00    +0.000 A 
ATOM      8  C   UNK A   0       5.537   4.208  14.706  0.00  0.00    +0.000 A 
ATOM      9  C   UNK A   0       6.817   4.744  14.637  0.00  0.00    +0.000 A 
ATOM     10  C   UNK A   0       7.490   5.076  15.812  0.00  0.00    +0.000 A 
ATOM     11  C   UNK A   0       6.889   4.875  17.069  0.00  0.00    +0.000 A 
ATOM     12 CL   UNK A   0       7.820   5.377  18.433  0.00  0.00    +0.000 Cl
ENDBRANCH   3   6
ENDBRANCH   1   4
BRANCH   1  13
ATOM     13  C   TRP A   1       1.307   3.747  19.183  0.00  0.00    +0.000 C 
ATOM     14  O   TRP A   1       1.036   3.453  18.026  0.00  0.00    +0.000 OA
BRANCH  13  15
ATOM     15  OXT TRP A   1       0.410   3.577  20.184  0.00  0.00    +0.000 OA
ATOM     16  HXT TRP A   1      -0.455   3.225  19.903  0.00  0.00    +0.000 HD
ENDBRANCH  13  15
ENDBRANCH   1  13
BRANCH   1  17
ATOM     17  CB  TRP A   1       2.524   5.552  20.519  0.00  0.00    +0.000 C 
BRANCH  17  18
ATOM     18  CG  TRP A   1       2.173   6.779  19.733  0.00  0.00    +0.000 A 
ATOM     19  CD1 TRP A   1       2.546   7.058  18.432  0.00  0.00    +0.000 A 
ATOM     20  NE1 TRP A   1       2.157   8.340  18.144  0.00  0.00    +0.000 N 
ATOM     21  CE2 TRP A   1       1.540   8.905  19.234  0.00  0.00    +0.000 A 
ATOM     22  CZ2 TRP A   1       1.063  10.205  19.429  0.00  0.00    +0.000 A 
ATOM     23  CH2 TRP A   1       0.486  10.503  20.668  0.00  0.00    +0.000 A 
ATOM     24  CZ3 TRP A   1       0.350   9.527  21.652  0.00  0.00    +0.000 A 
ATOM     25  CE3 TRP A   1       0.824   8.231  21.436  0.00  0.00    +0.000 A 
ATOM     26  CD2 TRP A   1       1.466   7.922  20.219  0.00  0.00    +0.000 A 
ATOM     27  HE1 TRP A   1       2.342   8.822  17.276  0.00  0.00    +0.000 HD
ENDBRANCH  17  18
ENDBRANCH   1  17
TORSDOF 6
ENDMDL
MODEL 8
REMARK VINA RESULT:      -7.4      4.477      7.897
REMARK  Name = 
REMARK  6 active torsions:
REMARK  status: ('A' for Active; 'I' for Inactive)
REMARK    1  A    between atoms: C_2  and  C_18
REMARK    2  A    between atoms: N_3  and  CA_4
REMARK    3  A    between atoms: CA_4  and  CB_5
REMARK    4  A    between atoms: CA_4  and  C_15
REMARK    5  A    between atoms: CB_5  and  CG_6
REMARK    6  A    between atoms: C_15  and  OXT_17
REMARK                            x       y       z     vdW  Elec       q    Type
REMARK                         _______ _______ _______ _____ _____    ______ ____
ROOT
ATOM      1  CA  TRP A   1       2.195   4.870  20.192  0.00  0.00    +0.000 C 
ENDROOT
BRANCH   1   4
ATOM      2  O   UNK A   0       2.433   7.380  18.965  0.00  0.00    +0.000 OA
ATOM      3  C   UNK A   0       1.788   7.317  20.010  0.00  0.00    +0.000 C 
ATOM      4  N   TRP A   1       1.650   6.137  20.690  0.00  0.00    +0.000 N 
ATOM      5  H   TRP A   1       1.131   6.097  21.566  0.00  0.00    +0.000 HD
BRANCH   3   6
ATOM      6  C   UNK A   0       1.179   8.556  20.585  0.00  0.00    +0.000 A 
ATOM      7  C   UNK A   0       0.911   8.520  21.969  0.00  0.00    +0.000 A 
ATOM      8  C   UNK A   0       0.368   9.623  22.634  0.00  0.00    +0.000 A 
ATOM      9  C   UNK A   0       0.087  10.786  21.929  0.00  0.00    +0.000 A 
ATOM     10  C   UNK A   0       0.347  10.842  20.560  0.00  0.00    +0.000 A 
ATOM     11  C   UNK A   0       0.890   9.735  19.883  0.00  0.00    +0.000 A 
ATOM     12 CL   UNK A   0       1.204   9.966  18.201  0.00  0.00    +0.000 Cl
ENDBRANCH   3   6
ENDBRANCH   1   4
BRANCH   1  13
ATOM     13  C   TRP A   1       1.707   3.731  21.105  0.00  0.00    +0.000 C 
ATOM     14  O   TRP A   1       2.250   3.406  22.153  0.00  0.00    +0.000 OA
BRANCH  13  15
ATOM     15  OXT TRP A   1       0.580   3.115  20.673  0.00  0.00    +0.000 OA
ATOM     16  HXT TRP A   1       0.450   2.212  21.016  0.00  0.00    +0.000 HD
ENDBRANCH  13  15
ENDBRANCH   1  13
BRANCH   1  17
ATOM     17  CB  TRP A   1       3.729   4.880  20.050  0.00  0.00    +0.000 C 
BRANCH  17  18
ATOM     18  CG  TRP A   1       4.204   4.323  18.741  0.00  0.00    +0.000 A 
ATOM     19  CD1 TRP A   1       3.888   3.088  18.210  0.00  0.00    +0.000 A 
ATOM     20  NE1 TRP A   1       4.646   2.904  17.083  0.00  0.00    +0.000 N 
ATOM     21  CE2 TRP A   1       5.453   3.996  16.870  0.00  0.00    +0.000 A 
ATOM     22  CZ2 TRP A   1       6.441   4.214  15.905  0.00  0.00    +0.000 A 
ATOM     23  CH2 TRP A   1       7.122   5.435  15.942  0.00  0.00    +0.000 A 
ATOM     24  CZ3 TRP A   1       6.794   6.414  16.877  0.00  0.00    +0.000 A 
ATOM     25  CE3 TRP A   1       5.798   6.181  17.828  0.00  0.00    +0.000 A 
ATOM     26  CD2 TRP A   1       5.139   4.935  17.851  0.00  0.00    +0.000 A 
ATOM     27  HE1 TRP A   1       4.653   2.066  16.518  0.00  0.00    +0.000 HD
ENDBRANCH  17  18
ENDBRANCH   1  17
TORSDOF 6
ENDMDL
MODEL 9
REMARK VINA RESULT:      -7.4      1.514      1.910
REMARK  Name = 
REMARK  6 active torsions:
REMARK  status: ('A' for Active; 'I' for Inactive)
REMARK    1  A    between atoms: C_2  and  C_18
REMARK    2  A    between atoms: N_3  and  CA_4
REMARK    3  A    between atoms: CA_4  and  CB_5
REMARK    4  A    between atoms: CA_4  and  C_15
REMARK    5  A    between atoms: CB_5  and  CG_6
REMARK    6  A    between atoms: C_15  and  OXT_17
REMARK                            x       y       z     vdW  Elec       q    Type
REMARK                         _______ _______ _______ _____ _____    ______ ____
ROOT
ATOM      1  CA  TRP A   1       6.067   5.596  17.559  0.00  0.00    +0.000 C 
ENDROOT
BRANCH   1   4
ATOM      2  O   UNK A   0       5.216   6.441  15.024  0.00  0.00    +0.000 OA
ATOM      3  C   UNK A   0       5.847   5.388  15.089  0.00  0.00    +0.000 C 
ATOM      4  N   TRP A   1       6.272   4.888  16.291  0.00  0.00    +0.000 N 
ATOM      5  H   TRP A   1       6.778   4.004  16.339  0.00  0.00    +0.000 HD
BRANCH   3   6
ATOM      6  C   UNK A   0       6.122   4.605  13.845  0.00  0.00    +0.000 A 
ATOM      7  C   UNK A   0       5.112   3.700  13.457  0.00  0.00    +0.000 A 
ATOM      8  C   UNK A   0       5.232   2.929  12.297  0.00  0.00    +0.000 A 
ATOM      9  C   UNK A   0       6.362   3.052  11.500  0.00  0.00    +0.000 A 
ATOM     10  C   UNK A   0       7.371   3.942  11.865  0.00  0.00    +0.000 A 
ATOM     11  C   UNK A   0       7.258   4.720  13.033  0.00  0.00    +0.000 A 
ATOM     12 CL   UNK A   0       8.560   5.814  13.332  0.00  0.00    +0.000 Cl
ENDBRANCH   3   6
ENDBRANCH   1   4
BRANCH   1  13
ATOM     13  C   TRP A   1       7.287   6.495  17.824  0.00  0.00    +0.000 C 
ATOM     14  O   TRP A   1       7.595   7.460  17.138  0.00  0.00    +0.000 OA
BRANCH  13  15
ATOM     15  OXT TRP A   1       8.000   6.155  18.926  0.00  0.00    +0.000 OA
ATOM     16  HXT TRP A   1       8.001   5.202  19.134  0.00  0.00    +0.000 HD
ENDBRANCH  13  15
ENDBRANCH   1  13
BRANCH   1  17
ATOM     17  CB  TRP A   1       5.774   4.654  18.743  0.00  0.00    +0.000 C 
BRANCH  17  18
ATOM     18  CG  TRP A   1       4.551   3.811  18.537  0.00  0.00    +0.000 A 
ATOM     19  CD1 TRP A   1       4.338   2.907  17.516  0.00  0.00    +0.000 A 
ATOM     20  NE1 TRP A   1       3.043   2.466  17.601  0.00  0.00    +0.000 N 
ATOM     21  CE2 TRP A   1       2.405   3.071  18.658  0.00  0.00    +0.000 A 
ATOM     22  CZ2 TRP A   1       1.071   2.994  19.071  0.00  0.00    +0.000 A 
ATOM     23  CH2 TRP A   1       0.697   3.743  20.191  0.00  0.00    +0.000 A 
ATOM     24  CZ3 TRP A   1       1.632   4.499  20.896  0.00  0.00    +0.000 A 
ATOM     25  CE3 TRP A   1       2.962   4.556  20.474  0.00  0.00    +0.000 A 
ATOM     26  CD2 TRP A   1       3.350   3.860  19.310  0.00  0.00    +0.000 A 
ATOM     27  HE1 TRP A   1       2.601   1.832  16.951  0.00  0.00    +0.000 HD
ENDBRANCH  17  18
ENDBRANCH   1  17
TORSDOF 6
ENDMDL
