MODEL 1
REMARK VINA RESULT:      -8.3      0.000      0.000
REMARK  Name = 
REMARK  7 active torsions:
REMARK  status: ('A' for Active; 'I' for Inactive)
REMARK    1  A    between atoms: C_1  and  O_2
REMARK    2  A    between atoms: O_2  and  C_3
REMARK    3  A    between atoms: C_7  and  C_8
REMARK    4  A    between atoms: C_8  and  N_9
REMARK    5  A    between atoms: C_10  and  C_12
REMARK    6  A    between atoms: C_17  and  C_18
REMARK    7  A    between atoms: N_25  and  C_26
REMARK                            x       y       z     vdW  Elec       q    Type
REMARK                         _______ _______ _______ _____ _____    ______ ____
ROOT
ATOM      1  C   UNL     1       3.560   6.112  17.788  0.00  0.00    +0.000 A 
ATOM      2  C   UNL     1       3.217   7.277  17.114  0.00  0.00    +0.000 A 
ATOM      3  C   UNL     1       2.473   8.105  17.989  0.00  0.00    +0.000 A 
ATOM      4  C   UNL     1       1.892   9.375  17.895  0.00  0.00    +0.000 A 
ATOM      5  C   UNL     1       1.223   9.863  19.019  0.00  0.00    +0.000 A 
ATOM      6  C   UNL     1       1.148   9.082  20.172  0.00  0.00    +0.000 A 
ATOM      7  N   UNL     1       1.699   7.847  20.292  0.00  0.00    +0.000 NA
ATOM      8  C   UNL     1       2.339   7.416  19.186  0.00  0.00    +0.000 A 
ATOM      9  N   UNL     1       2.977   6.205  19.043  0.00  0.00    +0.000 N 
ATOM     10  C   UNL     1       3.056   5.201  20.084  0.00  0.00    +0.000 C 
ENDROOT
BRANCH   6  11
ATOM     11  C   UNL     1       0.428   9.577  21.339  0.00  0.00    +0.000 A 
ATOM     12  C   UNL     1       0.238  10.889  21.834  0.00  0.00    +0.000 A 
ATOM     13  N   UNL     1      -0.512  10.925  22.941  0.00  0.00    +0.000 NA
ATOM     14  N   UNL     1      -0.810   9.634  23.157  0.00  0.00    +0.000 N 
ATOM     15  C   UNL     1      -0.267   8.789  22.236  0.00  0.00    +0.000 A 
ATOM     16  H   UNL     1      -1.393   9.403  23.954  0.00  0.00    +0.000 HD
ENDBRANCH   6  11
BRANCH   1  18
ATOM     17  N   UNL     1       5.611   5.324  16.907  0.00  0.00    +0.000 N 
ATOM     18  C   UNL     1       4.337   4.985  17.301  0.00  0.00    +0.000 C 
ATOM     19  O   UNL     1       3.918   3.834  17.264  0.00  0.00    +0.000 OA
ATOM     20  H   UNL     1       5.975   6.220  17.195  0.00  0.00    +0.000 HD
BRANCH  17  21
ATOM     21  C   UNL     1       6.560   4.337  16.447  0.00  0.00    +0.000 C 
BRANCH  21  26
ATOM     22  C   UNL     1       6.070   3.557  12.734  0.00  0.00    +0.000 A 
ATOM     23  C   UNL     1       6.948   4.475  12.156  0.00  0.00    +0.000 A 
ATOM     24  C   UNL     1       7.698   5.339  12.952  0.00  0.00    +0.000 A 
ATOM     25  C   UNL     1       7.575   5.288  14.340  0.00  0.00    +0.000 A 
ATOM     26  C   UNL     1       6.695   4.375  14.944  0.00  0.00    +0.000 A 
ATOM     27  C   UNL     1       5.941   3.513  14.127  0.00  0.00    +0.000 A 
BRANCH  22  29
ATOM     28  C   UNL     1       4.159   3.230  11.353  0.00  0.00    +0.000 C 
ATOM     29  O   UNL     1       5.410   2.762  11.836  0.00  0.00    +0.000 OA
ENDBRANCH  22  29
ENDBRANCH  21  26
ENDBRANCH  17  21
ENDBRANCH   1  18
TORSDOF 5
ENDMDL
MODEL 2
REMARK VINA RESULT:      -8.3      4.547      9.160
REMARK  Name = 
REMARK  7 active torsions:
REMARK  status: ('A' for Active; 'I' for Inactive)
REMARK    1  A    between atoms: C_1  and  O_2
REMARK    2  A    between atoms: O_2  and  C_3
REMARK    3  A    between atoms: C_7  and  C_8
REMARK    4  A    between atoms: C_8  and  N_9
REMARK    5  A    between atoms: C_10  and  C_12
REMARK    6  A    between atoms: C_17  and  C_18
REMARK    7  A    between atoms: N_25  and  C_26
REMARK                            x       y       z     vdW  Elec       q    Type
REMARK                         _______ _______ _______ _____ _____    ______ ____
ROOT
ATOM      1  C   UNL     1       1.248   9.657  19.331  0.00  0.00    +0.000 A 
ATOM      2  C   UNL     1       1.935   9.455  18.140  0.00  0.00    +0.000 A 
ATOM      3  C   UNL     1       2.528   8.169  18.171  0.00  0.00    +0.000 A 
ATOM      4  C   UNL     1       3.297   7.412  17.280  0.00  0.00    +0.000 A 
ATOM      5  C   UNL     1       3.700   6.140  17.694  0.00  0.00    +0.000 A 
ATOM      6  C   UNL     1       3.337   5.679  18.960  0.00  0.00    +0.000 A 
ATOM      7  N   UNL     1       2.593   6.390  19.845  0.00  0.00    +0.000 NA
ATOM      8  C   UNL     1       2.223   7.610  19.404  0.00  0.00    +0.000 A 
ATOM      9  N   UNL     1       1.472   8.527  20.103  0.00  0.00    +0.000 N 
ATOM     10  C   UNL     1       0.960   8.307  21.440  0.00  0.00    +0.000 C 
ENDROOT
BRANCH   6  11
ATOM     11  C   UNL     1       3.775   4.362  19.406  0.00  0.00    +0.000 A 
ATOM     12  C   UNL     1       3.170   3.415  20.265  0.00  0.00    +0.000 A 
ATOM     13  N   UNL     1       3.897   2.302  20.411  0.00  0.00    +0.000 NA
ATOM     14  N   UNL     1       4.971   2.530  19.639  0.00  0.00    +0.000 N 
ATOM     15  C   UNL     1       4.952   3.747  19.025  0.00  0.00    +0.000 A 
ATOM     16  H   UNL     1       5.680   1.807  19.576  0.00  0.00    +0.000 HD
ENDBRANCH   6  11
BRANCH   1  18
ATOM     17  N   UNL     1      -0.798  10.841  19.210  0.00  0.00    +0.000 N 
ATOM     18  C   UNL     1       0.473  10.816  19.737  0.00  0.00    +0.000 C 
ATOM     19  O   UNL     1       0.891  11.682  20.497  0.00  0.00    +0.000 OA
ATOM     20  H   UNL     1      -1.163   9.990  18.809  0.00  0.00    +0.000 HD
BRANCH  17  21
ATOM     21  C   UNL     1      -1.745  11.881  19.540  0.00  0.00    +0.000 C 
BRANCH  21  26
ATOM     22  C   UNL     1      -4.089  11.157  16.604  0.00  0.00    +0.000 A 
ATOM     23  C   UNL     1      -5.314  11.552  17.145  0.00  0.00    +0.000 A 
ATOM     24  C   UNL     1      -5.389  12.053  18.443  0.00  0.00    +0.000 A 
ATOM     25  C   UNL     1      -4.232  12.163  19.213  0.00  0.00    +0.000 A 
ATOM     26  C   UNL     1      -2.989  11.769  18.692  0.00  0.00    +0.000 A 
ATOM     27  C   UNL     1      -2.930  11.260  17.382  0.00  0.00    +0.000 A 
BRANCH  22  29
ATOM     28  C   UNL     1      -2.975  10.153  14.755  0.00  0.00    +0.000 C 
ATOM     29  O   UNL     1      -4.160  10.700  15.316  0.00  0.00    +0.000 OA
ENDBRANCH  22  29
ENDBRANCH  21  26
ENDBRANCH  17  21
ENDBRANCH   1  18
TORSDOF 5
ENDMDL
MODEL 3
REMARK VINA RESULT:      -8.0      2.550      4.213
REMARK  Name = 
REMARK  7 active torsions:
REMARK  status: ('A' for Active; 'I' for Inactive)
REMARK    1  A    between atoms: C_1  and  O_2
REMARK    2  A    between atoms: O_2  and  C_3
REMARK    3  A    between atoms: C_7  and  C_8
REMARK    4  A    between atoms: C_8  and  N_9
REMARK    5  A    between atoms: C_10  and  C_12
REMARK    6  A    between atoms: C_17  and  C_18
REMARK    7  A    between atoms: N_25  and  C_26
REMARK                            x       y       z     vdW  Elec       q    Type
REMARK                         _______ _______ _______ _____ _____    ______ ____
ROOT
ATOM      1  C   UNL     1       1.964   7.164  19.775  0.00  0.00    +0.000 A 
ATOM      2  C   UNL     1       1.446   7.299  21.057  0.00  0.00    +0.000 A 
ATOM      3  C   UNL     1       0.910   8.603  21.194  0.00  0.00    +0.000 A 
ATOM      4  C   UNL     1       0.250   9.300  22.212  0.00  0.00    +0.000 A 
ATOM      5  C   UNL     1      -0.138  10.615  21.948  0.00  0.00    +0.000 A 
ATOM      6  C   UNL     1       0.147  11.184  20.706  0.00  0.00    +0.000 A 
ATOM      7  N   UNL     1       0.787  10.534  19.700  0.00  0.00    +0.000 NA
ATOM      8  C   UNL     1       1.139   9.266  19.996  0.00  0.00    +0.000 A 
ATOM      9  N   UNL     1       1.798   8.395  19.159  0.00  0.00    +0.000 N 
ATOM     10  C   UNL     1       2.212   8.723  17.810  0.00  0.00    +0.000 C 
ENDROOT
BRANCH   6  11
ATOM     11  C   UNL     1      -0.233  12.564  20.435  0.00  0.00    +0.000 A 
ATOM     12  C   UNL     1       0.203  13.784  21.004  0.00  0.00    +0.000 A 
ATOM     13  N   UNL     1      -0.386  14.854  20.459  0.00  0.00    +0.000 NA
ATOM     14  N   UNL     1      -1.199  14.323  19.533  0.00  0.00    +0.000 N 
ATOM     15  C   UNL     1      -1.152  12.962  19.484  0.00  0.00    +0.000 A 
ATOM     16  H   UNL     1      -1.758  14.952  18.967  0.00  0.00    +0.000 HD
ENDBRANCH   6  11
BRANCH   1  18
ATOM     17  N   UNL     1       3.788   5.654  19.766  0.00  0.00    +0.000 N 
ATOM     18  C   UNL     1       2.593   5.999  19.177  0.00  0.00    +0.000 C 
ATOM     19  O   UNL     1       2.103   5.361  18.252  0.00  0.00    +0.000 OA
ATOM     20  H   UNL     1       4.006   6.053  20.667  0.00  0.00    +0.000 HD
BRANCH  17  21
ATOM     21  C   UNL     1       4.539   4.492  19.354  0.00  0.00    +0.000 C 
BRANCH  21  26
ATOM     22  C   UNL     1       6.927   6.116  16.845  0.00  0.00    +0.000 A 
ATOM     23  C   UNL     1       6.778   5.260  15.751  0.00  0.00    +0.000 A 
ATOM     24  C   UNL     1       5.913   4.170  15.815  0.00  0.00    +0.000 A 
ATOM     25  C   UNL     1       5.185   3.927  16.981  0.00  0.00    +0.000 A 
ATOM     26  C   UNL     1       5.322   4.771  18.094  0.00  0.00    +0.000 A 
ATOM     27  C   UNL     1       6.203   5.865  18.016  0.00  0.00    +0.000 A 
BRANCH  22  29
ATOM     28  C   UNL     1       7.866   8.151  17.645  0.00  0.00    +0.000 C 
ATOM     29  O   UNL     1       7.796   7.152  16.638  0.00  0.00    +0.000 OA
ENDBRANCH  22  29
ENDBRANCH  21  26
ENDBRANCH  17  21
ENDBRANCH   1  18
TORSDOF 5
ENDMDL
MODEL 4
REMARK VINA RESULT:      -7.9      2.889      9.664
REMARK  Name = 
REMARK  7 active torsions:
REMARK  status: ('A' for Active; 'I' for Inactive)
REMARK    1  A    between atoms: C_1  and  O_2
REMARK    2  A    between atoms: O_2  and  C_3
REMARK    3  A    between atoms: C_7  and  C_8
REMARK    4  A    between atoms: C_8  and  N_9
REMARK    5  A    between atoms: C_10  and  C_12
REMARK    6  A    between atoms: C_17  and  C_18
REMARK    7  A    between atoms: N_25  and  C_26
REMARK                            x       y       z     vdW  Elec       q    Type
REMARK                         _______ _______ _______ _____ _____    ______ ____
ROOT
ATOM      1  C   UNL     1       3.796   5.138  19.267  0.00  0.00    +0.000 A 
ATOM      2  C   UNL     1       5.172   5.298  19.377  0.00  0.00    +0.000 A 
ATOM      3  C   UNL     1       5.758   5.065  18.109  0.00  0.00    +0.000 A 
ATOM      4  C   UNL     1       7.061   5.102  17.599  0.00  0.00    +0.000 A 
ATOM      5  C   UNL     1       7.233   4.804  16.245  0.00  0.00    +0.000 A 
ATOM      6  C   UNL     1       6.125   4.478  15.464  0.00  0.00    +0.000 A 
ATOM      7  N   UNL     1       4.851   4.432  15.930  0.00  0.00    +0.000 NA
ATOM      8  C   UNL     1       4.729   4.730  17.240  0.00  0.00    +0.000 A 
ATOM      9  N   UNL     1       3.555   4.753  17.956  0.00  0.00    +0.000 N 
ATOM     10  C   UNL     1       2.254   4.457  17.393  0.00  0.00    +0.000 C 
ENDROOT
BRANCH   6  11
ATOM     11  C   UNL     1       6.303   4.141  14.056  0.00  0.00    +0.000 A 
ATOM     12  C   UNL     1       5.502   3.388  13.166  0.00  0.00    +0.000 A 
ATOM     13  N   UNL     1       6.013   3.325  11.931  0.00  0.00    +0.000 NA
ATOM     14  N   UNL     1       7.142   4.043  12.025  0.00  0.00    +0.000 N 
ATOM     15  C   UNL     1       7.366   4.545  13.272  0.00  0.00    +0.000 A 
ATOM     16  H   UNL     1       7.713   4.152  11.194  0.00  0.00    +0.000 HD
ENDBRANCH   6  11
BRANCH   1  18
ATOM     17  N   UNL     1       2.232   6.556  20.338  0.00  0.00    +0.000 N 
ATOM     18  C   UNL     1       2.786   5.297  20.298  0.00  0.00    +0.000 C 
ATOM     19  O   UNL     1       2.434   4.396  21.051  0.00  0.00    +0.000 OA
ATOM     20  H   UNL     1       2.375   7.163  19.545  0.00  0.00    +0.000 HD
BRANCH  17  21
ATOM     21  C   UNL     1       1.169   6.899  21.254  0.00  0.00    +0.000 C 
BRANCH  21  26
ATOM     22  C   UNL     1      -0.017  10.411  22.198  0.00  0.00    +0.000 A 
ATOM     23  C   UNL     1       0.256  11.105  21.018  0.00  0.00    +0.000 A 
ATOM     24  C   UNL     1       0.815  10.450  19.922  0.00  0.00    +0.000 A 
ATOM     25  C   UNL     1       1.104   9.088  20.000  0.00  0.00    +0.000 A 
ATOM     26  C   UNL     1       0.841   8.370  21.177  0.00  0.00    +0.000 A 
ATOM     27  C   UNL     1       0.281   9.046  22.277  0.00  0.00    +0.000 A 
BRANCH  22  29
ATOM     28  C   UNL     1      -1.041  12.467  22.823  0.00  0.00    +0.000 C 
ATOM     29  O   UNL     1      -0.578  11.174  23.186  0.00  0.00    +0.000 OA
ENDBRANCH  22  29
ENDBRANCH  21  26
ENDBRANCH  17  21
ENDBRANCH   1  18
TORSDOF 5
ENDMDL
MODEL 5
REMARK VINA RESULT:      -7.9      4.705      9.510
REMARK  Name = 
REMARK  7 active torsions:
REMARK  status: ('A' for Active; 'I' for Inactive)
REMARK    1  A    between atoms: C_1  and  O_2
REMARK    2  A    between atoms: O_2  and  C_3
REMARK    3  A    between atoms: C_7  and  C_8
REMARK    4  A    between atoms: C_8  and  N_9
REMARK    5  A    between atoms: C_10  and  C_12
REMARK    6  A    between atoms: C_17  and  C_18
REMARK    7  A    between atoms: N_25  and  C_26
REMARK                            x       y       z     vdW  Elec       q    Type
REMARK                         _______ _______ _______ _____ _____    ______ ____
ROOT
ATOM      1  C   UNL     1       1.395   9.640  18.857  0.00  0.00    +0.000 A 
ATOM      2  C   UNL     1       2.217   9.101  17.875  0.00  0.00    +0.000 A 
ATOM      3  C   UNL     1       2.567   7.781  18.250  0.00  0.00    +0.000 A 
ATOM      4  C   UNL     1       3.327   6.757  17.674  0.00  0.00    +0.000 A 
ATOM      5  C   UNL     1       3.432   5.556  18.380  0.00  0.00    +0.000 A 
ATOM      6  C   UNL     1       2.798   5.423  19.615  0.00  0.00    +0.000 A 
ATOM      7  N   UNL     1       2.056   6.398  20.199  0.00  0.00    +0.000 NA
ATOM      8  C   UNL     1       1.977   7.538  19.483  0.00  0.00    +0.000 A 
ATOM      9  N   UNL     1       1.294   8.675  19.849  0.00  0.00    +0.000 N 
ATOM     10  C   UNL     1       0.544   8.812  21.081  0.00  0.00    +0.000 C 
ENDROOT
BRANCH   6  11
ATOM     11  C   UNL     1       2.926   4.181  20.367  0.00  0.00    +0.000 A 
ATOM     12  C   UNL     1       2.281   3.727  21.542  0.00  0.00    +0.000 A 
ATOM     13  N   UNL     1       2.669   2.501  21.910  0.00  0.00    +0.000 NA
ATOM     14  N   UNL     1       3.562   2.162  20.967  0.00  0.00    +0.000 N 
ATOM     15  C   UNL     1       3.758   3.131  20.029  0.00  0.00    +0.000 A 
ATOM     16  H   UNL     1       3.999   1.249  21.026  0.00  0.00    +0.000 HD
ENDBRANCH   6  11
BRANCH   1  18
ATOM     17  N   UNL     1      -0.451  11.001  18.269  0.00  0.00    +0.000 N 
ATOM     18  C   UNL     1       0.776  10.953  18.892  0.00  0.00    +0.000 C 
ATOM     19  O   UNL     1       1.277  11.927  19.442  0.00  0.00    +0.000 OA
ATOM     20  H   UNL     1      -0.915  10.129  18.065  0.00  0.00    +0.000 HD
BRANCH  17  21
ATOM     21  C   UNL     1      -1.253  12.202  18.246  0.00  0.00    +0.000 C 
BRANCH  21  26
ATOM     22  C   UNL     1      -4.980  11.819  19.018  0.00  0.00    +0.000 A 
ATOM     23  C   UNL     1      -5.440  11.268  17.820  0.00  0.00    +0.000 A 
ATOM     24  C   UNL     1      -4.558  11.016  16.770  0.00  0.00    +0.000 A 
ATOM     25  C   UNL     1      -3.203  11.314  16.913  0.00  0.00    +0.000 A 
ATOM     26  C   UNL     1      -2.719  11.872  18.107  0.00  0.00    +0.000 A 
ATOM     27  C   UNL     1      -3.622  12.125  19.156  0.00  0.00    +0.000 A 
BRANCH  22  29
ATOM     28  C   UNL     1      -7.046  11.096  19.951  0.00  0.00    +0.000 C 
ATOM     29  O   UNL     1      -5.949  11.998  19.966  0.00  0.00    +0.000 OA
ENDBRANCH  22  29
ENDBRANCH  21  26
ENDBRANCH  17  21
ENDBRANCH   1  18
TORSDOF 5
ENDMDL
MODEL 6
REMARK VINA RESULT:      -7.8      4.073      9.205
REMARK  Name = 
REMARK  7 active torsions:
REMARK  status: ('A' for Active; 'I' for Inactive)
REMARK    1  A    between atoms: C_1  and  O_2
REMARK    2  A    between atoms: O_2  and  C_3
REMARK    3  A    between atoms: C_7  and  C_8
REMARK    4  A    between atoms: C_8  and  N_9
REMARK    5  A    between atoms: C_10  and  C_12
REMARK    6  A    between atoms: C_17  and  C_18
REMARK    7  A    between atoms: N_25  and  C_26
REMARK                            x       y       z     vdW  Elec       q    Type
REMARK                         _______ _______ _______ _____ _____    ______ ____
ROOT
ATOM      1  C   UNL     1       1.099   8.951  20.055  0.00  0.00    +0.000 A 
ATOM      2  C   UNL     1       1.088   7.819  20.861  0.00  0.00    +0.000 A 
ATOM      3  C   UNL     1       1.932   6.841  20.282  0.00  0.00    +0.000 A 
ATOM      4  C   UNL     1       2.334   5.547  20.633  0.00  0.00    +0.000 A 
ATOM      5  C   UNL     1       3.212   4.888  19.770  0.00  0.00    +0.000 A 
ATOM      6  C   UNL     1       3.644   5.523  18.606  0.00  0.00    +0.000 A 
ATOM      7  N   UNL     1       3.271   6.776  18.239  0.00  0.00    +0.000 NA
ATOM      8  C   UNL     1       2.427   7.377  19.101  0.00  0.00    +0.000 A 
ATOM      9  N   UNL     1       1.897   8.640  18.964  0.00  0.00    +0.000 N 
ATOM     10  C   UNL     1       2.180   9.523  17.851  0.00  0.00    +0.000 C 
ENDROOT
BRANCH   6  11
ATOM     11  C   UNL     1       4.541   4.829  17.690  0.00  0.00    +0.000 A 
ATOM     12  C   UNL     1       5.787   5.206  17.135  0.00  0.00    +0.000 A 
ATOM     13  N   UNL     1       6.309   4.267  16.339  0.00  0.00    +0.000 NA
ATOM     14  N   UNL     1       5.400   3.281  16.384  0.00  0.00    +0.000 N 
ATOM     15  C   UNL     1       4.323   3.569  17.169  0.00  0.00    +0.000 A 
ATOM     16  H   UNL     1       5.582   2.434  15.855  0.00  0.00    +0.000 HD
ENDBRANCH   6  11
BRANCH   1  18
ATOM     17  N   UNL     1      -0.765  10.315  19.539  0.00  0.00    +0.000 N 
ATOM     18  C   UNL     1       0.403  10.208  20.260  0.00  0.00    +0.000 C 
ATOM     19  O   UNL     1       0.794  11.088  21.018  0.00  0.00    +0.000 OA
ATOM     20  H   UNL     1      -1.156   9.474  19.141  0.00  0.00    +0.000 HD
BRANCH  17  21
ATOM     21  C   UNL     1      -1.632  11.465  19.648  0.00  0.00    +0.000 C 
BRANCH  21  26
ATOM     22  C   UNL     1      -3.242  11.204  16.188  0.00  0.00    +0.000 A 
ATOM     23  C   UNL     1      -4.572  11.497  16.496  0.00  0.00    +0.000 A 
ATOM     24  C   UNL     1      -4.952  11.782  17.807  0.00  0.00    +0.000 A 
ATOM     25  C   UNL     1      -3.997  11.777  18.823  0.00  0.00    +0.000 A 
ATOM     26  C   UNL     1      -2.654  11.481  18.538  0.00  0.00    +0.000 A 
ATOM     27  C   UNL     1      -2.288  11.190  17.211  0.00  0.00    +0.000 A 
BRANCH  22  29
ATOM     28  C   UNL     1      -3.798   9.956  14.239  0.00  0.00    +0.000 C 
ATOM     29  O   UNL     1      -3.009  10.959  14.862  0.00  0.00    +0.000 OA
ENDBRANCH  22  29
ENDBRANCH  21  26
ENDBRANCH  17  21
ENDBRANCH   1  18
TORSDOF 5
ENDMDL
MODEL 7
REMARK VINA RESULT:      -7.8      4.369      9.491
REMARK  Name = 
REMARK  7 active torsions:
REMARK  status: ('A' for Active; 'I' for Inactive)
REMARK    1  A    between atoms: C_1  and  O_2
REMARK    2  A    between atoms: O_2  and  C_3
REMARK    3  A    between atoms: C_7  and  C_8
REMARK    4  A    between atoms: C_8  and  N_9
REMARK    5  A    between atoms: C_10  and  C_12
REMARK    6  A    between atoms: C_17  and  C_18
REMARK    7  A    between atoms: N_25  and  C_26
REMARK                            x       y       z     vdW  Elec       q    Type
REMARK                         _______ _______ _______ _____ _____    ______ ____
ROOT
ATOM      1  C   UNL     1       1.213   8.579  19.943  0.00  0.00    +0.000 A 
ATOM      2  C   UNL     1       1.273   7.435  20.727  0.00  0.00    +0.000 A 
ATOM      3  C   UNL     1       2.196   6.533  20.144  0.00  0.00    +0.000 A 
ATOM      4  C   UNL     1       2.687   5.265  20.477  0.00  0.00    +0.000 A 
ATOM      5  C   UNL     1       3.625   4.689  19.617  0.00  0.00    +0.000 A 
ATOM      6  C   UNL     1       4.027   5.378  18.473  0.00  0.00    +0.000 A 
ATOM      7  N   UNL     1       3.567   6.607  18.123  0.00  0.00    +0.000 NA
ATOM      8  C   UNL     1       2.668   7.127  18.982  0.00  0.00    +0.000 A 
ATOM      9  N   UNL     1       2.048   8.350  18.859  0.00  0.00    +0.000 N 
ATOM     10  C   UNL     1       2.282   9.272  17.767  0.00  0.00    +0.000 C 
ENDROOT
BRANCH   6  11
ATOM     11  C   UNL     1       4.986   4.770  17.559  0.00  0.00    +0.000 A 
ATOM     12  C   UNL     1       4.815   4.156  16.296  0.00  0.00    +0.000 A 
ATOM     13  N   UNL     1       5.966   3.732  15.762  0.00  0.00    +0.000 NA
ATOM     14  N   UNL     1       6.881   4.078  16.681  0.00  0.00    +0.000 N 
ATOM     15  C   UNL     1       6.348   4.692  17.775  0.00  0.00    +0.000 A 
ATOM     16  H   UNL     1       7.855   3.866  16.493  0.00  0.00    +0.000 HD
ENDBRANCH   6  11
BRANCH   1  18
ATOM     17  N   UNL     1      -0.655   9.888  19.310  0.00  0.00    +0.000 N 
ATOM     18  C   UNL     1       0.423   9.778  20.159  0.00  0.00    +0.000 C 
ATOM     19  O   UNL     1       0.667  10.607  21.027  0.00  0.00    +0.000 OA
ATOM     20  H   UNL     1      -0.945   9.066  18.801  0.00  0.00    +0.000 HD
BRANCH  17  21
ATOM     21  C   UNL     1      -1.597  10.979  19.402  0.00  0.00    +0.000 C 
BRANCH  21  26
ATOM     22  C   UNL     1      -4.602  11.686  17.143  0.00  0.00    +0.000 A 
ATOM     23  C   UNL     1      -4.198  11.054  15.965  0.00  0.00    +0.000 A 
ATOM     24  C   UNL     1      -2.969  10.400  15.896  0.00  0.00    +0.000 A 
ATOM     25  C   UNL     1      -2.133  10.373  17.012  0.00  0.00    +0.000 A 
ATOM     26  C   UNL     1      -2.516  11.004  18.205  0.00  0.00    +0.000 A 
ATOM     27  C   UNL     1      -3.758  11.665  18.258  0.00  0.00    +0.000 A 
BRANCH  22  29
ATOM     28  C   UNL     1      -6.825  11.815  17.984  0.00  0.00    +0.000 C 
ATOM     29  O   UNL     1      -5.836  12.274  17.075  0.00  0.00    +0.000 OA
ENDBRANCH  22  29
ENDBRANCH  21  26
ENDBRANCH  17  21
ENDBRANCH   1  18
TORSDOF 5
ENDMDL
MODEL 8
REMARK VINA RESULT:      -7.8      3.924      9.060
REMARK  Name = 
REMARK  7 active torsions:
REMARK  status: ('A' for Active; 'I' for Inactive)
REMARK    1  A    between atoms: C_1  and  O_2
REMARK    2  A    between atoms: O_2  and  C_3
REMARK    3  A    between atoms: C_7  and  C_8
REMARK    4  A    between atoms: C_8  and  N_9
REMARK    5  A    between atoms: C_10  and  C_12
REMARK    6  A    between atoms: C_17  and  C_18
REMARK    7  A    between atoms: N_25  and  C_26
REMARK                            x       y       z     vdW  Elec       q    Type
REMARK                         _______ _______ _______ _____ _____    ______ ____
ROOT
ATOM      1  C   UNL     1       1.454   8.518  19.756  0.00  0.00    +0.000 A 
ATOM      2  C   UNL     1       1.631   7.300  20.399  0.00  0.00    +0.000 A 
ATOM      3  C   UNL     1       2.585   6.541  19.678  0.00  0.00    +0.000 A 
ATOM      4  C   UNL     1       3.177   5.283  19.841  0.00  0.00    +0.000 A 
ATOM      5  C   UNL     1       4.110   4.880  18.882  0.00  0.00    +0.000 A 
ATOM      6  C   UNL     1       4.408   5.722  17.811  0.00  0.00    +0.000 A 
ATOM      7  N   UNL     1       3.849   6.946  17.626  0.00  0.00    +0.000 NA
ATOM      8  C   UNL     1       2.958   7.297  18.575  0.00  0.00    +0.000 A 
ATOM      9  N   UNL     1       2.250   8.476  18.621  0.00  0.00    +0.000 N 
ATOM     10  C   UNL     1       2.367   9.532  17.636  0.00  0.00    +0.000 C 
ENDROOT
BRANCH   6  11
ATOM     11  C   UNL     1       5.362   5.295  16.795  0.00  0.00    +0.000 A 
ATOM     12  C   UNL     1       5.370   4.174  15.932  0.00  0.00    +0.000 A 
ATOM     13  N   UNL     1       6.432   4.149  15.119  0.00  0.00    +0.000 NA
ATOM     14  N   UNL     1       7.106   5.259  15.455  0.00  0.00    +0.000 N 
ATOM     15  C   UNL     1       6.515   5.973  16.454  0.00  0.00    +0.000 A 
ATOM     16  H   UNL     1       7.964   5.470  14.956  0.00  0.00    +0.000 HD
ENDBRANCH   6  11
BRANCH   1  18
ATOM     17  N   UNL     1      -0.377   9.917  19.212  0.00  0.00    +0.000 N 
ATOM     18  C   UNL     1       0.594   9.623  20.142  0.00  0.00    +0.000 C 
ATOM     19  O   UNL     1       0.697  10.227  21.203  0.00  0.00    +0.000 OA
ATOM     20  H   UNL     1      -0.569   9.234  18.494  0.00  0.00    +0.000 HD
BRANCH  17  21
ATOM     21  C   UNL     1      -1.368  10.944  19.435  0.00  0.00    +0.000 C 
BRANCH  21  26
ATOM     22  C   UNL     1      -2.867  10.649  15.928  0.00  0.00    +0.000 A 
ATOM     23  C   UNL     1      -4.142  11.177  16.143  0.00  0.00    +0.000 A 
ATOM     24  C   UNL     1      -4.518  11.630  17.407  0.00  0.00    +0.000 A 
ATOM     25  C   UNL     1      -3.617  11.558  18.468  0.00  0.00    +0.000 A 
ATOM     26  C   UNL     1      -2.331  11.028  18.276  0.00  0.00    +0.000 A 
ATOM     27  C   UNL     1      -1.967  10.570  16.996  0.00  0.00    +0.000 A 
BRANCH  22  29
ATOM     28  C   UNL     1      -3.758   9.991  13.821  0.00  0.00    +0.000 C 
ATOM     29  O   UNL     1      -2.628  10.258  14.639  0.00  0.00    +0.000 OA
ENDBRANCH  22  29
ENDBRANCH  21  26
ENDBRANCH  17  21
ENDBRANCH   1  18
TORSDOF 5
ENDMDL
MODEL 9
REMARK VINA RESULT:      -7.7      3.491      5.590
REMARK  Name = 
REMARK  7 active torsions:
REMARK  status: ('A' for Active; 'I' for Inactive)
REMARK    1  A    between atoms: C_1  and  O_2
REMARK    2  A    between atoms: O_2  and  C_3
REMARK    3  A    between atoms: C_7  and  C_8
REMARK    4  A    between atoms: C_8  and  N_9
REMARK    5  A    between atoms: C_10  and  C_12
REMARK    6  A    between atoms: C_17  and  C_18
REMARK    7  A    between atoms: N_25  and  C_26
REMARK                            x       y       z     vdW  Elec       q    Type
REMARK                         _______ _______ _______ _____ _____    ______ ____
ROOT
ATOM      1  C   UNL     1       1.423   8.839  19.633  0.00  0.00    +0.000 A 
ATOM      2  C   UNL     1       1.199   8.311  20.898  0.00  0.00    +0.000 A 
ATOM      3  C   UNL     1       0.402   9.221  21.635  0.00  0.00    +0.000 A 
ATOM      4  C   UNL     1      -0.156   9.233  22.919  0.00  0.00    +0.000 A 
ATOM      5  C   UNL     1      -0.910  10.351  23.284  0.00  0.00    +0.000 A 
ATOM      6  C   UNL     1      -1.071  11.401  22.380  0.00  0.00    +0.000 A 
ATOM      7  N   UNL     1      -0.541  11.418  21.130  0.00  0.00    +0.000 NA
ATOM      8  C   UNL     1       0.175  10.319  20.818  0.00  0.00    +0.000 A 
ATOM      9  N   UNL     1       0.817  10.087  19.623  0.00  0.00    +0.000 N 
ATOM     10  C   UNL     1       0.812  11.010  18.506  0.00  0.00    +0.000 C 
ENDROOT
BRANCH   6  11
ATOM     11  C   UNL     1      -1.835  12.580  22.766  0.00  0.00    +0.000 A 
ATOM     12  C   UNL     1      -3.215  12.876  22.664  0.00  0.00    +0.000 A 
ATOM     13  N   UNL     1      -3.529  14.079  23.156  0.00  0.00    +0.000 NA
ATOM     14  N   UNL     1      -2.350  14.558  23.582  0.00  0.00    +0.000 N 
ATOM     15  C   UNL     1      -1.307  13.707  23.365  0.00  0.00    +0.000 A 
ATOM     16  H   UNL     1      -2.332  15.475  24.015  0.00  0.00    +0.000 HD
ENDBRANCH   6  11
BRANCH   1  18
ATOM     17  N   UNL     1       2.697   7.017  18.822  0.00  0.00    +0.000 N 
ATOM     18  C   UNL     1       2.165   8.253  18.532  0.00  0.00    +0.000 C 
ATOM     19  O   UNL     1       2.291   8.787  17.436  0.00  0.00    +0.000 OA
ATOM     20  H   UNL     1       2.350   6.529  19.634  0.00  0.00    +0.000 HD
BRANCH  17  21
ATOM     21  C   UNL     1       3.421   6.243  17.839  0.00  0.00    +0.000 C 
BRANCH  21  26
ATOM     22  C   UNL     1       2.202   2.918  19.283  0.00  0.00    +0.000 A 
ATOM     23  C   UNL     1       2.869   2.013  18.455  0.00  0.00    +0.000 A 
ATOM     24  C   UNL     1       3.710   2.466  17.440  0.00  0.00    +0.000 A 
ATOM     25  C   UNL     1       3.891   3.836  17.247  0.00  0.00    +0.000 A 
ATOM     26  C   UNL     1       3.228   4.764  18.066  0.00  0.00    +0.000 A 
ATOM     27  C   UNL     1       2.378   4.291  19.082  0.00  0.00    +0.000 A 
BRANCH  22  29
ATOM     28  C   UNL     1       1.562   2.817  21.574  0.00  0.00    +0.000 C 
ATOM     29  O   UNL     1       1.423   2.335  20.245  0.00  0.00    +0.000 OA
ENDBRANCH  22  29
ENDBRANCH  21  26
ENDBRANCH  17  21
ENDBRANCH   1  18
TORSDOF 5
ENDMDL
