MODEL 1
REMARK VINA RESULT:      -8.8      0.000      0.000
REMARK  Name = 
REMARK  6 active torsions:
REMARK  status: ('A' for Active; 'I' for Inactive)
REMARK    1  A    between atoms: C_1  and  C_2
REMARK    2  A    between atoms: C_2  and  N_3
REMARK    3  A    between atoms: C_7  and  O_8
REMARK    4  A    between atoms: O_8  and  C_9
REMARK    5  A    between atoms: C_16  and  O_17
REMARK    6  A    between atoms: O_17  and  C_18
REMARK                            x       y       z     vdW  Elec       q    Type
REMARK                         _______ _______ _______ _____ _____    ______ ____
ROOT
ATOM      1  N   UNL     1       2.122   3.750  19.582  0.00  0.00    +0.000 N 
ATOM      2  C   UNL     1       2.796   4.663  20.495  0.00  0.00    +0.000 C 
ATOM      3  C   UNL     1       2.431   6.088  20.155  0.00  0.00    +0.000 A 
ATOM      4  C   UNL     1       1.466   6.754  20.948  0.00  0.00    +0.000 A 
ATOM      5  C   UNL     1       0.983   8.020  20.615  0.00  0.00    +0.000 A 
ATOM      6  C   UNL     1       1.517   8.611  19.483  0.00  0.00    +0.000 A 
ATOM      7  C   UNL     1       2.470   7.965  18.699  0.00  0.00    +0.000 A 
ATOM      8  C   UNL     1       2.943   6.682  18.978  0.00  0.00    +0.000 A 
ATOM      9  C   UNL     1       3.771   5.885  18.041  0.00  0.00    +0.000 A 
ATOM     10  C   UNL     1       3.347   4.603  17.620  0.00  0.00    +0.000 A 
ATOM     11  C   UNL     1       4.071   3.827  16.678  0.00  0.00    +0.000 A 
ATOM     12  C   UNL     1       5.284   4.262  16.175  0.00  0.00    +0.000 A 
ATOM     13  C   UNL     1       5.729   5.487  16.633  0.00  0.00    +0.000 A 
ATOM     14  C   UNL     1       4.996   6.286  17.507  0.00  0.00    +0.000 A 
ATOM     15  O   UNL     1       5.671   7.446  17.780  0.00  0.00    +0.000 OA
ATOM     16  C   UNL     1       6.781   7.354  16.860  0.00  0.00    +0.000 C 
ATOM     17  O   UNL     1       6.925   6.048  16.287  0.00  0.00    +0.000 OA
ATOM     18  C   UNL     1       2.186   3.873  18.195  0.00  0.00    +0.000 C 
ATOM     19  O   UNL     1       1.461   3.235  17.437  0.00  0.00    +0.000 OA
ATOM     20  O   UNL     1       2.804   8.709  17.600  0.00  0.00    +0.000 OA
ATOM     21  C   UNL     1       1.958   9.861  17.761  0.00  0.00    +0.000 C 
ATOM     22  O   UNL     1       1.171   9.823  18.961  0.00  0.00    +0.000 OA
ENDROOT
BRANCH   1  24
ATOM     23  C   UNL     1       1.454   2.532  21.635  0.00  0.00    +0.000 C 
ATOM     24  C   UNL     1       1.570   2.516  20.125  0.00  0.00    +0.000 C 
ENDBRANCH   1  24
BRANCH   5  25
ATOM     25  O   UNL     1       0.015   8.484  21.455  0.00  0.00    +0.000 OA
ATOM     26  C   UNL     1       0.399   9.379  22.490  0.00  0.00    +0.000 C 
ENDBRANCH   5  25
BRANCH  12  27
ATOM     27  O   UNL     1       6.086   3.567  15.319  0.00  0.00    +0.000 OA
ATOM     28  C   UNL     1       5.977   3.902  13.939  0.00  0.00    +0.000 C 
ENDBRANCH  12  27
TORSDOF 3
ENDMDL
MODEL 2
REMARK VINA RESULT:      -8.4      1.038      5.949
REMARK  Name = 
REMARK  6 active torsions:
REMARK  status: ('A' for Active; 'I' for Inactive)
REMARK    1  A    between atoms: C_1  and  C_2
REMARK    2  A    between atoms: C_2  and  N_3
REMARK    3  A    between atoms: C_7  and  O_8
REMARK    4  A    between atoms: O_8  and  C_9
REMARK    5  A    between atoms: C_16  and  O_17
REMARK    6  A    between atoms: O_17  and  C_18
REMARK                            x       y       z     vdW  Elec       q    Type
REMARK                         _______ _______ _______ _____ _____    ______ ____
ROOT
ATOM      1  N   UNL     1       1.770   4.092  19.373  0.00  0.00    +0.000 N 
ATOM      2  C   UNL     1       1.694   4.392  17.950  0.00  0.00    +0.000 C 
ATOM      3  C   UNL     1       3.019   4.935  17.471  0.00  0.00    +0.000 A 
ATOM      4  C   UNL     1       3.895   4.076  16.764  0.00  0.00    +0.000 A 
ATOM      5  C   UNL     1       5.186   4.468  16.408  0.00  0.00    +0.000 A 
ATOM      6  C   UNL     1       5.562   5.754  16.754  0.00  0.00    +0.000 A 
ATOM      7  C   UNL     1       4.706   6.609  17.446  0.00  0.00    +0.000 A 
ATOM      8  C   UNL     1       3.425   6.235  17.854  0.00  0.00    +0.000 A 
ATOM      9  C   UNL     1       2.591   7.030  18.786  0.00  0.00    +0.000 A 
ATOM     10  C   UNL     1       2.105   6.457  19.985  0.00  0.00    +0.000 A 
ATOM     11  C   UNL     1       1.355   7.193  20.939  0.00  0.00    +0.000 A 
ATOM     12  C   UNL     1       0.995   8.507  20.704  0.00  0.00    +0.000 A 
ATOM     13  C   UNL     1       1.417   9.050  19.506  0.00  0.00    +0.000 A 
ATOM     14  C   UNL     1       2.207   8.358  18.592  0.00  0.00    +0.000 A 
ATOM     15  O   UNL     1       2.484   9.142  17.504  0.00  0.00    +0.000 OA
ATOM     16  C   UNL     1       1.945  10.415  17.924  0.00  0.00    +0.000 C 
ATOM     17  O   UNL     1       1.109  10.312  19.084  0.00  0.00    +0.000 OA
ATOM     18  C   UNL     1       2.207   5.012  20.324  0.00  0.00    +0.000 C 
ATOM     19  O   UNL     1       2.462   4.699  21.484  0.00  0.00    +0.000 OA
ATOM     20  O   UNL     1       5.311   7.800  17.734  0.00  0.00    +0.000 OA
ATOM     21  C   UNL     1       6.624   7.601  17.181  0.00  0.00    +0.000 C 
ATOM     22  O   UNL     1       6.779   6.331  16.532  0.00  0.00    +0.000 OA
ENDROOT
BRANCH   1  24
ATOM     23  C   UNL     1       0.771   1.912  18.743  0.00  0.00    +0.000 C 
ATOM     24  C   UNL     1       1.128   2.876  19.856  0.00  0.00    +0.000 C 
ENDBRANCH   1  24
BRANCH   5  25
ATOM     25  O   UNL     1       5.911   3.495  15.787  0.00  0.00    +0.000 OA
ATOM     26  C   UNL     1       6.251   3.682  14.421  0.00  0.00    +0.000 C 
ENDBRANCH   5  25
BRANCH  12  27
ATOM     27  O   UNL     1       0.225   9.279  21.522  0.00  0.00    +0.000 OA
ATOM     28  C   UNL     1       0.671   9.413  22.869  0.00  0.00    +0.000 C 
ENDBRANCH  12  27
TORSDOF 3
ENDMDL
MODEL 3
REMARK VINA RESULT:      -7.3      2.166      6.254
REMARK  Name = 
REMARK  6 active torsions:
REMARK  status: ('A' for Active; 'I' for Inactive)
REMARK    1  A    between atoms: C_1  and  C_2
REMARK    2  A    between atoms: C_2  and  N_3
REMARK    3  A    between atoms: C_7  and  O_8
REMARK    4  A    between atoms: O_8  and  C_9
REMARK    5  A    between atoms: C_16  and  O_17
REMARK    6  A    between atoms: O_17  and  C_18
REMARK                            x       y       z     vdW  Elec       q    Type
REMARK                         _______ _______ _______ _____ _____    ______ ____
ROOT
ATOM      1  N   UNL     1       5.723   6.344  17.740  0.00  0.00    +0.000 N 
ATOM      2  C   UNL     1       5.776   6.022  19.160  0.00  0.00    +0.000 C 
ATOM      3  C   UNL     1       4.761   4.950  19.478  0.00  0.00    +0.000 A 
ATOM      4  C   UNL     1       5.205   3.616  19.640  0.00  0.00    +0.000 A 
ATOM      5  C   UNL     1       4.312   2.556  19.804  0.00  0.00    +0.000 A 
ATOM      6  C   UNL     1       2.966   2.875  19.831  0.00  0.00    +0.000 A 
ATOM      7  C   UNL     1       2.520   4.186  19.678  0.00  0.00    +0.000 A 
ATOM      8  C   UNL     1       3.382   5.264  19.469  0.00  0.00    +0.000 A 
ATOM      9  C   UNL     1       2.929   6.618  19.071  0.00  0.00    +0.000 A 
ATOM     10  C   UNL     1       3.425   7.225  17.893  0.00  0.00    +0.000 A 
ATOM     11  C   UNL     1       2.978   8.491  17.436  0.00  0.00    +0.000 A 
ATOM     12  C   UNL     1       2.075   9.239  18.171  0.00  0.00    +0.000 A 
ATOM     13  C   UNL     1       1.637   8.674  19.353  0.00  0.00    +0.000 A 
ATOM     14  C   UNL     1       2.019   7.404  19.779  0.00  0.00    +0.000 A 
ATOM     15  O   UNL     1       1.424   7.098  20.974  0.00  0.00    +0.000 OA
ATOM     16  C   UNL     1       0.518   8.212  21.136  0.00  0.00    +0.000 C 
ATOM     17  O   UNL     1       0.789   9.289  20.229  0.00  0.00    +0.000 OA
ATOM     18  C   UNL     1       4.544   6.681  17.078  0.00  0.00    +0.000 C 
ATOM     19  O   UNL     1       4.466   6.752  15.854  0.00  0.00    +0.000 OA
ATOM     20  O   UNL     1       1.154   4.254  19.674  0.00  0.00    +0.000 OA
ATOM     21  C   UNL     1       0.794   2.869  19.816  0.00  0.00    +0.000 C 
ATOM     22  O   UNL     1       1.927   1.999  19.951  0.00  0.00    +0.000 OA
ENDROOT
BRANCH   1  24
ATOM     23  C   UNL     1       7.697   7.823  17.499  0.00  0.00    +0.000 C 
ATOM     24  C   UNL     1       6.979   6.572  17.038  0.00  0.00    +0.000 C 
ENDBRANCH   1  24
BRANCH   5  25
ATOM     25  O   UNL     1       4.911   1.333  19.883  0.00  0.00    +0.000 OA
ATOM     26  C   UNL     1       5.390   0.904  21.150  0.00  0.00    +0.000 C 
ENDBRANCH   5  25
BRANCH  12  27
ATOM     27  O   UNL     1       1.633  10.489  17.854  0.00  0.00    +0.000 OA
ATOM     28  C   UNL     1       2.515  11.566  18.155  0.00  0.00    +0.000 C 
ENDBRANCH  12  27
TORSDOF 3
ENDMDL
MODEL 4
REMARK VINA RESULT:      -6.8      2.207      4.900
REMARK  Name = 
REMARK  6 active torsions:
REMARK  status: ('A' for Active; 'I' for Inactive)
REMARK    1  A    between atoms: C_1  and  C_2
REMARK    2  A    between atoms: C_2  and  N_3
REMARK    3  A    between atoms: C_7  and  O_8
REMARK    4  A    between atoms: O_8  and  C_9
REMARK    5  A    between atoms: C_16  and  O_17
REMARK    6  A    between atoms: O_17  and  C_18
REMARK                            x       y       z     vdW  Elec       q    Type
REMARK                         _______ _______ _______ _____ _____    ______ ____
ROOT
ATOM      1  N   UNL     1       5.700   6.327  17.645  0.00  0.00    +0.000 N 
ATOM      2  C   UNL     1       4.461   6.505  16.901  0.00  0.00    +0.000 C 
ATOM      3  C   UNL     1       3.429   7.172  17.778  0.00  0.00    +0.000 A 
ATOM      4  C   UNL     1       3.180   8.556  17.609  0.00  0.00    +0.000 A 
ATOM      5  C   UNL     1       2.340   9.265  18.468  0.00  0.00    +0.000 A 
ATOM      6  C   UNL     1       1.736   8.543  19.482  0.00  0.00    +0.000 A 
ATOM      7  C   UNL     1       1.971   7.180  19.654  0.00  0.00    +0.000 A 
ATOM      8  C   UNL     1       2.837   6.450  18.840  0.00  0.00    +0.000 A 
ATOM      9  C   UNL     1       3.284   5.069  19.140  0.00  0.00    +0.000 A 
ATOM     10  C   UNL     1       4.662   4.766  19.248  0.00  0.00    +0.000 A 
ATOM     11  C   UNL     1       5.140   3.476  19.595  0.00  0.00    +0.000 A 
ATOM     12  C   UNL     1       4.269   2.416  19.774  0.00  0.00    +0.000 A 
ATOM     13  C   UNL     1       2.927   2.696  19.609  0.00  0.00    +0.000 A 
ATOM     14  C   UNL     1       2.443   3.972  19.332  0.00  0.00    +0.000 A 
ATOM     15  O   UNL     1       1.077   3.958  19.233  0.00  0.00    +0.000 OA
ATOM     16  C   UNL     1       0.774   2.608  19.650  0.00  0.00    +0.000 C 
ATOM     17  O   UNL     1       1.932   1.764  19.694  0.00  0.00    +0.000 OA
ATOM     18  C   UNL     1       5.757   5.709  18.894  0.00  0.00    +0.000 C 
ATOM     19  O   UNL     1       6.757   5.739  19.605  0.00  0.00    +0.000 OA
ATOM     20  O   UNL     1       1.320   6.693  20.753  0.00  0.00    +0.000 OA
ATOM     21  C   UNL     1       0.678   7.877  21.260  0.00  0.00    +0.000 C 
ATOM     22  O   UNL     1       0.906   9.038  20.447  0.00  0.00    +0.000 OA
ENDROOT
BRANCH   1  24
ATOM     23  C   UNL     1       7.619   7.871  17.368  0.00  0.00    +0.000 C 
ATOM     24  C   UNL     1       6.960   6.571  16.956  0.00  0.00    +0.000 C 
ENDBRANCH   1  24
BRANCH   5  25
ATOM     25  O   UNL     1       2.264  10.598  18.194  0.00  0.00    +0.000 OA
ATOM     26  C   UNL     1       1.096  11.299  18.600  0.00  0.00    +0.000 C 
ENDBRANCH   5  25
BRANCH  12  27
ATOM     27  O   UNL     1       4.628   1.129  20.044  0.00  0.00    +0.000 OA
ATOM     28  C   UNL     1       5.396   0.921  21.225  0.00  0.00    +0.000 C 
ENDBRANCH  12  27
TORSDOF 3
ENDMDL
MODEL 5
REMARK VINA RESULT:      -6.7      5.387     10.200
REMARK  Name = 
REMARK  6 active torsions:
REMARK  status: ('A' for Active; 'I' for Inactive)
REMARK    1  A    between atoms: C_1  and  C_2
REMARK    2  A    between atoms: C_2  and  N_3
REMARK    3  A    between atoms: C_7  and  O_8
REMARK    4  A    between atoms: O_8  and  C_9
REMARK    5  A    between atoms: C_16  and  O_17
REMARK    6  A    between atoms: O_17  and  C_18
REMARK                            x       y       z     vdW  Elec       q    Type
REMARK                         _______ _______ _______ _____ _____    ______ ____
ROOT
ATOM      1  N   UNL     1      -2.855  11.377  17.365  0.00  0.00    +0.000 N 
ATOM      2  C   UNL     1      -1.556  11.988  17.610  0.00  0.00    +0.000 C 
ATOM      3  C   UNL     1      -0.900  11.331  18.800  0.00  0.00    +0.000 A 
ATOM      4  C   UNL     1       0.118  10.373  18.576  0.00  0.00    +0.000 A 
ATOM      5  C   UNL     1       0.676   9.631  19.618  0.00  0.00    +0.000 A 
ATOM      6  C   UNL     1       0.206   9.899  20.892  0.00  0.00    +0.000 A 
ATOM      7  C   UNL     1      -0.792  10.843  21.123  0.00  0.00    +0.000 A 
ATOM      8  C   UNL     1      -1.401  11.572  20.101  0.00  0.00    +0.000 A 
ATOM      9  C   UNL     1      -2.615  12.401  20.288  0.00  0.00    +0.000 A 
ATOM     10  C   UNL     1      -3.775  12.165  19.513  0.00  0.00    +0.000 A 
ATOM     11  C   UNL     1      -4.981  12.889  19.697  0.00  0.00    +0.000 A 
ATOM     12  C   UNL     1      -5.060  13.928  20.607  0.00  0.00    +0.000 A 
ATOM     13  C   UNL     1      -3.909  14.200  21.321  0.00  0.00    +0.000 A 
ATOM     14  C   UNL     1      -2.739  13.455  21.195  0.00  0.00    +0.000 A 
ATOM     15  O   UNL     1      -1.767  13.939  22.029  0.00  0.00    +0.000 OA
ATOM     16  C   UNL     1      -2.507  14.919  22.791  0.00  0.00    +0.000 C 
ATOM     17  O   UNL     1      -3.787  15.221  22.220  0.00  0.00    +0.000 OA
ATOM     18  C   UNL     1      -3.831  11.238  18.351  0.00  0.00    +0.000 C 
ATOM     19  O   UNL     1      -4.836  10.548  18.200  0.00  0.00    +0.000 OA
ATOM     20  O   UNL     1      -1.140  10.892  22.444  0.00  0.00    +0.000 OA
ATOM     21  C   UNL     1      -0.287   9.881  23.008  0.00  0.00    +0.000 C 
ATOM     22  O   UNL     1       0.588   9.275  22.044  0.00  0.00    +0.000 OA
ENDROOT
BRANCH   1  24
ATOM     23  C   UNL     1      -2.667   9.855  15.418  0.00  0.00    +0.000 C 
ATOM     24  C   UNL     1      -3.253  11.132  15.985  0.00  0.00    +0.000 C 
ENDBRANCH   1  24
BRANCH   5  25
ATOM     25  O   UNL     1       1.598   8.712  19.213  0.00  0.00    +0.000 OA
ATOM     26  C   UNL     1       2.040   8.756  17.864  0.00  0.00    +0.000 C 
ENDBRANCH   5  25
BRANCH  12  27
ATOM     27  O   UNL     1      -6.146  14.724  20.813  0.00  0.00    +0.000 OA
ATOM     28  C   UNL     1      -7.207  14.160  21.577  0.00  0.00    +0.000 C 
ENDBRANCH  12  27
TORSDOF 3
ENDMDL
MODEL 6
REMARK VINA RESULT:      -6.7      7.076      9.766
REMARK  Name = 
REMARK  6 active torsions:
REMARK  status: ('A' for Active; 'I' for Inactive)
REMARK    1  A    between atoms: C_1  and  C_2
REMARK    2  A    between atoms: C_2  and  N_3
REMARK    3  A    between atoms: C_7  and  O_8
REMARK    4  A    between atoms: O_8  and  C_9
REMARK    5  A    between atoms: C_16  and  O_17
REMARK    6  A    between atoms: O_17  and  C_18
REMARK                            x       y       z     vdW  Elec       q    Type
REMARK                         _______ _______ _______ _____ _____    ______ ____
ROOT
ATOM      1  N   UNL     1       0.528  12.723  20.088  0.00  0.00    +0.000 N 
ATOM      2  C   UNL     1      -0.165  13.995  20.244  0.00  0.00    +0.000 C 
ATOM      3  C   UNL     1      -1.097  13.926  21.430  0.00  0.00    +0.000 A 
ATOM      4  C   UNL     1      -0.699  14.530  22.647  0.00  0.00    +0.000 A 
ATOM      5  C   UNL     1      -1.446  14.393  23.818  0.00  0.00    +0.000 A 
ATOM      6  C   UNL     1      -2.617  13.661  23.725  0.00  0.00    +0.000 A 
ATOM      7  C   UNL     1      -3.019  13.068  22.531  0.00  0.00    +0.000 A 
ATOM      8  C   UNL     1      -2.275  13.148  21.353  0.00  0.00    +0.000 A 
ATOM      9  C   UNL     1      -2.555  12.339  20.143  0.00  0.00    +0.000 A 
ATOM     10  C   UNL     1      -1.557  11.503  19.590  0.00  0.00    +0.000 A 
ATOM     11  C   UNL     1      -1.793  10.662  18.471  0.00  0.00    +0.000 A 
ATOM     12  C   UNL     1      -3.008  10.677  17.811  0.00  0.00    +0.000 A 
ATOM     13  C   UNL     1      -3.964  11.539  18.312  0.00  0.00    +0.000 A 
ATOM     14  C   UNL     1      -3.765  12.319  19.448  0.00  0.00    +0.000 A 
ATOM     15  O   UNL     1      -4.881  13.065  19.721  0.00  0.00    +0.000 OA
ATOM     16  C   UNL     1      -5.822  12.532  18.763  0.00  0.00    +0.000 C 
ATOM     17  O   UNL     1      -5.198  11.723  17.757  0.00  0.00    +0.000 OA
ATOM     18  C   UNL     1      -0.134  11.497  20.024  0.00  0.00    +0.000 C 
ATOM     19  O   UNL     1       0.452  10.421  20.096  0.00  0.00    +0.000 OA
ATOM     20  O   UNL     1      -4.169  12.345  22.692  0.00  0.00    +0.000 OA
ATOM     21  C   UNL     1      -4.431  12.523  24.095  0.00  0.00    +0.000 C 
ATOM     22  O   UNL     1      -3.479  13.379  24.745  0.00  0.00    +0.000 OA
ENDROOT
BRANCH   1  24
ATOM     23  C   UNL     1       2.171  12.835  18.235  0.00  0.00    +0.000 C 
ATOM     24  C   UNL     1       1.940  12.746  19.730  0.00  0.00    +0.000 C 
ENDBRANCH   1  24
BRANCH   5  25
ATOM     25  O   UNL     1      -0.883  14.987  24.908  0.00  0.00    +0.000 OA
ATOM     26  C   UNL     1      -1.533  16.123  25.461  0.00  0.00    +0.000 C 
ENDBRANCH   5  25
BRANCH  12  27
ATOM     27  O   UNL     1      -3.314   9.960  16.692  0.00  0.00    +0.000 OA
ATOM     28  C   UNL     1      -2.754  10.427  15.469  0.00  0.00    +0.000 C 
ENDBRANCH  12  27
TORSDOF 3
ENDMDL
MODEL 7
REMARK VINA RESULT:      -6.6      6.163     10.085
REMARK  Name = 
REMARK  6 active torsions:
REMARK  status: ('A' for Active; 'I' for Inactive)
REMARK    1  A    between atoms: C_1  and  C_2
REMARK    2  A    between atoms: C_2  and  N_3
REMARK    3  A    between atoms: C_7  and  O_8
REMARK    4  A    between atoms: O_8  and  C_9
REMARK    5  A    between atoms: C_16  and  O_17
REMARK    6  A    between atoms: O_17  and  C_18
REMARK                            x       y       z     vdW  Elec       q    Type
REMARK                         _______ _______ _______ _____ _____    ______ ____
ROOT
ATOM      1  N   UNL     1       0.540  11.509  18.909  0.00  0.00    +0.000 N 
ATOM      2  C   UNL     1      -0.319  10.383  19.249  0.00  0.00    +0.000 C 
ATOM      3  C   UNL     1      -1.717  10.634  18.737  0.00  0.00    +0.000 A 
ATOM      4  C   UNL     1      -2.135   9.989  17.548  0.00  0.00    +0.000 A 
ATOM      5  C   UNL     1      -3.361  10.274  16.945  0.00  0.00    +0.000 A 
ATOM      6  C   UNL     1      -4.166  11.201  17.584  0.00  0.00    +0.000 A 
ATOM      7  C   UNL     1      -3.766  11.837  18.757  0.00  0.00    +0.000 A 
ATOM      8  C   UNL     1      -2.530  11.607  19.363  0.00  0.00    +0.000 A 
ATOM      9  C   UNL     1      -1.985  12.434  20.466  0.00  0.00    +0.000 A 
ATOM     10  C   UNL     1      -0.729  13.071  20.335  0.00  0.00    +0.000 A 
ATOM     11  C   UNL     1      -0.191  13.922  21.335  0.00  0.00    +0.000 A 
ATOM     12  C   UNL     1      -0.847  14.113  22.538  0.00  0.00    +0.000 A 
ATOM     13  C   UNL     1      -2.045  13.442  22.692  0.00  0.00    +0.000 A 
ATOM     14  C   UNL     1      -2.613  12.657  21.692  0.00  0.00    +0.000 A 
ATOM     15  O   UNL     1      -3.802  12.125  22.114  0.00  0.00    +0.000 OA
ATOM     16  C   UNL     1      -3.985  12.801  23.379  0.00  0.00    +0.000 C 
ATOM     17  O   UNL     1      -2.800  13.471  23.830  0.00  0.00    +0.000 OA
ATOM     18  C   UNL     1       0.219  12.831  19.214  0.00  0.00    +0.000 C 
ATOM     19  O   UNL     1       0.837  13.788  18.753  0.00  0.00    +0.000 OA
ATOM     20  O   UNL     1      -4.691  12.755  19.171  0.00  0.00    +0.000 OA
ATOM     21  C   UNL     1      -5.689  12.647  18.141  0.00  0.00    +0.000 C 
ATOM     22  O   UNL     1      -5.383  11.647  17.158  0.00  0.00    +0.000 OA
ENDROOT
BRANCH   1  24
ATOM     23  C   UNL     1       2.069   9.826  17.923  0.00  0.00    +0.000 C 
ATOM     24  C   UNL     1       1.899  11.230  18.465  0.00  0.00    +0.000 C 
ENDBRANCH   1  24
BRANCH   5  25
ATOM     25  O   UNL     1      -3.573   9.607  15.775  0.00  0.00    +0.000 OA
ATOM     26  C   UNL     1      -3.273  10.277  14.559  0.00  0.00    +0.000 C 
ENDBRANCH   5  25
BRANCH  12  27
ATOM     27  O   UNL     1      -0.388  14.855  23.585  0.00  0.00    +0.000 OA
ATOM     28  C   UNL     1      -0.455  16.270  23.435  0.00  0.00    +0.000 C 
ENDBRANCH  12  27
TORSDOF 3
ENDMDL
MODEL 8
REMARK VINA RESULT:      -6.5      6.902      9.435
REMARK  Name = 
REMARK  6 active torsions:
REMARK  status: ('A' for Active; 'I' for Inactive)
REMARK    1  A    between atoms: C_1  and  C_2
REMARK    2  A    between atoms: C_2  and  N_3
REMARK    3  A    between atoms: C_7  and  O_8
REMARK    4  A    between atoms: O_8  and  C_9
REMARK    5  A    between atoms: C_16  and  O_17
REMARK    6  A    between atoms: O_17  and  C_18
REMARK                            x       y       z     vdW  Elec       q    Type
REMARK                         _______ _______ _______ _____ _____    ______ ____
ROOT
ATOM      1  N   UNL     1       0.862  12.824  18.814  0.00  0.00    +0.000 N 
ATOM      2  C   UNL     1       0.078  14.036  19.007  0.00  0.00    +0.000 C 
ATOM      3  C   UNL     1      -0.646  13.971  20.331  0.00  0.00    +0.000 A 
ATOM      4  C   UNL     1      -0.125  14.694  21.431  0.00  0.00    +0.000 A 
ATOM      5  C   UNL     1      -0.663  14.576  22.713  0.00  0.00    +0.000 A 
ATOM      6  C   UNL     1      -1.754  13.737  22.854  0.00  0.00    +0.000 A 
ATOM      7  C   UNL     1      -2.276  13.025  21.777  0.00  0.00    +0.000 A 
ATOM      8  C   UNL     1      -1.737  13.086  20.491  0.00  0.00    +0.000 A 
ATOM      9  C   UNL     1      -2.120  12.169  19.391  0.00  0.00    +0.000 A 
ATOM     10  C   UNL     1      -1.142  11.389  18.732  0.00  0.00    +0.000 A 
ATOM     11  C   UNL     1      -1.464  10.451  17.716  0.00  0.00    +0.000 A 
ATOM     12  C   UNL     1      -2.763  10.308  17.263  0.00  0.00    +0.000 A 
ATOM     13  C   UNL     1      -3.710  11.115  17.863  0.00  0.00    +0.000 A 
ATOM     14  C   UNL     1      -3.416  11.991  18.904  0.00  0.00    +0.000 A 
ATOM     15  O   UNL     1      -4.544  12.651  19.312  0.00  0.00    +0.000 OA
ATOM     16  C   UNL     1      -5.566  11.967  18.552  0.00  0.00    +0.000 C 
ATOM     17  O   UNL     1      -5.028  11.147  17.506  0.00  0.00    +0.000 OA
ATOM     18  C   UNL     1       0.325  11.543  18.929  0.00  0.00    +0.000 C 
ATOM     19  O   UNL     1       1.020  10.532  18.966  0.00  0.00    +0.000 OA
ATOM     20  O   UNL     1      -3.308  12.215  22.164  0.00  0.00    +0.000 OA
ATOM     21  C   UNL     1      -3.365  12.471  23.578  0.00  0.00    +0.000 C 
ATOM     22  O   UNL     1      -2.414  13.453  24.015  0.00  0.00    +0.000 OA
ENDROOT
BRANCH   1  24
ATOM     23  C   UNL     1       2.711  14.371  18.238  0.00  0.00    +0.000 C 
ATOM     24  C   UNL     1       2.191  12.948  18.230  0.00  0.00    +0.000 C 
ENDBRANCH   1  24
BRANCH   5  25
ATOM     25  O   UNL     1       0.001  15.296  23.662  0.00  0.00    +0.000 OA
ATOM     26  C   UNL     1      -0.560  16.534  24.077  0.00  0.00    +0.000 C 
ENDBRANCH   5  25
BRANCH  12  27
ATOM     27  O   UNL     1      -3.166   9.487  16.252  0.00  0.00    +0.000 OA
ATOM     28  C   UNL     1      -3.003   9.987  14.928  0.00  0.00    +0.000 C 
ENDBRANCH  12  27
TORSDOF 3
ENDMDL
MODEL 9
REMARK VINA RESULT:      -6.5      6.305     10.454
REMARK  Name = 
REMARK  6 active torsions:
REMARK  status: ('A' for Active; 'I' for Inactive)
REMARK    1  A    between atoms: C_1  and  C_2
REMARK    2  A    between atoms: C_2  and  N_3
REMARK    3  A    between atoms: C_7  and  O_8
REMARK    4  A    between atoms: O_8  and  C_9
REMARK    5  A    between atoms: C_16  and  O_17
REMARK    6  A    between atoms: O_17  and  C_18
REMARK                            x       y       z     vdW  Elec       q    Type
REMARK                         _______ _______ _______ _____ _____    ______ ____
ROOT
ATOM      1  N   UNL     1      -4.426  12.805  21.602  0.00  0.00    +0.000 N 
ATOM      2  C   UNL     1      -4.026  13.345  20.310  0.00  0.00    +0.000 C 
ATOM      3  C   UNL     1      -2.943  12.481  19.709  0.00  0.00    +0.000 A 
ATOM      4  C   UNL     1      -3.290  11.562  18.689  0.00  0.00    +0.000 A 
ATOM      5  C   UNL     1      -2.372  10.642  18.181  0.00  0.00    +0.000 A 
ATOM      6  C   UNL     1      -1.091  10.690  18.702  0.00  0.00    +0.000 A 
ATOM      7  C   UNL     1      -0.739  11.594  19.702  0.00  0.00    +0.000 A 
ATOM      8  C   UNL     1      -1.642  12.499  20.263  0.00  0.00    +0.000 A 
ATOM      9  C   UNL     1      -1.361  13.300  21.478  0.00  0.00    +0.000 A 
ATOM     10  C   UNL     1      -2.211  13.219  22.605  0.00  0.00    +0.000 A 
ATOM     11  C   UNL     1      -1.953  13.917  23.813  0.00  0.00    +0.000 A 
ATOM     12  C   UNL     1      -0.879  14.783  23.922  0.00  0.00    +0.000 A 
ATOM     13  C   UNL     1      -0.083  14.910  22.801  0.00  0.00    +0.000 A 
ATOM     14  C   UNL     1      -0.290  14.181  21.633  0.00  0.00    +0.000 A 
ATOM     15  O   UNL     1       0.655  14.498  20.693  0.00  0.00    +0.000 OA
ATOM     16  C   UNL     1       1.546  15.341  21.457  0.00  0.00    +0.000 C 
ATOM     17  O   UNL     1       0.985  15.756  22.710  0.00  0.00    +0.000 OA
ATOM     18  C   UNL     1      -3.519  12.510  22.619  0.00  0.00    +0.000 C 
ATOM     19  O   UNL     1      -3.829  11.872  23.621  0.00  0.00    +0.000 OA
ATOM     20  O   UNL     1       0.556  11.417  20.106  0.00  0.00    +0.000 OA
ATOM     21  C   UNL     1       0.968  10.310  19.285  0.00  0.00    +0.000 C 
ATOM     22  O   UNL     1      -0.051   9.870  18.374  0.00  0.00    +0.000 OA
ENDROOT
BRANCH   1  24
ATOM     23  C   UNL     1      -6.693  12.043  20.951  0.00  0.00    +0.000 C 
ATOM     24  C   UNL     1      -5.842  12.810  21.942  0.00  0.00    +0.000 C 
ENDBRANCH   1  24
BRANCH   5  25
ATOM     25  O   UNL     1      -2.894   9.794  17.250  0.00  0.00    +0.000 OA
ATOM     26  C   UNL     1      -2.702  10.108  15.877  0.00  0.00    +0.000 C 
ENDBRANCH   5  25
BRANCH  12  27
ATOM     27  O   UNL     1      -0.581  15.547  25.011  0.00  0.00    +0.000 OA
ATOM     28  C   UNL     1      -1.550  15.566  26.055  0.00  0.00    +0.000 C 
ENDBRANCH  12  27
TORSDOF 3
ENDMDL
