MODEL 1
REMARK VINA RESULT:      -7.8      0.000      0.000
REMARK  Name = 
REMARK  1 active torsions:
REMARK  status: ('A' for Active; 'I' for Inactive)
REMARK    1  A    between atoms: C_13  and  C_14
REMARK                            x       y       z     vdW  Elec       q    Type
REMARK                         _______ _______ _______ _____ _____    ______ ____
ROOT
ATOM      1  O   UNL     1       5.195   3.254  18.864  0.00  0.00    +0.000 OA
ATOM      2  C   UNL     1       4.259   4.038  18.718  0.00  0.00    +0.000 C 
ATOM      3  N   UNL     1       4.160   4.959  17.710  0.00  0.00    +0.000 N 
ATOM      4  C   UNL     1       5.053   5.061  16.664  0.00  0.00    +0.000 A 
ATOM      5  N   UNL     1       5.216   6.161  15.962  0.00  0.00    +0.000 NA
ATOM      6  N   UNL     1       6.176   6.010  14.974  0.00  0.00    +0.000 NA
ATOM      7  C   UNL     1       6.658   4.786  14.949  0.00  0.00    +0.000 A 
ATOM      8  S   UNL     1       5.959   3.728  16.096  0.00  0.00    +0.000 S 
ATOM      9  N   UNL     1       3.217   4.054  19.623  0.00  0.00    +0.000 N 
ATOM     10  C   UNL     1       3.250   3.194  20.794  0.00  0.00    +0.000 C 
ATOM     11  C   UNL     1       1.840   2.652  20.885  0.00  0.00    +0.000 C 
ATOM     12  C   UNL     1       0.981   3.820  20.408  0.00  0.00    +0.000 C 
ATOM     13  C   UNL     1       1.868   4.577  19.400  0.00  0.00    +0.000 C 
ATOM     14  H   UNL     1       3.693   5.825  17.922  0.00  0.00    +0.000 HD
ENDROOT
BRANCH  13  15
ATOM     15  C   UNL     1       1.756   6.077  19.593  0.00  0.00    +0.000 A 
ATOM     16  C   UNL     1       1.429   6.641  20.838  0.00  0.00    +0.000 A 
ATOM     17  C   UNL     1       1.304   8.023  20.990  0.00  0.00    +0.000 A 
ATOM     18  C   UNL     1       1.485   8.859  19.896  0.00  0.00    +0.000 A 
ATOM     19  C   UNL     1       1.826   8.320  18.653  0.00  0.00    +0.000 A 
ATOM     20  C   UNL     1       1.946   6.937  18.496  0.00  0.00    +0.000 A 
ATOM     21  O   UNL     1       2.042   9.086  17.536  0.00  0.00    +0.000 OA
ATOM     22  C   UNL     1       2.210  10.469  17.873  0.00  0.00    +0.000 C 
ATOM     23  C   UNL     1       1.158  10.910  18.879  0.00  0.00    +0.000 C 
ATOM     24  O   UNL     1       1.315  10.203  20.113  0.00  0.00    +0.000 OA
ENDBRANCH  13  15
TORSDOF 1
ENDMDL
MODEL 2
REMARK VINA RESULT:      -7.3      3.202      5.297
REMARK  Name = 
REMARK  1 active torsions:
REMARK  status: ('A' for Active; 'I' for Inactive)
REMARK    1  A    between atoms: C_13  and  C_14
REMARK                            x       y       z     vdW  Elec       q    Type
REMARK                         _______ _______ _______ _____ _____    ______ ____
ROOT
ATOM      1  O   UNL     1       7.659   6.402  15.202  0.00  0.00    +0.000 OA
ATOM      2  C   UNL     1       7.001   5.651  15.920  0.00  0.00    +0.000 C 
ATOM      3  N   UNL     1       6.258   4.592  15.471  0.00  0.00    +0.000 N 
ATOM      4  C   UNL     1       6.231   4.166  14.160  0.00  0.00    +0.000 A 
ATOM      5  N   UNL     1       5.241   3.467  13.651  0.00  0.00    +0.000 NA
ATOM      6  N   UNL     1       5.446   3.169  12.314  0.00  0.00    +0.000 NA
ATOM      7  C   UNL     1       6.607   3.621  11.890  0.00  0.00    +0.000 A 
ATOM      8  S   UNL     1       7.541   4.405  13.089  0.00  0.00    +0.000 S 
ATOM      9  N   UNL     1       6.948   5.861  17.283  0.00  0.00    +0.000 N 
ATOM     10  C   UNL     1       7.611   7.010  17.874  0.00  0.00    +0.000 C 
ATOM     11  C   UNL     1       8.267   6.449  19.118  0.00  0.00    +0.000 C 
ATOM     12  C   UNL     1       7.273   5.393  19.596  0.00  0.00    +0.000 C 
ATOM     13  C   UNL     1       6.598   4.877  18.310  0.00  0.00    +0.000 C 
ATOM     14  H   UNL     1       5.419   4.369  15.980  0.00  0.00    +0.000 HD
ENDROOT
BRANCH  13  15
ATOM     15  C   UNL     1       5.103   4.710  18.509  0.00  0.00    +0.000 A 
ATOM     16  C   UNL     1       4.222   5.804  18.458  0.00  0.00    +0.000 A 
ATOM     17  C   UNL     1       2.853   5.634  18.671  0.00  0.00    +0.000 A 
ATOM     18  C   UNL     1       2.348   4.372  18.955  0.00  0.00    +0.000 A 
ATOM     19  C   UNL     1       3.204   3.269  18.995  0.00  0.00    +0.000 A 
ATOM     20  C   UNL     1       4.576   3.436  18.789  0.00  0.00    +0.000 A 
ATOM     21  O   UNL     1       2.773   1.992  19.248  0.00  0.00    +0.000 OA
ATOM     22  C   UNL     1       1.348   1.886  19.124  0.00  0.00    +0.000 C 
ATOM     23  C   UNL     1       0.659   3.049  19.819  0.00  0.00    +0.000 C 
ATOM     24  O   UNL     1       0.998   4.287  19.184  0.00  0.00    +0.000 OA
ENDBRANCH  13  15
TORSDOF 1
ENDMDL
MODEL 3
REMARK VINA RESULT:      -7.2      0.874      1.701
REMARK  Name = 
REMARK  1 active torsions:
REMARK  status: ('A' for Active; 'I' for Inactive)
REMARK    1  A    between atoms: C_13  and  C_14
REMARK                            x       y       z     vdW  Elec       q    Type
REMARK                         _______ _______ _______ _____ _____    ______ ____
ROOT
ATOM      1  O   UNL     1       5.349   3.641  19.001  0.00  0.00    +0.000 OA
ATOM      2  C   UNL     1       4.382   4.357  18.747  0.00  0.00    +0.000 C 
ATOM      3  N   UNL     1       4.266   5.149  17.635  0.00  0.00    +0.000 N 
ATOM      4  C   UNL     1       5.177   5.169  16.601  0.00  0.00    +0.000 A 
ATOM      5  N   UNL     1       5.307   6.186  15.777  0.00  0.00    +0.000 NA
ATOM      6  N   UNL     1       6.294   5.967  14.831  0.00  0.00    +0.000 NA
ATOM      7  C   UNL     1       6.832   4.773  14.959  0.00  0.00    +0.000 A 
ATOM      8  S   UNL     1       6.154   3.824  16.210  0.00  0.00    +0.000 S 
ATOM      9  N   UNL     1       3.320   4.429  19.626  0.00  0.00    +0.000 N 
ATOM     10  C   UNL     1       3.365   3.715  20.890  0.00  0.00    +0.000 C 
ATOM     11  C   UNL     1       1.979   3.122  21.019  0.00  0.00    +0.000 C 
ATOM     12  C   UNL     1       1.079   4.184  20.393  0.00  0.00    +0.000 C 
ATOM     13  C   UNL     1       1.954   4.858  19.318  0.00  0.00    +0.000 C 
ATOM     14  H   UNL     1       3.755   6.010  17.736  0.00  0.00    +0.000 HD
ENDROOT
BRANCH  13  15
ATOM     15  C   UNL     1       1.771   6.364  19.331  0.00  0.00    +0.000 A 
ATOM     16  C   UNL     1       2.017   7.150  18.192  0.00  0.00    +0.000 A 
ATOM     17  C   UNL     1       1.870   8.537  18.230  0.00  0.00    +0.000 A 
ATOM     18  C   UNL     1       1.493   9.161  19.413  0.00  0.00    +0.000 A 
ATOM     19  C   UNL     1       1.230   8.397  20.553  0.00  0.00    +0.000 A 
ATOM     20  C   UNL     1       1.382   7.009  20.519  0.00  0.00    +0.000 A 
ATOM     21  O   UNL     1       0.833   8.942  21.747  0.00  0.00    +0.000 OA
ATOM     22  C   UNL     1       0.404  10.301  21.585  0.00  0.00    +0.000 C 
ATOM     23  C   UNL     1       1.377  11.073  20.708  0.00  0.00    +0.000 C 
ATOM     24  O   UNL     1       1.400  10.529  19.384  0.00  0.00    +0.000 OA
ENDBRANCH  13  15
TORSDOF 1
ENDMDL
MODEL 4
REMARK VINA RESULT:      -7.0      7.786     10.047
REMARK  Name = 
REMARK  1 active torsions:
REMARK  status: ('A' for Active; 'I' for Inactive)
REMARK    1  A    between atoms: C_13  and  C_14
REMARK                            x       y       z     vdW  Elec       q    Type
REMARK                         _______ _______ _______ _____ _____    ______ ____
ROOT
ATOM      1  O   UNL     1      -5.686  12.210  17.372  0.00  0.00    +0.000 OA
ATOM      2  C   UNL     1      -4.735  11.718  17.977  0.00  0.00    +0.000 C 
ATOM      3  N   UNL     1      -4.653  11.598  19.338  0.00  0.00    +0.000 N 
ATOM      4  C   UNL     1      -5.673  11.921  20.207  0.00  0.00    +0.000 A 
ATOM      5  N   UNL     1      -5.474  12.215  21.474  0.00  0.00    +0.000 NA
ATOM      6  N   UNL     1      -6.656  12.512  22.132  0.00  0.00    +0.000 NA
ATOM      7  C   UNL     1      -7.698  12.383  21.339  0.00  0.00    +0.000 A 
ATOM      8  S   UNL     1      -7.319  11.861  19.754  0.00  0.00    +0.000 S 
ATOM      9  N   UNL     1      -3.630  11.264  17.286  0.00  0.00    +0.000 N 
ATOM     10  C   UNL     1      -3.550  11.426  15.844  0.00  0.00    +0.000 C 
ATOM     11  C   UNL     1      -2.999  10.101  15.362  0.00  0.00    +0.000 C 
ATOM     12  C   UNL     1      -2.036   9.693  16.473  0.00  0.00    +0.000 C 
ATOM     13  C   UNL     1      -2.635  10.299  17.757  0.00  0.00    +0.000 C 
ATOM     14  H   UNL     1      -3.738  11.670  19.752  0.00  0.00    +0.000 HD
ENDROOT
BRANCH  13  15
ATOM     15  C   UNL     1      -1.554  10.913  18.627  0.00  0.00    +0.000 A 
ATOM     16  C   UNL     1      -0.895  10.172  19.623  0.00  0.00    +0.000 A 
ATOM     17  C   UNL     1       0.077  10.762  20.432  0.00  0.00    +0.000 A 
ATOM     18  C   UNL     1       0.391  12.105  20.269  0.00  0.00    +0.000 A 
ATOM     19  C   UNL     1      -0.241  12.856  19.275  0.00  0.00    +0.000 A 
ATOM     20  C   UNL     1      -1.219  12.270  18.467  0.00  0.00    +0.000 A 
ATOM     21  O   UNL     1       0.035  14.179  19.042  0.00  0.00    +0.000 OA
ATOM     22  C   UNL     1       1.250  14.581  19.688  0.00  0.00    +0.000 C 
ATOM     23  C   UNL     1       1.303  14.055  21.114  0.00  0.00    +0.000 C 
ATOM     24  O   UNL     1       1.333  12.624  21.121  0.00  0.00    +0.000 OA
ENDBRANCH  13  15
TORSDOF 1
ENDMDL
MODEL 5
REMARK VINA RESULT:      -6.8      3.918      7.049
REMARK  Name = 
REMARK  1 active torsions:
REMARK  status: ('A' for Active; 'I' for Inactive)
REMARK    1  A    between atoms: C_13  and  C_14
REMARK                            x       y       z     vdW  Elec       q    Type
REMARK                         _______ _______ _______ _____ _____    ______ ____
ROOT
ATOM      1  O   UNL     1       5.402   4.230  20.376  0.00  0.00    +0.000 OA
ATOM      2  C   UNL     1       5.245   4.617  19.219  0.00  0.00    +0.000 C 
ATOM      3  N   UNL     1       4.099   4.452  18.488  0.00  0.00    +0.000 N 
ATOM      4  C   UNL     1       2.932   3.917  18.988  0.00  0.00    +0.000 A 
ATOM      5  N   UNL     1       2.007   3.372  18.229  0.00  0.00    +0.000 NA
ATOM      6  N   UNL     1       0.936   2.900  18.970  0.00  0.00    +0.000 NA
ATOM      7  C   UNL     1       1.084   3.156  20.252  0.00  0.00    +0.000 A 
ATOM      8  S   UNL     1       2.512   4.012  20.642  0.00  0.00    +0.000 S 
ATOM      9  N   UNL     1       6.276   5.246  18.550  0.00  0.00    +0.000 N 
ATOM     10  C   UNL     1       7.576   5.393  19.181  0.00  0.00    +0.000 C 
ATOM     11  C   UNL     1       7.987   6.809  18.837  0.00  0.00    +0.000 C 
ATOM     12  C   UNL     1       7.421   7.010  17.433  0.00  0.00    +0.000 C 
ATOM     13  C   UNL     1       6.159   6.126  17.386  0.00  0.00    +0.000 C 
ATOM     14  H   UNL     1       4.202   4.328  17.494  0.00  0.00    +0.000 HD
ENDROOT
BRANCH  13  15
ATOM     15  C   UNL     1       6.062   5.382  16.067  0.00  0.00    +0.000 A 
ATOM     16  C   UNL     1       5.077   4.407  15.838  0.00  0.00    +0.000 A 
ATOM     17  C   UNL     1       5.020   3.713  14.628  0.00  0.00    +0.000 A 
ATOM     18  C   UNL     1       5.959   3.971  13.638  0.00  0.00    +0.000 A 
ATOM     19  C   UNL     1       6.938   4.947  13.840  0.00  0.00    +0.000 A 
ATOM     20  C   UNL     1       7.000   5.639  15.052  0.00  0.00    +0.000 A 
ATOM     21  O   UNL     1       7.882   5.271  12.899  0.00  0.00    +0.000 OA
ATOM     22  C   UNL     1       7.535   4.749  11.609  0.00  0.00    +0.000 C 
ATOM     23  C   UNL     1       7.064   3.308  11.718  0.00  0.00    +0.000 C 
ATOM     24  O   UNL     1       5.861   3.229  12.489  0.00  0.00    +0.000 OA
ENDBRANCH  13  15
TORSDOF 1
ENDMDL
MODEL 6
REMARK VINA RESULT:      -6.7      2.943      6.036
REMARK  Name = 
REMARK  1 active torsions:
REMARK  status: ('A' for Active; 'I' for Inactive)
REMARK    1  A    between atoms: C_13  and  C_14
REMARK                            x       y       z     vdW  Elec       q    Type
REMARK                         _______ _______ _______ _____ _____    ______ ____
ROOT
ATOM      1  O   UNL     1       1.120   5.391  18.774  0.00  0.00    +0.000 OA
ATOM      2  C   UNL     1       2.342   5.452  18.648  0.00  0.00    +0.000 C 
ATOM      3  N   UNL     1       3.042   6.595  18.368  0.00  0.00    +0.000 N 
ATOM      4  C   UNL     1       2.477   7.850  18.291  0.00  0.00    +0.000 A 
ATOM      5  N   UNL     1       3.023   8.845  17.626  0.00  0.00    +0.000 NA
ATOM      6  N   UNL     1       2.258   9.998  17.694  0.00  0.00    +0.000 NA
ATOM      7  C   UNL     1       1.192   9.829  18.447  0.00  0.00    +0.000 A 
ATOM      8  S   UNL     1       1.063   8.275  19.151  0.00  0.00    +0.000 S 
ATOM      9  N   UNL     1       3.111   4.311  18.757  0.00  0.00    +0.000 N 
ATOM     10  C   UNL     1       2.480   3.018  18.954  0.00  0.00    +0.000 C 
ATOM     11  C   UNL     1       3.345   2.349  20.001  0.00  0.00    +0.000 C 
ATOM     12  C   UNL     1       4.750   2.842  19.666  0.00  0.00    +0.000 C 
ATOM     13  C   UNL     1       4.542   4.243  19.059  0.00  0.00    +0.000 C 
ATOM     14  H   UNL     1       3.878   6.499  17.815  0.00  0.00    +0.000 HD
ENDROOT
BRANCH  13  15
ATOM     15  C   UNL     1       5.431   4.451  17.848  0.00  0.00    +0.000 A 
ATOM     16  C   UNL     1       6.681   5.088  17.946  0.00  0.00    +0.000 A 
ATOM     17  C   UNL     1       7.473   5.295  16.816  0.00  0.00    +0.000 A 
ATOM     18  C   UNL     1       7.019   4.884  15.568  0.00  0.00    +0.000 A 
ATOM     19  C   UNL     1       5.787   4.236  15.451  0.00  0.00    +0.000 A 
ATOM     20  C   UNL     1       4.990   4.033  16.580  0.00  0.00    +0.000 A 
ATOM     21  O   UNL     1       5.287   3.784  14.256  0.00  0.00    +0.000 OA
ATOM     22  C   UNL     1       6.301   3.752  13.243  0.00  0.00    +0.000 C 
ATOM     23  C   UNL     1       7.125   5.029  13.263  0.00  0.00    +0.000 C 
ATOM     24  O   UNL     1       7.836   5.150  14.499  0.00  0.00    +0.000 OA
ENDBRANCH  13  15
TORSDOF 1
ENDMDL
MODEL 7
REMARK VINA RESULT:      -6.7      3.109      5.971
REMARK  Name = 
REMARK  1 active torsions:
REMARK  status: ('A' for Active; 'I' for Inactive)
REMARK    1  A    between atoms: C_13  and  C_14
REMARK                            x       y       z     vdW  Elec       q    Type
REMARK                         _______ _______ _______ _____ _____    ______ ____
ROOT
ATOM      1  O   UNL     1       0.957   5.228  20.737  0.00  0.00    +0.000 OA
ATOM      2  C   UNL     1       2.016   5.230  20.112  0.00  0.00    +0.000 C 
ATOM      3  N   UNL     1       2.551   6.323  19.484  0.00  0.00    +0.000 N 
ATOM      4  C   UNL     1       2.021   7.594  19.555  0.00  0.00    +0.000 A 
ATOM      5  N   UNL     1       2.253   8.522  18.653  0.00  0.00    +0.000 NA
ATOM      6  N   UNL     1       1.600   9.708  18.947  0.00  0.00    +0.000 NA
ATOM      7  C   UNL     1       0.942   9.631  20.084  0.00  0.00    +0.000 A 
ATOM      8  S   UNL     1       1.098   8.130  20.890  0.00  0.00    +0.000 S 
ATOM      9  N   UNL     1       2.747   4.067  19.976  0.00  0.00    +0.000 N 
ATOM     10  C   UNL     1       2.238   2.816  20.511  0.00  0.00    +0.000 C 
ATOM     11  C   UNL     1       3.451   2.177  21.152  0.00  0.00    +0.000 C 
ATOM     12  C   UNL     1       4.596   2.589  20.231  0.00  0.00    +0.000 C 
ATOM     13  C   UNL     1       4.173   3.958  19.663  0.00  0.00    +0.000 C 
ATOM     14  H   UNL     1       3.080   6.158  18.644  0.00  0.00    +0.000 HD
ENDROOT
BRANCH  13  15
ATOM     15  C   UNL     1       4.480   4.053  18.181  0.00  0.00    +0.000 A 
ATOM     16  C   UNL     1       3.513   3.758  17.204  0.00  0.00    +0.000 A 
ATOM     17  C   UNL     1       3.822   3.824  15.844  0.00  0.00    +0.000 A 
ATOM     18  C   UNL     1       5.107   4.167  15.443  0.00  0.00    +0.000 A 
ATOM     19  C   UNL     1       6.078   4.478  16.397  0.00  0.00    +0.000 A 
ATOM     20  C   UNL     1       5.774   4.407  17.758  0.00  0.00    +0.000 A 
ATOM     21  O   UNL     1       7.359   4.846  16.072  0.00  0.00    +0.000 OA
ATOM     22  C   UNL     1       7.468   5.194  14.686  0.00  0.00    +0.000 C 
ATOM     23  C   UNL     1       6.750   4.176  13.815  0.00  0.00    +0.000 C 
ATOM     24  O   UNL     1       5.345   4.180  14.092  0.00  0.00    +0.000 OA
ENDBRANCH  13  15
TORSDOF 1
ENDMDL
MODEL 8
REMARK VINA RESULT:      -6.7      5.031      7.753
REMARK  Name = 
REMARK  1 active torsions:
REMARK  status: ('A' for Active; 'I' for Inactive)
REMARK    1  A    between atoms: C_13  and  C_14
REMARK                            x       y       z     vdW  Elec       q    Type
REMARK                         _______ _______ _______ _____ _____    ______ ____
ROOT
ATOM      1  O   UNL     1      -2.890  11.501  19.147  0.00  0.00    +0.000 OA
ATOM      2  C   UNL     1      -1.765  11.152  18.794  0.00  0.00    +0.000 C 
ATOM      3  N   UNL     1      -1.462  10.613  17.572  0.00  0.00    +0.000 N 
ATOM      4  C   UNL     1      -2.363  10.485  16.537  0.00  0.00    +0.000 A 
ATOM      5  N   UNL     1      -2.219   9.617  15.560  0.00  0.00    +0.000 NA
ATOM      6  N   UNL     1      -3.261   9.679  14.650  0.00  0.00    +0.000 NA
ATOM      7  C   UNL     1      -4.120  10.626  14.960  0.00  0.00    +0.000 A 
ATOM      8  S   UNL     1      -3.706  11.526  16.355  0.00  0.00    +0.000 S 
ATOM      9  N   UNL     1      -0.697  11.261  19.662  0.00  0.00    +0.000 N 
ATOM     10  C   UNL     1      -0.904  11.724  21.023  0.00  0.00    +0.000 C 
ATOM     11  C   UNL     1       0.251  12.673  21.261  0.00  0.00    +0.000 C 
ATOM     12  C   UNL     1       1.399  12.035  20.484  0.00  0.00    +0.000 C 
ATOM     13  C   UNL     1       0.722  11.308  19.306  0.00  0.00    +0.000 C 
ATOM     14  H   UNL     1      -0.718   9.936  17.539  0.00  0.00    +0.000 HD
ENDROOT
BRANCH  13  15
ATOM     15  C   UNL     1       1.340   9.941  19.080  0.00  0.00    +0.000 A 
ATOM     16  C   UNL     1       2.057   9.636  17.911  0.00  0.00    +0.000 A 
ATOM     17  C   UNL     1       2.595   8.363  17.708  0.00  0.00    +0.000 A 
ATOM     18  C   UNL     1       2.406   7.373  18.664  0.00  0.00    +0.000 A 
ATOM     19  C   UNL     1       1.709   7.659  19.840  0.00  0.00    +0.000 A 
ATOM     20  C   UNL     1       1.165   8.930  20.043  0.00  0.00    +0.000 A 
ATOM     21  O   UNL     1       1.504   6.738  20.835  0.00  0.00    +0.000 OA
ATOM     22  C   UNL     1       2.359   5.598  20.677  0.00  0.00    +0.000 C 
ATOM     23  C   UNL     1       2.374   5.131  19.230  0.00  0.00    +0.000 C 
ATOM     24  O   UNL     1       2.935   6.139  18.382  0.00  0.00    +0.000 OA
ENDBRANCH  13  15
TORSDOF 1
ENDMDL
MODEL 9
REMARK VINA RESULT:      -6.6      7.412      9.535
REMARK  Name = 
REMARK  1 active torsions:
REMARK  status: ('A' for Active; 'I' for Inactive)
REMARK    1  A    between atoms: C_13  and  C_14
REMARK                            x       y       z     vdW  Elec       q    Type
REMARK                         _______ _______ _______ _____ _____    ______ ____
ROOT
ATOM      1  O   UNL     1      -0.529  10.071  17.862  0.00  0.00    +0.000 OA
ATOM      2  C   UNL     1      -1.541  10.726  18.107  0.00  0.00    +0.000 C 
ATOM      3  N   UNL     1      -1.666  11.615  19.141  0.00  0.00    +0.000 N 
ATOM      4  C   UNL     1      -0.637  11.969  19.987  0.00  0.00    +0.000 A 
ATOM      5  N   UNL     1      -0.832  12.457  21.192  0.00  0.00    +0.000 NA
ATOM      6  N   UNL     1       0.360  12.725  21.844  0.00  0.00    +0.000 NA
ATOM      7  C   UNL     1       1.400  12.467  21.080  0.00  0.00    +0.000 A 
ATOM      8  S   UNL     1       1.003  11.917  19.509  0.00  0.00    +0.000 S 
ATOM      9  N   UNL     1      -2.673  10.572  17.332  0.00  0.00    +0.000 N 
ATOM     10  C   UNL     1      -2.703   9.587  16.265  0.00  0.00    +0.000 C 
ATOM     11  C   UNL     1      -3.382  10.312  15.123  0.00  0.00    +0.000 C 
ATOM     12  C   UNL     1      -4.409  11.196  15.826  0.00  0.00    +0.000 C 
ATOM     13  C   UNL     1      -3.777  11.524  17.192  0.00  0.00    +0.000 C 
ATOM     14  H   UNL     1      -2.577  11.708  19.559  0.00  0.00    +0.000 HD
ENDROOT
BRANCH  13  15
ATOM     15  C   UNL     1      -4.804  11.434  18.305  0.00  0.00    +0.000 A 
ATOM     16  C   UNL     1      -5.819  10.461  18.298  0.00  0.00    +0.000 A 
ATOM     17  C   UNL     1      -6.772  10.410  19.317  0.00  0.00    +0.000 A 
ATOM     18  C   UNL     1      -6.735  11.342  20.346  0.00  0.00    +0.000 A 
ATOM     19  C   UNL     1      -5.727  12.308  20.379  0.00  0.00    +0.000 A 
ATOM     20  C   UNL     1      -4.775  12.365  19.358  0.00  0.00    +0.000 A 
ATOM     21  O   UNL     1      -5.616  13.245  21.375  0.00  0.00    +0.000 OA
ATOM     22  C   UNL     1      -6.424  12.901  22.509  0.00  0.00    +0.000 C 
ATOM     23  C   UNL     1      -7.808  12.451  22.069  0.00  0.00    +0.000 C 
ATOM     24  O   UNL     1      -7.723  11.251  21.293  0.00  0.00    +0.000 OA
ENDBRANCH  13  15
TORSDOF 1
ENDMDL
