MODEL 1
REMARK VINA RESULT:      -6.3      0.000      0.000
REMARK  Name = 
REMARK  6 active torsions:
REMARK  status: ('A' for Active; 'I' for Inactive)
REMARK    1  A    between atoms: C_1  and  C_2
REMARK    2  A    between atoms: C_2  and  C_3
REMARK    3  A    between atoms: C_3  and  N_4
REMARK    4  A    between atoms: N_9  and  C_10
REMARK    5  A    between atoms: C_10  and  C_11
REMARK    6  A    between atoms: C_11  and  C_12
REMARK                            x       y       z     vdW  Elec       q    Type
REMARK                         _______ _______ _______ _____ _____    ______ ____
ROOT
ATOM      1  N   UNL     1       2.113   3.301  18.657  0.00  0.00    +0.000 N 
ATOM      2  C   UNL     1       2.586   2.046  18.321  0.00  0.00    +0.000 A 
ATOM      3  N   UNL     1       3.647   2.092  17.553  0.00  0.00    +0.000 NA
ATOM      4  C   UNL     1       3.892   3.414  17.409  0.00  0.00    +0.000 A 
ATOM      5  C   UNL     1       2.975   4.218  18.079  0.00  0.00    +0.000 A 
ATOM      6  N   UNL     1       3.073   5.630  18.053  0.00  0.00    +0.000 N 
ATOM      7  C   UNL     1       4.192   6.204  17.281  0.00  0.00    +0.000 A 
ATOM      8  O   UNL     1       4.327   7.419  17.212  0.00  0.00    +0.000 OA
ATOM      9  N   UNL     1       5.097   5.384  16.611  0.00  0.00    +0.000 N 
ATOM     10  C   UNL     1       6.182   5.688  15.824  0.00  0.00    +0.000 A 
ATOM     11  C   UNL     1       6.671   4.470  15.405  0.00  0.00    +0.000 A 
ATOM     12  N   UNL     1       5.924   3.443  15.924  0.00  0.00    +0.000 NA
ATOM     13  C   UNL     1       4.990   4.027  16.636  0.00  0.00    +0.000 A 
ENDROOT
BRANCH   1  14
ATOM     14  C   UNL     1       0.970   3.491  19.533  0.00  0.00    +0.000 C 
BRANCH  14  16
ATOM     15  C   UNL     1       2.261   3.478  21.733  0.00  0.00    +0.000 C 
ATOM     16  C   UNL     1       1.124   2.867  20.932  0.00  0.00    +0.000 C 
ENDBRANCH  14  16
ENDBRANCH   1  14
BRANCH   6  17
ATOM     17  C   UNL     1       2.105   6.589  18.615  0.00  0.00    +0.000 C 
BRANCH  17  18
ATOM     18  C   UNL     1       2.317   6.815  20.109  0.00  0.00    +0.000 C 
ATOM     19  C   UNL     1       1.527   7.988  20.672  0.00  0.00    +0.000 C 
ENDBRANCH  17  18
ENDBRANCH   6  17
TORSDOF 4
ENDMDL
MODEL 2
REMARK VINA RESULT:      -6.3      2.269      4.860
REMARK  Name = 
REMARK  6 active torsions:
REMARK  status: ('A' for Active; 'I' for Inactive)
REMARK    1  A    between atoms: C_1  and  C_2
REMARK    2  A    between atoms: C_2  and  C_3
REMARK    3  A    between atoms: C_3  and  N_4
REMARK    4  A    between atoms: N_9  and  C_10
REMARK    5  A    between atoms: C_10  and  C_11
REMARK    6  A    between atoms: C_11  and  C_12
REMARK                            x       y       z     vdW  Elec       q    Type
REMARK                         _______ _______ _______ _____ _____    ______ ____
ROOT
ATOM      1  N   UNL     1       4.018   5.217  18.195  0.00  0.00    +0.000 N 
ATOM      2  C   UNL     1       4.478   5.804  17.030  0.00  0.00    +0.000 A 
ATOM      3  N   UNL     1       3.989   7.004  16.839  0.00  0.00    +0.000 NA
ATOM      4  C   UNL     1       3.213   7.221  17.925  0.00  0.00    +0.000 A 
ATOM      5  C   UNL     1       3.196   6.146  18.809  0.00  0.00    +0.000 A 
ATOM      6  N   UNL     1       2.446   6.190  20.009  0.00  0.00    +0.000 N 
ATOM      7  C   UNL     1       1.685   7.427  20.274  0.00  0.00    +0.000 A 
ATOM      8  O   UNL     1       1.010   7.523  21.290  0.00  0.00    +0.000 OA
ATOM      9  N   UNL     1       1.708   8.489  19.373  0.00  0.00    +0.000 N 
ATOM     10  C   UNL     1       1.071   9.707  19.395  0.00  0.00    +0.000 A 
ATOM     11  C   UNL     1       1.445  10.326  18.222  0.00  0.00    +0.000 A 
ATOM     12  N   UNL     1       2.295   9.526  17.501  0.00  0.00    +0.000 NA
ATOM     13  C   UNL     1       2.427   8.435  18.217  0.00  0.00    +0.000 A 
ENDROOT
BRANCH   1  14
ATOM     14  C   UNL     1       4.459   3.903  18.629  0.00  0.00    +0.000 C 
BRANCH  14  16
ATOM     15  C   UNL     1       2.471   2.771  17.500  0.00  0.00    +0.000 C 
ATOM     16  C   UNL     1       3.969   2.738  17.748  0.00  0.00    +0.000 C 
ENDBRANCH  14  16
ENDBRANCH   1  14
BRANCH   6  17
ATOM     17  C   UNL     1       2.250   5.084  20.964  0.00  0.00    +0.000 C 
BRANCH  17  18
ATOM     18  C   UNL     1       1.143   4.131  20.524  0.00  0.00    +0.000 C 
ATOM     19  C   UNL     1       1.267   2.731  21.110  0.00  0.00    +0.000 C 
ENDBRANCH  17  18
ENDBRANCH   6  17
TORSDOF 4
ENDMDL
MODEL 3
REMARK VINA RESULT:      -6.2      0.847      1.021
REMARK  Name = 
REMARK  6 active torsions:
REMARK  status: ('A' for Active; 'I' for Inactive)
REMARK    1  A    between atoms: C_1  and  C_2
REMARK    2  A    between atoms: C_2  and  C_3
REMARK    3  A    between atoms: C_3  and  N_4
REMARK    4  A    between atoms: N_9  and  C_10
REMARK    5  A    between atoms: C_10  and  C_11
REMARK    6  A    between atoms: C_11  and  C_12
REMARK                            x       y       z     vdW  Elec       q    Type
REMARK                         _______ _______ _______ _____ _____    ______ ____
ROOT
ATOM      1  N   UNL     1       2.230   3.785  18.629  0.00  0.00    +0.000 N 
ATOM      2  C   UNL     1       2.396   2.498  18.152  0.00  0.00    +0.000 A 
ATOM      3  N   UNL     1       3.400   2.392  17.317  0.00  0.00    +0.000 NA
ATOM      4  C   UNL     1       3.925   3.638  17.272  0.00  0.00    +0.000 A 
ATOM      5  C   UNL     1       3.243   4.548  18.073  0.00  0.00    +0.000 A 
ATOM      6  N   UNL     1       3.650   5.901  18.164  0.00  0.00    +0.000 N 
ATOM      7  C   UNL     1       4.828   6.296  17.366  0.00  0.00    +0.000 A 
ATOM      8  O   UNL     1       5.225   7.453  17.395  0.00  0.00    +0.000 OA
ATOM      9  N   UNL     1       5.493   5.372  16.564  0.00  0.00    +0.000 N 
ATOM     10  C   UNL     1       6.578   5.512  15.731  0.00  0.00    +0.000 A 
ATOM     11  C   UNL     1       6.762   4.266  15.173  0.00  0.00    +0.000 A 
ATOM     12  N   UNL     1       5.834   3.377  15.652  0.00  0.00    +0.000 NA
ATOM     13  C   UNL     1       5.090   4.073  16.478  0.00  0.00    +0.000 A 
ENDROOT
BRANCH   1  14
ATOM     14  C   UNL     1       1.204   4.128  19.598  0.00  0.00    +0.000 C 
BRANCH  14  16
ATOM     15  C   UNL     1       2.163   3.234  21.787  0.00  0.00    +0.000 C 
ATOM     16  C   UNL     1       1.053   3.123  20.755  0.00  0.00    +0.000 C 
ENDBRANCH  14  16
ENDBRANCH   1  14
BRANCH   6  17
ATOM     17  C   UNL     1       2.949   6.984  18.876  0.00  0.00    +0.000 C 
BRANCH  17  18
ATOM     18  C   UNL     1       1.902   7.668  18.001  0.00  0.00    +0.000 C 
ATOM     19  C   UNL     1       2.107   9.170  17.856  0.00  0.00    +0.000 C 
ENDBRANCH  17  18
ENDBRANCH   6  17
TORSDOF 4
ENDMDL
MODEL 4
REMARK VINA RESULT:      -6.1      1.778      3.894
REMARK  Name = 
REMARK  6 active torsions:
REMARK  status: ('A' for Active; 'I' for Inactive)
REMARK    1  A    between atoms: C_1  and  C_2
REMARK    2  A    between atoms: C_2  and  C_3
REMARK    3  A    between atoms: C_3  and  N_4
REMARK    4  A    between atoms: N_9  and  C_10
REMARK    5  A    between atoms: C_10  and  C_11
REMARK    6  A    between atoms: C_11  and  C_12
REMARK                            x       y       z     vdW  Elec       q    Type
REMARK                         _______ _______ _______ _____ _____    ______ ____
ROOT
ATOM      1  N   UNL     1       2.222   7.074  19.615  0.00  0.00    +0.000 N 
ATOM      2  C   UNL     1       2.383   8.162  18.777  0.00  0.00    +0.000 A 
ATOM      3  N   UNL     1       3.168   7.907  17.760  0.00  0.00    +0.000 NA
ATOM      4  C   UNL     1       3.503   6.606  17.919  0.00  0.00    +0.000 A 
ATOM      5  C   UNL     1       2.939   6.031  19.054  0.00  0.00    +0.000 A 
ATOM      6  N   UNL     1       3.167   4.674  19.385  0.00  0.00    +0.000 N 
ATOM      7  C   UNL     1       4.032   3.903  18.470  0.00  0.00    +0.000 A 
ATOM      8  O   UNL     1       4.275   2.727  18.706  0.00  0.00    +0.000 OA
ATOM      9  N   UNL     1       4.595   4.498  17.343  0.00  0.00    +0.000 N 
ATOM     10  C   UNL     1       5.435   3.995  16.379  0.00  0.00    +0.000 A 
ATOM     11  C   UNL     1       5.685   5.055  15.535  0.00  0.00    +0.000 A 
ATOM     12  N   UNL     1       5.013   6.176  15.952  0.00  0.00    +0.000 NA
ATOM     13  C   UNL     1       4.374   5.807  17.037  0.00  0.00    +0.000 A 
ENDROOT
BRANCH   1  14
ATOM     14  C   UNL     1       1.362   7.116  20.785  0.00  0.00    +0.000 C 
BRANCH  14  16
ATOM     15  C   UNL     1      -0.283   8.829  21.717  0.00  0.00    +0.000 C 
ATOM     16  C   UNL     1       1.167   8.520  21.387  0.00  0.00    +0.000 C 
ENDBRANCH  14  16
ENDBRANCH   1  14
BRANCH   6  17
ATOM     17  C   UNL     1       2.730   3.982  20.610  0.00  0.00    +0.000 C 
BRANCH  17  18
ATOM     18  C   UNL     1       1.236   3.678  20.601  0.00  0.00    +0.000 C 
ATOM     19  C   UNL     1       0.805   2.740  19.482  0.00  0.00    +0.000 C 
ENDBRANCH  17  18
ENDBRANCH   6  17
TORSDOF 4
ENDMDL
MODEL 5
REMARK VINA RESULT:      -6.1      2.065      5.716
REMARK  Name = 
REMARK  6 active torsions:
REMARK  status: ('A' for Active; 'I' for Inactive)
REMARK    1  A    between atoms: C_1  and  C_2
REMARK    2  A    between atoms: C_2  and  C_3
REMARK    3  A    between atoms: C_3  and  N_4
REMARK    4  A    between atoms: N_9  and  C_10
REMARK    5  A    between atoms: C_10  and  C_11
REMARK    6  A    between atoms: C_11  and  C_12
REMARK                            x       y       z     vdW  Elec       q    Type
REMARK                         _______ _______ _______ _____ _____    ______ ____
ROOT
ATOM      1  N   UNL     1       4.415   6.568  17.390  0.00  0.00    +0.000 N 
ATOM      2  C   UNL     1       3.529   7.405  18.043  0.00  0.00    +0.000 A 
ATOM      3  N   UNL     1       2.586   6.752  18.674  0.00  0.00    +0.000 NA
ATOM      4  C   UNL     1       2.882   5.450  18.456  0.00  0.00    +0.000 A 
ATOM      5  C   UNL     1       4.015   5.272  17.667  0.00  0.00    +0.000 A 
ATOM      6  N   UNL     1       4.488   3.979  17.337  0.00  0.00    +0.000 N 
ATOM      7  C   UNL     1       3.721   2.835  17.867  0.00  0.00    +0.000 A 
ATOM      8  O   UNL     1       4.073   1.692  17.609  0.00  0.00    +0.000 OA
ATOM      9  N   UNL     1       2.585   3.033  18.648  0.00  0.00    +0.000 N 
ATOM     10  C   UNL     1       1.713   2.137  19.221  0.00  0.00    +0.000 A 
ATOM     11  C   UNL     1       0.762   2.915  19.845  0.00  0.00    +0.000 A 
ATOM     12  N   UNL     1       1.039   4.248  19.678  0.00  0.00    +0.000 NA
ATOM     13  C   UNL     1       2.133   4.281  18.956  0.00  0.00    +0.000 A 
ENDROOT
BRANCH   1  14
ATOM     14  C   UNL     1       5.564   7.072  16.657  0.00  0.00    +0.000 C 
BRANCH  14  16
ATOM     15  C   UNL     1       7.707   8.105  17.580  0.00  0.00    +0.000 C 
ATOM     16  C   UNL     1       6.920   6.827  17.344  0.00  0.00    +0.000 C 
ENDBRANCH  14  16
ENDBRANCH   1  14
BRANCH   6  17
ATOM     17  C   UNL     1       5.595   3.656  16.420  0.00  0.00    +0.000 C 
BRANCH  17  18
ATOM     18  C   UNL     1       5.297   4.076  14.983  0.00  0.00    +0.000 C 
ATOM     19  C   UNL     1       6.541   4.394  14.165  0.00  0.00    +0.000 C 
ENDBRANCH  17  18
ENDBRANCH   6  17
TORSDOF 4
ENDMDL
MODEL 6
REMARK VINA RESULT:      -5.9      2.575      5.034
REMARK  Name = 
REMARK  6 active torsions:
REMARK  status: ('A' for Active; 'I' for Inactive)
REMARK    1  A    between atoms: C_1  and  C_2
REMARK    2  A    between atoms: C_2  and  C_3
REMARK    3  A    between atoms: C_3  and  N_4
REMARK    4  A    between atoms: N_9  and  C_10
REMARK    5  A    between atoms: C_10  and  C_11
REMARK    6  A    between atoms: C_11  and  C_12
REMARK                            x       y       z     vdW  Elec       q    Type
REMARK                         _______ _______ _______ _____ _____    ______ ____
ROOT
ATOM      1  N   UNL     1       6.580   6.522  18.054  0.00  0.00    +0.000 N 
ATOM      2  C   UNL     1       7.544   5.718  18.635  0.00  0.00    +0.000 A 
ATOM      3  N   UNL     1       7.050   4.609  19.126  0.00  0.00    +0.000 NA
ATOM      4  C   UNL     1       5.732   4.674  18.829  0.00  0.00    +0.000 A 
ATOM      5  C   UNL     1       5.380   5.839  18.155  0.00  0.00    +0.000 A 
ATOM      6  N   UNL     1       4.045   6.083  17.752  0.00  0.00    +0.000 N 
ATOM      7  C   UNL     1       3.050   5.044  18.082  0.00  0.00    +0.000 A 
ATOM      8  O   UNL     1       1.877   5.200  17.768  0.00  0.00    +0.000 OA
ATOM      9  N   UNL     1       3.420   3.888  18.764  0.00  0.00    +0.000 N 
ATOM     10  C   UNL     1       2.677   2.814  19.194  0.00  0.00    +0.000 A 
ATOM     11  C   UNL     1       3.576   1.994  19.840  0.00  0.00    +0.000 A 
ATOM     12  N   UNL     1       4.837   2.531  19.802  0.00  0.00    +0.000 NA
ATOM     13  C   UNL     1       4.706   3.664  19.154  0.00  0.00    +0.000 A 
ENDROOT
BRANCH   1  14
ATOM     14  C   UNL     1       6.906   7.782  17.409  0.00  0.00    +0.000 C 
BRANCH  14  16
ATOM     15  C   UNL     1       8.169   9.935  17.937  0.00  0.00    +0.000 C 
ATOM     16  C   UNL     1       8.228   8.418  17.876  0.00  0.00    +0.000 C 
ENDBRANCH  14  16
ENDBRANCH   1  14
BRANCH   6  17
ATOM     17  C   UNL     1       3.523   7.320  17.143  0.00  0.00    +0.000 C 
BRANCH  17  18
ATOM     18  C   UNL     1       2.880   8.244  18.173  0.00  0.00    +0.000 C 
ATOM     19  C   UNL     1       1.613   8.929  17.679  0.00  0.00    +0.000 C 
ENDBRANCH  17  18
ENDBRANCH   6  17
TORSDOF 4
ENDMDL
MODEL 7
REMARK VINA RESULT:      -5.9      2.300      5.033
REMARK  Name = 
REMARK  6 active torsions:
REMARK  status: ('A' for Active; 'I' for Inactive)
REMARK    1  A    between atoms: C_1  and  C_2
REMARK    2  A    between atoms: C_2  and  C_3
REMARK    3  A    between atoms: C_3  and  N_4
REMARK    4  A    between atoms: N_9  and  C_10
REMARK    5  A    between atoms: C_10  and  C_11
REMARK    6  A    between atoms: C_11  and  C_12
REMARK                            x       y       z     vdW  Elec       q    Type
REMARK                         _______ _______ _______ _____ _____    ______ ____
ROOT
ATOM      1  N   UNL     1       5.337   5.764  18.206  0.00  0.00    +0.000 N 
ATOM      2  C   UNL     1       6.059   4.586  18.177  0.00  0.00    +0.000 A 
ATOM      3  N   UNL     1       5.512   3.637  18.895  0.00  0.00    +0.000 NA
ATOM      4  C   UNL     1       4.382   4.201  19.380  0.00  0.00    +0.000 A 
ATOM      5  C   UNL     1       4.214   5.523  18.980  0.00  0.00    +0.000 A 
ATOM      6  N   UNL     1       3.086   6.278  19.381  0.00  0.00    +0.000 N 
ATOM      7  C   UNL     1       2.101   5.595  20.242  0.00  0.00    +0.000 A 
ATOM      8  O   UNL     1       1.108   6.196  20.629  0.00  0.00    +0.000 OA
ATOM      9  N   UNL     1       2.289   4.273  20.639  0.00  0.00    +0.000 N 
ATOM     10  C   UNL     1       1.534   3.453  21.443  0.00  0.00    +0.000 A 
ATOM     11  C   UNL     1       2.235   2.269  21.505  0.00  0.00    +0.000 A 
ATOM     12  N   UNL     1       3.381   2.344  20.754  0.00  0.00    +0.000 NA
ATOM     13  C   UNL     1       3.382   3.557  20.254  0.00  0.00    +0.000 A 
ENDROOT
BRANCH   1  14
ATOM     14  C   UNL     1       5.736   6.939  17.450  0.00  0.00    +0.000 C 
BRANCH  14  16
ATOM     15  C   UNL     1       7.802   8.415  17.695  0.00  0.00    +0.000 C 
ATOM     16  C   UNL     1       7.254   7.076  17.232  0.00  0.00    +0.000 C 
ENDBRANCH  14  16
ENDBRANCH   1  14
BRANCH   6  17
ATOM     17  C   UNL     1       2.851   7.710  19.127  0.00  0.00    +0.000 C 
BRANCH  17  18
ATOM     18  C   UNL     1       2.134   7.953  17.803  0.00  0.00    +0.000 C 
ATOM     19  C   UNL     1       1.341   9.252  17.762  0.00  0.00    +0.000 C 
ENDBRANCH  17  18
ENDBRANCH   6  17
TORSDOF 4
ENDMDL
MODEL 8
REMARK VINA RESULT:      -5.9      1.507      1.731
REMARK  Name = 
REMARK  6 active torsions:
REMARK  status: ('A' for Active; 'I' for Inactive)
REMARK    1  A    between atoms: C_1  and  C_2
REMARK    2  A    between atoms: C_2  and  C_3
REMARK    3  A    between atoms: C_3  and  N_4
REMARK    4  A    between atoms: N_9  and  C_10
REMARK    5  A    between atoms: C_10  and  C_11
REMARK    6  A    between atoms: C_11  and  C_12
REMARK                            x       y       z     vdW  Elec       q    Type
REMARK                         _______ _______ _______ _____ _____    ______ ____
ROOT
ATOM      1  N   UNL     1       3.149   3.549  20.316  0.00  0.00    +0.000 N 
ATOM      2  C   UNL     1       4.107   2.553  20.346  0.00  0.00    +0.000 A 
ATOM      3  N   UNL     1       5.134   2.814  19.575  0.00  0.00    +0.000 NA
ATOM      4  C   UNL     1       4.854   4.029  19.052  0.00  0.00    +0.000 A 
ATOM      5  C   UNL     1       3.634   4.542  19.482  0.00  0.00    +0.000 A 
ATOM      6  N   UNL     1       3.172   5.808  19.049  0.00  0.00    +0.000 N 
ATOM      7  C   UNL     1       4.046   6.554  18.122  0.00  0.00    +0.000 A 
ATOM      8  O   UNL     1       3.699   7.650  17.705  0.00  0.00    +0.000 OA
ATOM      9  N   UNL     1       5.261   6.021  17.697  0.00  0.00    +0.000 N 
ATOM     10  C   UNL     1       6.211   6.512  16.834  0.00  0.00    +0.000 A 
ATOM     11  C   UNL     1       7.177   5.532  16.772  0.00  0.00    +0.000 A 
ATOM     12  N   UNL     1       6.846   4.473  17.579  0.00  0.00    +0.000 NA
ATOM     13  C   UNL     1       5.694   4.798  18.113  0.00  0.00    +0.000 A 
ENDROOT
BRANCH   1  14
ATOM     14  C   UNL     1       1.943   3.490  21.124  0.00  0.00    +0.000 C 
BRANCH  14  16
ATOM     15  C   UNL     1       0.909   2.513  19.006  0.00  0.00    +0.000 C 
ATOM     16  C   UNL     1       0.653   3.211  20.331  0.00  0.00    +0.000 C 
ENDBRANCH  14  16
ENDBRANCH   1  14
BRANCH   6  17
ATOM     17  C   UNL     1       1.856   6.407  19.332  0.00  0.00    +0.000 C 
BRANCH  17  18
ATOM     18  C   UNL     1       1.814   7.095  20.693  0.00  0.00    +0.000 C 
ATOM     19  C   UNL     1       1.237   8.503  20.655  0.00  0.00    +0.000 C 
ENDBRANCH  17  18
ENDBRANCH   6  17
TORSDOF 4
ENDMDL
MODEL 9
REMARK VINA RESULT:      -5.8      2.026      5.404
REMARK  Name = 
REMARK  6 active torsions:
REMARK  status: ('A' for Active; 'I' for Inactive)
REMARK    1  A    between atoms: C_1  and  C_2
REMARK    2  A    between atoms: C_2  and  C_3
REMARK    3  A    between atoms: C_3  and  N_4
REMARK    4  A    between atoms: N_9  and  C_10
REMARK    5  A    between atoms: C_10  and  C_11
REMARK    6  A    between atoms: C_11  and  C_12
REMARK                            x       y       z     vdW  Elec       q    Type
REMARK                         _______ _______ _______ _____ _____    ______ ____
ROOT
ATOM      1  N   UNL     1       4.666   5.279  17.066  0.00  0.00    +0.000 N 
ATOM      2  C   UNL     1       4.705   6.505  16.427  0.00  0.00    +0.000 A 
ATOM      3  N   UNL     1       3.963   7.408  17.017  0.00  0.00    +0.000 NA
ATOM      4  C   UNL     1       3.450   6.765  18.090  0.00  0.00    +0.000 A 
ATOM      5  C   UNL     1       3.857   5.437  18.178  0.00  0.00    +0.000 A 
ATOM      6  N   UNL     1       3.430   4.603  19.240  0.00  0.00    +0.000 N 
ATOM      7  C   UNL     1       2.534   5.210  20.243  0.00  0.00    +0.000 A 
ATOM      8  O   UNL     1       2.123   4.539  21.180  0.00  0.00    +0.000 OA
ATOM      9  N   UNL     1       2.131   6.539  20.134  0.00  0.00    +0.000 N 
ATOM     10  C   UNL     1       1.297   7.299  20.920  0.00  0.00    +0.000 A 
ATOM     11  C   UNL     1       1.245   8.528  20.301  0.00  0.00    +0.000 A 
ATOM     12  N   UNL     1       2.030   8.538  19.176  0.00  0.00    +0.000 NA
ATOM     13  C   UNL     1       2.541   7.332  19.106  0.00  0.00    +0.000 A 
ENDROOT
BRANCH   1  14
ATOM     14  C   UNL     1       5.444   4.140  16.610  0.00  0.00    +0.000 C 
BRANCH  14  16
ATOM     15  C   UNL     1       7.637   4.673  17.801  0.00  0.00    +0.000 C 
ATOM     16  C   UNL     1       6.954   4.410  16.470  0.00  0.00    +0.000 C 
ENDBRANCH  14  16
ENDBRANCH   1  14
BRANCH   6  17
ATOM     17  C   UNL     1       3.689   3.159  19.382  0.00  0.00    +0.000 C 
BRANCH  17  18
ATOM     18  C   UNL     1       2.898   2.328  18.377  0.00  0.00    +0.000 C 
ATOM     19  C   UNL     1       1.442   2.113  18.767  0.00  0.00    +0.000 C 
ENDBRANCH  17  18
ENDBRANCH   6  17
TORSDOF 4
ENDMDL
