MODEL 1
REMARK VINA RESULT:      -7.2      0.000      0.000
REMARK  Name = 
REMARK  4 active torsions:
REMARK  status: ('A' for Active; 'I' for Inactive)
REMARK    1  A    between atoms: C_1  and  C_2
REMARK    2  A    between atoms: C_2  and  O_3
REMARK    3  A    between atoms: C_2  and  C_4
REMARK    4  A    between atoms: C_8  and  N_9
REMARK                            x       y       z     vdW  Elec       q    Type
REMARK                         _______ _______ _______ _____ _____    ______ ____
ROOT
ATOM      1  N   UNL     1       2.637   6.422  19.387  0.00  0.00    +0.000 N 
ATOM      2  C   UNL     1       1.833   6.511  20.613  0.00  0.00    +0.000 C 
ATOM      3  C   UNL     1       1.749   8.002  21.045  0.00  0.00    +0.000 C 
ATOM      4  N   UNL     1       1.246   8.800  19.921  0.00  0.00    +0.000 N 
ATOM      5  C   UNL     1       0.371   9.793  20.117  0.00  0.00    +0.000 A 
ATOM      6  N   UNL     1      -0.115  10.271  21.248  0.00  0.00    +0.000 NA
ATOM      7  C   UNL     1      -1.063  11.178  20.840  0.00  0.00    +0.000 A 
ATOM      8  C   UNL     1      -1.924  12.021  21.537  0.00  0.00    +0.000 A 
ATOM      9  N   UNL     1      -2.827  12.780  20.851  0.00  0.00    +0.000 NA
ATOM     10  C   UNL     1      -2.871  12.703  19.497  0.00  0.00    +0.000 A 
ATOM     11  C   UNL     1      -2.038  11.925  18.713  0.00  0.00    +0.000 A 
ATOM     12  C   UNL     1      -1.133  11.187  19.460  0.00  0.00    +0.000 A 
ATOM     13  O   UNL     1      -0.183  10.341  18.992  0.00  0.00    +0.000 OA
ATOM     14  C   UNL     1       2.036   8.714  18.691  0.00  0.00    +0.000 C 
ATOM     15  C   UNL     1       2.174   7.240  18.257  0.00  0.00    +0.000 C 
ENDROOT
BRANCH   1  20
ATOM     16  C   UNL     1       5.708   4.815  18.510  0.00  0.00    +0.000 A 
ATOM     17  N   UNL     1       5.538   3.546  18.908  0.00  0.00    +0.000 NA
ATOM     18  C   UNL     1       4.367   3.260  19.498  0.00  0.00    +0.000 A 
ATOM     19  C   UNL     1       3.392   4.195  19.711  0.00  0.00    +0.000 A 
ATOM     20  C   UNL     1       3.624   5.479  19.251  0.00  0.00    +0.000 A 
ATOM     21  N   UNL     1       4.779   5.793  18.628  0.00  0.00    +0.000 NA
BRANCH  16  23
ATOM     22  C   UNL     1       7.741   6.267  18.671  0.00  0.00    +0.000 C 
ATOM     23  C   UNL     1       7.051   5.167  17.882  0.00  0.00    +0.000 C 
BRANCH  23  24
ATOM     24  O   UNL     1       7.943   4.045  17.833  0.00  0.00    +0.000 OA
ATOM     25  H   UNL     1       8.822   4.409  18.058  0.00  0.00    +0.000 HD
ENDBRANCH  23  24
ENDBRANCH  16  23
ENDBRANCH   1  20
TORSDOF 3
ENDMDL
MODEL 2
REMARK VINA RESULT:      -7.1      1.320      1.395
REMARK  Name = 
REMARK  4 active torsions:
REMARK  status: ('A' for Active; 'I' for Inactive)
REMARK    1  A    between atoms: C_1  and  C_2
REMARK    2  A    between atoms: C_2  and  O_3
REMARK    3  A    between atoms: C_2  and  C_4
REMARK    4  A    between atoms: C_8  and  N_9
REMARK                            x       y       z     vdW  Elec       q    Type
REMARK                         _______ _______ _______ _____ _____    ______ ____
ROOT
ATOM      1  N   UNL     1       2.491   6.744  18.518  0.00  0.00    +0.000 N 
ATOM      2  C   UNL     1       1.841   6.438  19.800  0.00  0.00    +0.000 C 
ATOM      3  C   UNL     1       1.903   7.702  20.702  0.00  0.00    +0.000 C 
ATOM      4  N   UNL     1       1.324   8.838  19.976  0.00  0.00    +0.000 N 
ATOM      5  C   UNL     1       0.542   9.729  20.598  0.00  0.00    +0.000 A 
ATOM      6  N   UNL     1       0.222   9.814  21.876  0.00  0.00    +0.000 NA
ATOM      7  C   UNL     1      -0.708  10.826  21.914  0.00  0.00    +0.000 A 
ATOM      8  C   UNL     1      -1.427  11.407  22.954  0.00  0.00    +0.000 A 
ATOM      9  N   UNL     1      -2.354  12.371  22.677  0.00  0.00    +0.000 NA
ATOM     10  C   UNL     1      -2.559  12.748  21.390  0.00  0.00    +0.000 A 
ATOM     11  C   UNL     1      -1.874  12.257  20.294  0.00  0.00    +0.000 A 
ATOM     12  C   UNL     1      -0.937  11.293  20.634  0.00  0.00    +0.000 A 
ATOM     13  O   UNL     1      -0.103  10.631  19.796  0.00  0.00    +0.000 OA
ATOM     14  C   UNL     1       1.959   9.149  18.694  0.00  0.00    +0.000 C 
ATOM     15  C   UNL     1       1.953   7.900  17.788  0.00  0.00    +0.000 C 
ENDROOT
BRANCH   1  20
ATOM     16  C   UNL     1       5.471   5.412  17.061  0.00  0.00    +0.000 A 
ATOM     17  N   UNL     1       5.144   4.153  16.739  0.00  0.00    +0.000 NA
ATOM     18  C   UNL     1       3.897   3.766  17.049  0.00  0.00    +0.000 A 
ATOM     19  C   UNL     1       2.997   4.583  17.675  0.00  0.00    +0.000 A 
ATOM     20  C   UNL     1       3.394   5.879  17.954  0.00  0.00    +0.000 A 
ATOM     21  N   UNL     1       4.631   6.309  17.630  0.00  0.00    +0.000 NA
BRANCH  16  23
ATOM     22  C   UNL     1       7.509   6.555  17.960  0.00  0.00    +0.000 C 
ATOM     23  C   UNL     1       6.898   5.852  16.760  0.00  0.00    +0.000 C 
BRANCH  23  24
ATOM     24  O   UNL     1       7.752   4.749  16.425  0.00  0.00    +0.000 OA
ATOM     25  H   UNL     1       8.400   4.697  17.156  0.00  0.00    +0.000 HD
ENDBRANCH  23  24
ENDBRANCH  16  23
ENDBRANCH   1  20
TORSDOF 3
ENDMDL
MODEL 3
REMARK VINA RESULT:      -7.0      1.075      1.079
REMARK  Name = 
REMARK  4 active torsions:
REMARK  status: ('A' for Active; 'I' for Inactive)
REMARK    1  A    between atoms: C_1  and  C_2
REMARK    2  A    between atoms: C_2  and  O_3
REMARK    3  A    between atoms: C_2  and  C_4
REMARK    4  A    between atoms: C_8  and  N_9
REMARK                            x       y       z     vdW  Elec       q    Type
REMARK                         _______ _______ _______ _____ _____    ______ ____
ROOT
ATOM      1  N   UNL     1       2.554   6.795  18.750  0.00  0.00    +0.000 N 
ATOM      2  C   UNL     1       1.864   6.666  20.040  0.00  0.00    +0.000 C 
ATOM      3  C   UNL     1       1.833   8.059  20.728  0.00  0.00    +0.000 C 
ATOM      4  N   UNL     1       1.237   9.034  19.809  0.00  0.00    +0.000 N 
ATOM      5  C   UNL     1       0.391   9.973  20.251  0.00  0.00    +0.000 A 
ATOM      6  N   UNL     1       0.013  10.245  21.486  0.00  0.00    +0.000 NA
ATOM      7  C   UNL     1      -0.960  11.203  21.327  0.00  0.00    +0.000 A 
ATOM      8  C   UNL     1      -1.747  11.906  22.234  0.00  0.00    +0.000 A 
ATOM      9  N   UNL     1      -2.703  12.766  21.773  0.00  0.00    +0.000 NA
ATOM     10  C   UNL     1      -2.869  12.923  20.435  0.00  0.00    +0.000 A 
ATOM     11  C   UNL     1      -2.116  12.297  19.458  0.00  0.00    +0.000 A 
ATOM     12  C   UNL     1      -1.154  11.448  19.981  0.00  0.00    +0.000 A 
ATOM     13  O   UNL     1      -0.257  10.703  19.291  0.00  0.00    +0.000 OA
ATOM     14  C   UNL     1       1.912   9.168  18.516  0.00  0.00    +0.000 C 
ATOM     15  C   UNL     1       1.998   7.792  17.825  0.00  0.00    +0.000 C 
ENDROOT
BRANCH   1  20
ATOM     16  C   UNL     1       5.721   5.221  18.224  0.00  0.00    +0.000 A 
ATOM     17  N   UNL     1       5.428   4.132  17.499  0.00  0.00    +0.000 NA
ATOM     18  C   UNL     1       4.132   3.939  17.213  0.00  0.00    +0.000 A 
ATOM     19  C   UNL     1       3.141   4.778  17.643  0.00  0.00    +0.000 A 
ATOM     20  C   UNL     1       3.517   5.896  18.366  0.00  0.00    +0.000 A 
ATOM     21  N   UNL     1       4.816   6.136  18.645  0.00  0.00    +0.000 NA
BRANCH  16  23
ATOM     22  C   UNL     1       7.676   6.780  18.109  0.00  0.00    +0.000 C 
ATOM     23  C   UNL     1       7.183   5.429  18.598  0.00  0.00    +0.000 C 
BRANCH  23  24
ATOM     24  O   UNL     1       7.398   5.378  20.015  0.00  0.00    +0.000 OA
ATOM     25  H   UNL     1       6.649   5.872  20.404  0.00  0.00    +0.000 HD
ENDBRANCH  23  24
ENDBRANCH  16  23
ENDBRANCH   1  20
TORSDOF 3
ENDMDL
MODEL 4
REMARK VINA RESULT:      -7.0      1.936      8.977
REMARK  Name = 
REMARK  4 active torsions:
REMARK  status: ('A' for Active; 'I' for Inactive)
REMARK    1  A    between atoms: C_1  and  C_2
REMARK    2  A    between atoms: C_2  and  O_3
REMARK    3  A    between atoms: C_2  and  C_4
REMARK    4  A    between atoms: C_8  and  N_9
REMARK                            x       y       z     vdW  Elec       q    Type
REMARK                         _______ _______ _______ _____ _____    ______ ____
ROOT
ATOM      1  N   UNL     1       0.598   9.945  19.398  0.00  0.00    +0.000 N 
ATOM      2  C   UNL     1       1.181   9.166  20.500  0.00  0.00    +0.000 C 
ATOM      3  C   UNL     1       1.487   7.732  19.986  0.00  0.00    +0.000 C 
ATOM      4  N   UNL     1       2.326   7.820  18.786  0.00  0.00    +0.000 N 
ATOM      5  C   UNL     1       3.336   6.965  18.586  0.00  0.00    +0.000 A 
ATOM      6  N   UNL     1       3.706   5.922  19.305  0.00  0.00    +0.000 NA
ATOM      7  C   UNL     1       4.873   5.509  18.707  0.00  0.00    +0.000 A 
ATOM      8  C   UNL     1       5.752   4.465  18.977  0.00  0.00    +0.000 A 
ATOM      9  N   UNL     1       6.895   4.337  18.240  0.00  0.00    +0.000 NA
ATOM     10  C   UNL     1       7.155   5.232  17.253  0.00  0.00    +0.000 A 
ATOM     11  C   UNL     1       6.330   6.280  16.887  0.00  0.00    +0.000 A 
ATOM     12  C   UNL     1       5.180   6.353  17.657  0.00  0.00    +0.000 A 
ATOM     13  O   UNL     1       4.174   7.255  17.543  0.00  0.00    +0.000 OA
ATOM     14  C   UNL     1       1.759   8.599  17.683  0.00  0.00    +0.000 C 
ATOM     15  C   UNL     1       1.404  10.019  18.171  0.00  0.00    +0.000 C 
ENDROOT
BRANCH   1  20
ATOM     16  C   UNL     1      -2.612  11.450  18.941  0.00  0.00    +0.000 A 
ATOM     17  N   UNL     1      -2.699  12.344  19.937  0.00  0.00    +0.000 NA
ATOM     18  C   UNL     1      -1.652  12.404  20.774  0.00  0.00    +0.000 A 
ATOM     19  C   UNL     1      -0.555  11.598  20.654  0.00  0.00    +0.000 A 
ATOM     20  C   UNL     1      -0.520  10.717  19.587  0.00  0.00    +0.000 A 
ATOM     21  N   UNL     1      -1.543  10.651  18.710  0.00  0.00    +0.000 NA
BRANCH  16  23
ATOM     22  C   UNL     1      -5.024  12.032  18.605  0.00  0.00    +0.000 C 
ATOM     23  C   UNL     1      -3.812  11.336  18.009  0.00  0.00    +0.000 C 
BRANCH  23  24
ATOM     24  O   UNL     1      -3.565  11.922  16.724  0.00  0.00    +0.000 OA
ATOM     25  H   UNL     1      -2.708  11.550  16.434  0.00  0.00    +0.000 HD
ENDBRANCH  23  24
ENDBRANCH  16  23
ENDBRANCH   1  20
TORSDOF 3
ENDMDL
MODEL 5
REMARK VINA RESULT:      -6.9      1.351      2.167
REMARK  Name = 
REMARK  4 active torsions:
REMARK  status: ('A' for Active; 'I' for Inactive)
REMARK    1  A    between atoms: C_1  and  C_2
REMARK    2  A    between atoms: C_2  and  O_3
REMARK    3  A    between atoms: C_2  and  C_4
REMARK    4  A    between atoms: C_8  and  N_9
REMARK                            x       y       z     vdW  Elec       q    Type
REMARK                         _______ _______ _______ _____ _____    ______ ____
ROOT
ATOM      1  N   UNL     1       2.312   6.900  19.224  0.00  0.00    +0.000 N 
ATOM      2  C   UNL     1       1.545   6.803  20.474  0.00  0.00    +0.000 C 
ATOM      3  C   UNL     1       1.538   8.197  21.161  0.00  0.00    +0.000 C 
ATOM      4  N   UNL     1       1.039   9.198  20.211  0.00  0.00    +0.000 N 
ATOM      5  C   UNL     1       0.213  10.174  20.607  0.00  0.00    +0.000 A 
ATOM      6  N   UNL     1      -0.221  10.464  21.819  0.00  0.00    +0.000 NA
ATOM      7  C   UNL     1      -1.140  11.464  21.607  0.00  0.00    +0.000 A 
ATOM      8  C   UNL     1      -1.945  12.203  22.469  0.00  0.00    +0.000 A 
ATOM      9  N   UNL     1      -2.833  13.105  21.956  0.00  0.00    +0.000 NA
ATOM     10  C   UNL     1      -2.916  13.267  20.612  0.00  0.00    +0.000 A 
ATOM     11  C   UNL     1      -2.139  12.607  19.677  0.00  0.00    +0.000 A 
ATOM     12  C   UNL     1      -1.247  11.716  20.253  0.00  0.00    +0.000 A 
ATOM     13  O   UNL     1      -0.347  10.931  19.613  0.00  0.00    +0.000 OA
ATOM     14  C   UNL     1       1.791   9.299  18.959  0.00  0.00    +0.000 C 
ATOM     15  C   UNL     1       1.854   7.920  18.271  0.00  0.00    +0.000 C 
ENDROOT
BRANCH   1  20
ATOM     16  C   UNL     1       4.139   3.832  19.052  0.00  0.00    +0.000 A 
ATOM     17  N   UNL     1       5.205   4.128  18.295  0.00  0.00    +0.000 NA
ATOM     18  C   UNL     1       5.273   5.385  17.831  0.00  0.00    +0.000 A 
ATOM     19  C   UNL     1       4.314   6.326  18.084  0.00  0.00    +0.000 A 
ATOM     20  C   UNL     1       3.254   5.959  18.894  0.00  0.00    +0.000 A 
ATOM     21  N   UNL     1       3.170   4.711  19.401  0.00  0.00    +0.000 NA
BRANCH  16  23
ATOM     22  C   UNL     1       3.542   1.481  18.432  0.00  0.00    +0.000 C 
ATOM     23  C   UNL     1       4.022   2.396  19.546  0.00  0.00    +0.000 C 
BRANCH  23  24
ATOM     24  O   UNL     1       5.271   1.878  20.024  0.00  0.00    +0.000 OA
ATOM     25  H   UNL     1       5.610   2.558  20.640  0.00  0.00    +0.000 HD
ENDBRANCH  23  24
ENDBRANCH  16  23
ENDBRANCH   1  20
TORSDOF 3
ENDMDL
MODEL 6
REMARK VINA RESULT:      -6.9      2.844      3.787
REMARK  Name = 
REMARK  4 active torsions:
REMARK  status: ('A' for Active; 'I' for Inactive)
REMARK    1  A    between atoms: C_1  and  C_2
REMARK    2  A    between atoms: C_2  and  O_3
REMARK    3  A    between atoms: C_2  and  C_4
REMARK    4  A    between atoms: C_8  and  N_9
REMARK                            x       y       z     vdW  Elec       q    Type
REMARK                         _______ _______ _______ _____ _____    ______ ____
ROOT
ATOM      1  N   UNL     1       2.249   7.391  19.092  0.00  0.00    +0.000 N 
ATOM      2  C   UNL     1       2.537   8.430  18.093  0.00  0.00    +0.000 C 
ATOM      3  C   UNL     1       1.316   9.387  18.005  0.00  0.00    +0.000 C 
ATOM      4  N   UNL     1       1.006   9.894  19.347  0.00  0.00    +0.000 N 
ATOM      5  C   UNL     1       0.650  11.170  19.537  0.00  0.00    +0.000 A 
ATOM      6  N   UNL     1       0.446  12.125  18.648  0.00  0.00    +0.000 NA
ATOM      7  C   UNL     1       0.243  13.248  19.414  0.00  0.00    +0.000 A 
ATOM      8  C   UNL     1      -0.029  14.573  19.090  0.00  0.00    +0.000 A 
ATOM      9  N   UNL     1      -0.115  15.507  20.083  0.00  0.00    +0.000 NA
ATOM     10  C   UNL     1       0.064  15.126  21.373  0.00  0.00    +0.000 A 
ATOM     11  C   UNL     1       0.304  13.832  21.799  0.00  0.00    +0.000 A 
ATOM     12  C   UNL     1       0.367  12.925  20.752  0.00  0.00    +0.000 A 
ATOM     13  O   UNL     1       0.576  11.589  20.839  0.00  0.00    +0.000 OA
ATOM     14  C   UNL     1       0.723   8.868  20.352  0.00  0.00    +0.000 C 
ATOM     15  C   UNL     1       1.901   7.875  20.435  0.00  0.00    +0.000 C 
ENDROOT
BRANCH   1  20
ATOM     16  C   UNL     1       2.200   3.822  19.279  0.00  0.00    +0.000 A 
ATOM     17  N   UNL     1       3.088   3.433  18.352  0.00  0.00    +0.000 NA
ATOM     18  C   UNL     1       3.683   4.411  17.653  0.00  0.00    +0.000 A 
ATOM     19  C   UNL     1       3.404   5.737  17.840  0.00  0.00    +0.000 A 
ATOM     20  C   UNL     1       2.497   6.067  18.831  0.00  0.00    +0.000 A 
ATOM     21  N   UNL     1       1.902   5.109  19.573  0.00  0.00    +0.000 NA
BRANCH  16  23
ATOM     22  C   UNL     1       1.684   2.890  21.545  0.00  0.00    +0.000 C 
ATOM     23  C   UNL     1       1.480   2.722  20.049  0.00  0.00    +0.000 C 
BRANCH  23  24
ATOM     24  O   UNL     1       0.067   2.718  19.803  0.00  0.00    +0.000 OA
ATOM     25  H   UNL     1      -0.320   3.245  20.531  0.00  0.00    +0.000 HD
ENDBRANCH  23  24
ENDBRANCH  16  23
ENDBRANCH   1  20
TORSDOF 3
ENDMDL
MODEL 7
REMARK VINA RESULT:      -6.9      2.923      8.721
REMARK  Name = 
REMARK  4 active torsions:
REMARK  status: ('A' for Active; 'I' for Inactive)
REMARK    1  A    between atoms: C_1  and  C_2
REMARK    2  A    between atoms: C_2  and  O_3
REMARK    3  A    between atoms: C_2  and  C_4
REMARK    4  A    between atoms: C_8  and  N_9
REMARK                            x       y       z     vdW  Elec       q    Type
REMARK                         _______ _______ _______ _____ _____    ______ ____
ROOT
ATOM      1  N   UNL     1       1.087  10.150  19.316  0.00  0.00    +0.000 N 
ATOM      2  C   UNL     1       1.382   9.626  17.976  0.00  0.00    +0.000 C 
ATOM      3  C   UNL     1       2.520   8.574  18.093  0.00  0.00    +0.000 C 
ATOM      4  N   UNL     1       2.134   7.557  19.077  0.00  0.00    +0.000 N 
ATOM      5  C   UNL     1       2.397   6.261  18.871  0.00  0.00    +0.000 A 
ATOM      6  N   UNL     1       3.059   5.688  17.883  0.00  0.00    +0.000 NA
ATOM      7  C   UNL     1       2.895   4.343  18.116  0.00  0.00    +0.000 A 
ATOM      8  C   UNL     1       3.347   3.209  17.448  0.00  0.00    +0.000 A 
ATOM      9  N   UNL     1       2.960   1.973  17.880  0.00  0.00    +0.000 NA
ATOM     10  C   UNL     1       2.141   1.869  18.957  0.00  0.00    +0.000 A 
ATOM     11  C   UNL     1       1.668   2.931  19.707  0.00  0.00    +0.000 A 
ATOM     12  C   UNL     1       2.102   4.159  19.232  0.00  0.00    +0.000 A 
ATOM     13  O   UNL     1       1.824   5.381  19.749  0.00  0.00    +0.000 OA
ATOM     14  C   UNL     1       1.831   8.067  20.416  0.00  0.00    +0.000 C 
ATOM     15  C   UNL     1       0.732   9.147  20.330  0.00  0.00    +0.000 C 
ENDROOT
BRANCH   1  20
ATOM     16  C   UNL     1       0.115  13.278  20.747  0.00  0.00    +0.000 A 
ATOM     17  N   UNL     1       0.612  14.193  19.902  0.00  0.00    +0.000 NA
ATOM     18  C   UNL     1       1.299  13.719  18.852  0.00  0.00    +0.000 A 
ATOM     19  C   UNL     1       1.514  12.385  18.641  0.00  0.00    +0.000 A 
ATOM     20  C   UNL     1       0.950  11.496  19.539  0.00  0.00    +0.000 A 
ATOM     21  N   UNL     1       0.228  11.938  20.590  0.00  0.00    +0.000 NA
BRANCH  16  23
ATOM     22  C   UNL     1      -1.120  12.651  22.833  0.00  0.00    +0.000 C 
ATOM     23  C   UNL     1      -0.628  13.801  21.970  0.00  0.00    +0.000 C 
BRANCH  23  24
ATOM     24  O   UNL     1       0.197  14.637  22.794  0.00  0.00    +0.000 OA
ATOM     25  H   UNL     1       0.916  14.054  23.109  0.00  0.00    +0.000 HD
ENDBRANCH  23  24
ENDBRANCH  16  23
ENDBRANCH   1  20
TORSDOF 3
ENDMDL
MODEL 8
REMARK VINA RESULT:      -6.9      3.120      8.223
REMARK  Name = 
REMARK  4 active torsions:
REMARK  status: ('A' for Active; 'I' for Inactive)
REMARK    1  A    between atoms: C_1  and  C_2
REMARK    2  A    between atoms: C_2  and  O_3
REMARK    3  A    between atoms: C_2  and  C_4
REMARK    4  A    between atoms: C_8  and  N_9
REMARK                            x       y       z     vdW  Elec       q    Type
REMARK                         _______ _______ _______ _____ _____    ______ ____
ROOT
ATOM      1  N   UNL     1       1.007  10.402  19.008  0.00  0.00    +0.000 N 
ATOM      2  C   UNL     1       1.404   9.588  17.851  0.00  0.00    +0.000 C 
ATOM      3  C   UNL     1       2.503   8.586  18.301  0.00  0.00    +0.000 C 
ATOM      4  N   UNL     1       2.011   7.819  19.451  0.00  0.00    +0.000 N 
ATOM      5  C   UNL     1       2.260   6.509  19.564  0.00  0.00    +0.000 A 
ATOM      6  N   UNL     1       2.991   5.725  18.793  0.00  0.00    +0.000 NA
ATOM      7  C   UNL     1       2.777   4.468  19.306  0.00  0.00    +0.000 A 
ATOM      8  C   UNL     1       3.257   3.211  18.952  0.00  0.00    +0.000 A 
ATOM      9  N   UNL     1       2.806   2.106  19.615  0.00  0.00    +0.000 NA
ATOM     10  C   UNL     1       1.896   2.250  20.611  0.00  0.00    +0.000 A 
ATOM     11  C   UNL     1       1.385   3.456  21.058  0.00  0.00    +0.000 A 
ATOM     12  C   UNL     1       1.887   4.544  20.360  0.00  0.00    +0.000 A 
ATOM     13  O   UNL     1       1.594   5.851  20.563  0.00  0.00    +0.000 OA
ATOM     14  C   UNL     1       1.606   8.619  20.608  0.00  0.00    +0.000 C 
ATOM     15  C   UNL     1       0.544   9.655  20.186  0.00  0.00    +0.000 C 
ENDROOT
BRANCH   1  20
ATOM     16  C   UNL     1       1.765  13.857  18.495  0.00  0.00    +0.000 A 
ATOM     17  N   UNL     1       0.630  14.493  18.820  0.00  0.00    +0.000 NA
ATOM     18  C   UNL     1      -0.398  13.718  19.196  0.00  0.00    +0.000 A 
ATOM     19  C   UNL     1      -0.327  12.353  19.234  0.00  0.00    +0.000 A 
ATOM     20  C   UNL     1       0.883  11.765  18.910  0.00  0.00    +0.000 A 
ATOM     21  N   UNL     1       1.946  12.517  18.557  0.00  0.00    +0.000 NA
BRANCH  16  23
ATOM     22  C   UNL     1       3.226  15.821  19.024  0.00  0.00    +0.000 C 
ATOM     23  C   UNL     1       2.928  14.720  18.020  0.00  0.00    +0.000 C 
BRANCH  23  24
ATOM     24  O   UNL     1       4.133  13.963  17.840  0.00  0.00    +0.000 OA
ATOM     25  H   UNL     1       4.811  14.620  17.585  0.00  0.00    +0.000 HD
ENDBRANCH  23  24
ENDBRANCH  16  23
ENDBRANCH   1  20
TORSDOF 3
ENDMDL
MODEL 9
REMARK VINA RESULT:      -6.8      2.647      4.238
REMARK  Name = 
REMARK  4 active torsions:
REMARK  status: ('A' for Active; 'I' for Inactive)
REMARK    1  A    between atoms: C_1  and  C_2
REMARK    2  A    between atoms: C_2  and  O_3
REMARK    3  A    between atoms: C_2  and  C_4
REMARK    4  A    between atoms: C_8  and  N_9
REMARK                            x       y       z     vdW  Elec       q    Type
REMARK                         _______ _______ _______ _____ _____    ______ ____
ROOT
ATOM      1  N   UNL     1       1.313   8.434  20.622  0.00  0.00    +0.000 N 
ATOM      2  C   UNL     1       0.930   9.437  19.618  0.00  0.00    +0.000 C 
ATOM      3  C   UNL     1      -0.462  10.014  20.000  0.00  0.00    +0.000 C 
ATOM      4  N   UNL     1      -0.412  10.513  21.378  0.00  0.00    +0.000 N 
ATOM      5  C   UNL     1      -1.022  11.655  21.722  0.00  0.00    +0.000 A 
ATOM      6  N   UNL     1      -1.783  12.450  20.993  0.00  0.00    +0.000 NA
ATOM      7  C   UNL     1      -2.012  13.527  21.815  0.00  0.00    +0.000 A 
ATOM      8  C   UNL     1      -2.741  14.701  21.649  0.00  0.00    +0.000 A 
ATOM      9  N   UNL     1      -2.733  15.645  22.636  0.00  0.00    +0.000 NA
ATOM     10  C   UNL     1      -2.015  15.423  23.766  0.00  0.00    +0.000 A 
ATOM     11  C   UNL     1      -1.289  14.277  24.039  0.00  0.00    +0.000 A 
ATOM     12  C   UNL     1      -1.343  13.349  23.011  0.00  0.00    +0.000 A 
ATOM     13  O   UNL     1      -0.750  12.131  22.976  0.00  0.00    +0.000 OA
ATOM     14  C   UNL     1      -0.025   9.525  22.387  0.00  0.00    +0.000 C 
ATOM     15  C   UNL     1       1.335   8.900  22.015  0.00  0.00    +0.000 C 
ENDROOT
BRANCH   1  20
ATOM     16  C   UNL     1       1.983   4.924  20.508  0.00  0.00    +0.000 A 
ATOM     17  N   UNL     1       2.911   4.799  19.549  0.00  0.00    +0.000 NA
ATOM     18  C   UNL     1       3.285   5.931  18.933  0.00  0.00    +0.000 A 
ATOM     19  C   UNL     1       2.750   7.153  19.232  0.00  0.00    +0.000 A 
ATOM     20  C   UNL     1       1.815   7.212  20.250  0.00  0.00    +0.000 A 
ATOM     21  N   UNL     1       1.439   6.097  20.910  0.00  0.00    +0.000 NA
BRANCH  16  23
ATOM     22  C   UNL     1       1.263   2.552  20.157  0.00  0.00    +0.000 C 
ATOM     23  C   UNL     1       1.513   3.643  21.185  0.00  0.00    +0.000 C 
BRANCH  23  24
ATOM     24  O   UNL     1       2.470   3.139  22.127  0.00  0.00    +0.000 OA
ATOM     25  H   UNL     1       3.264   3.697  22.006  0.00  0.00    +0.000 HD
ENDBRANCH  23  24
ENDBRANCH  16  23
ENDBRANCH   1  20
TORSDOF 3
ENDMDL
