MODEL 1
REMARK VINA RESULT:      -7.9      0.000      0.000
REMARK  Name = 
REMARK  9 active torsions:
REMARK  status: ('A' for Active; 'I' for Inactive)
REMARK    1  A    between atoms: C_1  and  O_2
REMARK    2  A    between atoms: O_2  and  C_3
REMARK    3  A    between atoms: C_6  and  N_7
REMARK    4  A    between atoms: N_7  and  S_8
REMARK    5  A    between atoms: S_8  and  C_11
REMARK    6  A    between atoms: C_16  and  C_17
REMARK    7  A    between atoms: C_19  and  C_20
REMARK    8  A    between atoms: C_26  and  O_27
REMARK    9  A    between atoms: O_27  and  C_28
REMARK                            x       y       z     vdW  Elec       q    Type
REMARK                         _______ _______ _______ _____ _____    ______ ____
ROOT
ATOM      1  S   UNL     1       0.525   9.731  20.767  0.00  0.00    +0.000 S 
ATOM      2  O   UNL     1       1.420  10.388  21.689  0.00  0.00    +0.000 OA
ATOM      3  O   UNL     1      -0.677   9.071  21.228  0.00  0.00    +0.000 OA
ENDROOT
BRANCH   1   4
ATOM      4  C   UNL     1       1.491   8.548  19.844  0.00  0.00    +0.000 A 
ATOM      5  C   UNL     1       1.895   7.362  20.461  0.00  0.00    +0.000 A 
ATOM      6  C   UNL     1       2.552   6.426  19.678  0.00  0.00    +0.000 A 
ATOM      7  C   UNL     1       2.445   6.486  18.290  0.00  0.00    +0.000 A 
ATOM      8  C   UNL     1       2.238   7.725  17.702  0.00  0.00    +0.000 A 
ATOM      9  C   UNL     1       1.894   8.811  18.520  0.00  0.00    +0.000 A 
ATOM     10  C   UNL     1       2.150  10.207  18.024  0.00  0.00    +0.000 C 
ATOM     11  N   UNL     1       2.960   5.375  17.565  0.00  0.00    +0.000 N 
ATOM     12  C   UNL     1       2.251   4.156  17.748  0.00  0.00    +0.000 C 
ATOM     13  C   UNL     1       2.933   2.915  17.218  0.00  0.00    +0.000 C 
ATOM     14  O   UNL     1       1.157   4.058  18.301  0.00  0.00    +0.000 OA
ATOM     15  C   UNL     1       4.383   5.328  17.883  0.00  0.00    +0.000 C 
ATOM     16  C   UNL     1       4.565   5.203  19.416  0.00  0.00    +0.000 C 
ATOM     17  O   UNL     1       3.401   5.507  20.250  0.00  0.00    +0.000 OA
ENDBRANCH   1   4
BRANCH   1  18
ATOM     18  N   UNL     1       0.090  10.877  19.607  0.00  0.00    +0.000 N 
ATOM     19  H   UNL     1       0.848  11.246  19.041  0.00  0.00    +0.000 HD
BRANCH  18  23
ATOM     20  C   UNL     1      -3.834  11.475  18.139  0.00  0.00    +0.000 A 
ATOM     21  C   UNL     1      -3.371  12.153  19.277  0.00  0.00    +0.000 A 
ATOM     22  C   UNL     1      -2.081  11.932  19.768  0.00  0.00    +0.000 A 
ATOM     23  C   UNL     1      -1.245  11.014  19.144  0.00  0.00    +0.000 A 
ATOM     24  C   UNL     1      -1.703  10.308  18.034  0.00  0.00    +0.000 A 
ATOM     25  C   UNL     1      -3.000  10.522  17.527  0.00  0.00    +0.000 A 
BRANCH  20  27
ATOM     26  C   UNL     1      -6.153  10.932  18.192  0.00  0.00    +0.000 C 
ATOM     27  O   UNL     1      -5.087  11.694  17.632  0.00  0.00    +0.000 OA
ENDBRANCH  20  27
BRANCH  25  28
ATOM     28  O   UNL     1      -3.257   9.754  16.418  0.00  0.00    +0.000 OA
ATOM     29  C   UNL     1      -2.897  10.252  15.137  0.00  0.00    +0.000 C 
ENDBRANCH  25  28
ENDBRANCH  18  23
ENDBRANCH   1  18
TORSDOF 5
ENDMDL
MODEL 2
REMARK VINA RESULT:      -7.4      0.789      1.832
REMARK  Name = 
REMARK  9 active torsions:
REMARK  status: ('A' for Active; 'I' for Inactive)
REMARK    1  A    between atoms: C_1  and  O_2
REMARK    2  A    between atoms: O_2  and  C_3
REMARK    3  A    between atoms: C_6  and  N_7
REMARK    4  A    between atoms: N_7  and  S_8
REMARK    5  A    between atoms: S_8  and  C_11
REMARK    6  A    between atoms: C_16  and  C_17
REMARK    7  A    between atoms: C_19  and  C_20
REMARK    8  A    between atoms: C_26  and  O_27
REMARK    9  A    between atoms: O_27  and  C_28
REMARK                            x       y       z     vdW  Elec       q    Type
REMARK                         _______ _______ _______ _____ _____    ______ ____
ROOT
ATOM      1  S   UNL     1       0.515   9.776  20.623  0.00  0.00    +0.000 S 
ATOM      2  O   UNL     1       1.391  10.464  21.541  0.00  0.00    +0.000 OA
ATOM      3  O   UNL     1      -0.688   9.117  21.084  0.00  0.00    +0.000 OA
ENDROOT
BRANCH   1   4
ATOM      4  C   UNL     1       1.504   8.580  19.743  0.00  0.00    +0.000 A 
ATOM      5  C   UNL     1       1.886   7.400  20.386  0.00  0.00    +0.000 A 
ATOM      6  C   UNL     1       2.563   6.453  19.634  0.00  0.00    +0.000 A 
ATOM      7  C   UNL     1       2.497   6.496  18.243  0.00  0.00    +0.000 A 
ATOM      8  C   UNL     1       2.311   7.729  17.634  0.00  0.00    +0.000 A 
ATOM      9  C   UNL     1       1.946   8.825  18.428  0.00  0.00    +0.000 A 
ATOM     10  C   UNL     1       2.221  10.214  17.923  0.00  0.00    +0.000 C 
ATOM     11  N   UNL     1       3.030   5.375  17.547  0.00  0.00    +0.000 N 
ATOM     12  C   UNL     1       2.311   4.160  17.724  0.00  0.00    +0.000 C 
ATOM     13  C   UNL     1       3.005   2.910  17.229  0.00  0.00    +0.000 C 
ATOM     14  O   UNL     1       1.201   4.071  18.246  0.00  0.00    +0.000 OA
ATOM     15  C   UNL     1       4.442   5.327  17.907  0.00  0.00    +0.000 C 
ATOM     16  C   UNL     1       4.579   5.221  19.447  0.00  0.00    +0.000 C 
ATOM     17  O   UNL     1       3.392   5.538  20.242  0.00  0.00    +0.000 OA
ENDBRANCH   1   4
BRANCH   1  18
ATOM     18  N   UNL     1       0.087  10.889  19.429  0.00  0.00    +0.000 N 
ATOM     19  H   UNL     1       0.849  11.244  18.858  0.00  0.00    +0.000 HD
BRANCH  18  23
ATOM     20  C   UNL     1      -3.930  11.067  18.109  0.00  0.00    +0.000 A 
ATOM     21  C   UNL     1      -2.996  10.227  17.485  0.00  0.00    +0.000 A 
ATOM     22  C   UNL     1      -1.665  10.191  17.914  0.00  0.00    +0.000 A 
ATOM     23  C   UNL     1      -1.245  11.012  18.953  0.00  0.00    +0.000 A 
ATOM     24  C   UNL     1      -2.154  11.877  19.559  0.00  0.00    +0.000 A 
ATOM     25  C   UNL     1      -3.498  11.922  19.139  0.00  0.00    +0.000 A 
BRANCH  20  27
ATOM     26  C   UNL     1      -5.671  12.248  16.989  0.00  0.00    +0.000 C 
ATOM     27  O   UNL     1      -5.241  11.100  17.717  0.00  0.00    +0.000 OA
ENDBRANCH  20  27
BRANCH  25  28
ATOM     28  O   UNL     1      -4.241  12.814  19.871  0.00  0.00    +0.000 OA
ATOM     29  C   UNL     1      -3.577  13.683  20.779  0.00  0.00    +0.000 C 
ENDBRANCH  25  28
ENDBRANCH  18  23
ENDBRANCH   1  18
TORSDOF 5
ENDMDL
MODEL 3
REMARK VINA RESULT:      -7.4      5.627      8.800
REMARK  Name = 
REMARK  9 active torsions:
REMARK  status: ('A' for Active; 'I' for Inactive)
REMARK    1  A    between atoms: C_1  and  O_2
REMARK    2  A    between atoms: O_2  and  C_3
REMARK    3  A    between atoms: C_6  and  N_7
REMARK    4  A    between atoms: N_7  and  S_8
REMARK    5  A    between atoms: S_8  and  C_11
REMARK    6  A    between atoms: C_16  and  C_17
REMARK    7  A    between atoms: C_19  and  C_20
REMARK    8  A    between atoms: C_26  and  O_27
REMARK    9  A    between atoms: O_27  and  C_28
REMARK                            x       y       z     vdW  Elec       q    Type
REMARK                         _______ _______ _______ _____ _____    ______ ____
ROOT
ATOM      1  S   UNL     1       6.487   6.947  16.914  0.00  0.00    +0.000 S 
ATOM      2  O   UNL     1       7.344   7.768  17.736  0.00  0.00    +0.000 OA
ATOM      3  O   UNL     1       5.678   7.524  15.862  0.00  0.00    +0.000 OA
ENDROOT
BRANCH   1   4
ATOM      4  C   UNL     1       5.412   6.040  18.011  0.00  0.00    +0.000 A 
ATOM      5  C   UNL     1       4.042   6.315  18.010  0.00  0.00    +0.000 A 
ATOM      6  C   UNL     1       3.230   5.516  18.799  0.00  0.00    +0.000 A 
ATOM      7  C   UNL     1       3.689   4.274  19.231  0.00  0.00    +0.000 A 
ATOM      8  C   UNL     1       5.055   4.106  19.408  0.00  0.00    +0.000 A 
ATOM      9  C   UNL     1       5.925   5.087  18.911  0.00  0.00    +0.000 A 
ATOM     10  C   UNL     1       7.304   5.202  19.498  0.00  0.00    +0.000 C 
ATOM     11  N   UNL     1       2.730   3.422  19.847  0.00  0.00    +0.000 N 
ATOM     12  C   UNL     1       1.706   2.944  18.983  0.00  0.00    +0.000 C 
ATOM     13  C   UNL     1       0.534   2.274  19.663  0.00  0.00    +0.000 C 
ATOM     14  O   UNL     1       1.717   3.050  17.758  0.00  0.00    +0.000 OA
ATOM     15  C   UNL     1       2.270   4.142  21.028  0.00  0.00    +0.000 C 
ATOM     16  C   UNL     1       1.693   5.516  20.602  0.00  0.00    +0.000 C 
ATOM     17  O   UNL     1       2.018   5.983  19.254  0.00  0.00    +0.000 OA
ENDBRANCH   1   4
BRANCH   1  18
ATOM     18  N   UNL     1       7.463   5.748  16.237  0.00  0.00    +0.000 N 
ATOM     19  H   UNL     1       8.220   5.408  16.822  0.00  0.00    +0.000 HD
BRANCH  18  23
ATOM     20  C   UNL     1       6.006   3.509  12.955  0.00  0.00    +0.000 A 
ATOM     21  C   UNL     1       5.582   3.239  14.266  0.00  0.00    +0.000 A 
ATOM     22  C   UNL     1       6.086   3.970  15.346  0.00  0.00    +0.000 A 
ATOM     23  C   UNL     1       7.037   4.961  15.135  0.00  0.00    +0.000 A 
ATOM     24  C   UNL     1       7.492   5.216  13.844  0.00  0.00    +0.000 A 
ATOM     25  C   UNL     1       6.992   4.489  12.745  0.00  0.00    +0.000 A 
BRANCH  20  27
ATOM     26  C   UNL     1       4.235   3.224  11.387  0.00  0.00    +0.000 C 
ATOM     27  O   UNL     1       5.508   2.818  11.883  0.00  0.00    +0.000 OA
ENDBRANCH  20  27
BRANCH  25  28
ATOM     28  O   UNL     1       7.541   4.901  11.556  0.00  0.00    +0.000 OA
ATOM     29  C   UNL     1       7.997   6.242  11.435  0.00  0.00    +0.000 C 
ENDBRANCH  25  28
ENDBRANCH  18  23
ENDBRANCH   1  18
TORSDOF 5
ENDMDL
MODEL 4
REMARK VINA RESULT:      -7.4      6.624      8.960
REMARK  Name = 
REMARK  9 active torsions:
REMARK  status: ('A' for Active; 'I' for Inactive)
REMARK    1  A    between atoms: C_1  and  O_2
REMARK    2  A    between atoms: O_2  and  C_3
REMARK    3  A    between atoms: C_6  and  N_7
REMARK    4  A    between atoms: N_7  and  S_8
REMARK    5  A    between atoms: S_8  and  C_11
REMARK    6  A    between atoms: C_16  and  C_17
REMARK    7  A    between atoms: C_19  and  C_20
REMARK    8  A    between atoms: C_26  and  O_27
REMARK    9  A    between atoms: O_27  and  C_28
REMARK                            x       y       z     vdW  Elec       q    Type
REMARK                         _______ _______ _______ _____ _____    ______ ____
ROOT
ATOM      1  S   UNL     1       7.388   5.328  17.851  0.00  0.00    +0.000 S 
ATOM      2  O   UNL     1       8.141   4.099  17.766  0.00  0.00    +0.000 OA
ATOM      3  O   UNL     1       7.807   6.407  18.721  0.00  0.00    +0.000 OA
ENDROOT
BRANCH   1   4
ATOM      4  C   UNL     1       5.710   4.894  18.270  0.00  0.00    +0.000 A 
ATOM      5  C   UNL     1       5.387   3.555  18.510  0.00  0.00    +0.000 A 
ATOM      6  C   UNL     1       4.098   3.276  18.934  0.00  0.00    +0.000 A 
ATOM      7  C   UNL     1       3.313   4.288  19.481  0.00  0.00    +0.000 A 
ATOM      8  C   UNL     1       3.540   5.591  19.062  0.00  0.00    +0.000 A 
ATOM      9  C   UNL     1       4.694   5.868  18.316  0.00  0.00    +0.000 A 
ATOM     10  C   UNL     1       4.723   7.095  17.447  0.00  0.00    +0.000 C 
ATOM     11  N   UNL     1       2.092   3.886  20.091  0.00  0.00    +0.000 N 
ATOM     12  C   UNL     1       2.238   3.112  21.276  0.00  0.00    +0.000 C 
ATOM     13  C   UNL     1       0.979   2.444  21.782  0.00  0.00    +0.000 C 
ATOM     14  O   UNL     1       3.295   2.954  21.885  0.00  0.00    +0.000 OA
ATOM     15  C   UNL     1       1.310   3.265  19.028  0.00  0.00    +0.000 C 
ATOM     16  C   UNL     1       2.113   2.089  18.417  0.00  0.00    +0.000 C 
ATOM     17  O   UNL     1       3.544   2.034  18.718  0.00  0.00    +0.000 OA
ENDBRANCH   1   4
BRANCH   1  18
ATOM     18  N   UNL     1       7.260   5.932  16.280  0.00  0.00    +0.000 N 
ATOM     19  H   UNL     1       7.738   6.810  16.101  0.00  0.00    +0.000 HD
BRANCH  18  23
ATOM     20  C   UNL     1       5.993   3.588  12.993  0.00  0.00    +0.000 A 
ATOM     21  C   UNL     1       5.483   3.369  14.282  0.00  0.00    +0.000 A 
ATOM     22  C   UNL     1       5.924   4.134  15.366  0.00  0.00    +0.000 A 
ATOM     23  C   UNL     1       6.897   5.109  15.182  0.00  0.00    +0.000 A 
ATOM     24  C   UNL     1       7.437   5.313  13.914  0.00  0.00    +0.000 A 
ATOM     25  C   UNL     1       7.000   4.552  12.812  0.00  0.00    +0.000 A 
BRANCH  20  27
ATOM     26  C   UNL     1       4.278   3.198  11.385  0.00  0.00    +0.000 C 
ATOM     27  O   UNL     1       5.557   2.863  11.916  0.00  0.00    +0.000 OA
ENDBRANCH  20  27
BRANCH  25  28
ATOM     28  O   UNL     1       7.629   4.916  11.647  0.00  0.00    +0.000 OA
ATOM     29  C   UNL     1       8.028   6.269  11.474  0.00  0.00    +0.000 C 
ENDBRANCH  25  28
ENDBRANCH  18  23
ENDBRANCH   1  18
TORSDOF 5
ENDMDL
MODEL 5
REMARK VINA RESULT:      -7.3      2.637      8.266
REMARK  Name = 
REMARK  9 active torsions:
REMARK  status: ('A' for Active; 'I' for Inactive)
REMARK    1  A    between atoms: C_1  and  O_2
REMARK    2  A    between atoms: O_2  and  C_3
REMARK    3  A    between atoms: C_6  and  N_7
REMARK    4  A    between atoms: N_7  and  S_8
REMARK    5  A    between atoms: S_8  and  C_11
REMARK    6  A    between atoms: C_16  and  C_17
REMARK    7  A    between atoms: C_19  and  C_20
REMARK    8  A    between atoms: C_26  and  O_27
REMARK    9  A    between atoms: O_27  and  C_28
REMARK                            x       y       z     vdW  Elec       q    Type
REMARK                         _______ _______ _______ _____ _____    ______ ____
ROOT
ATOM      1  S   UNL     1       1.386   9.400  18.088  0.00  0.00    +0.000 S 
ATOM      2  O   UNL     1       2.401  10.329  17.653  0.00  0.00    +0.000 OA
ATOM      3  O   UNL     1       0.533   8.720  17.137  0.00  0.00    +0.000 OA
ENDROOT
BRANCH   1   4
ATOM      4  C   UNL     1       0.346  10.259  19.255  0.00  0.00    +0.000 A 
ATOM      5  C   UNL     1       0.702  10.279  20.606  0.00  0.00    +0.000 A 
ATOM      6  C   UNL     1      -0.075  11.045  21.461  0.00  0.00    +0.000 A 
ATOM      7  C   UNL     1      -0.892  12.047  20.943  0.00  0.00    +0.000 A 
ATOM      8  C   UNL     1      -1.388  11.889  19.657  0.00  0.00    +0.000 A 
ATOM      9  C   UNL     1      -0.853  10.876  18.848  0.00  0.00    +0.000 A 
ATOM     10  C   UNL     1      -1.666  10.359  17.694  0.00  0.00    +0.000 C 
ATOM     11  N   UNL     1      -1.489  12.929  21.886  0.00  0.00    +0.000 N 
ATOM     12  C   UNL     1      -0.579  13.778  22.575  0.00  0.00    +0.000 C 
ATOM     13  C   UNL     1      -1.146  14.518  23.766  0.00  0.00    +0.000 C 
ATOM     14  O   UNL     1       0.603  13.932  22.272  0.00  0.00    +0.000 OA
ATOM     15  C   UNL     1      -2.327  12.088  22.732  0.00  0.00    +0.000 C 
ATOM     16  C   UNL     1      -1.458  10.984  23.384  0.00  0.00    +0.000 C 
ATOM     17  O   UNL     1      -0.134  10.753  22.804  0.00  0.00    +0.000 OA
ENDBRANCH   1   4
BRANCH   1  18
ATOM     18  N   UNL     1       2.161   8.235  19.033  0.00  0.00    +0.000 N 
ATOM     19  H   UNL     1       1.919   8.231  20.019  0.00  0.00    +0.000 HD
BRANCH  18  23
ATOM     20  C   UNL     1       4.130   4.833  17.467  0.00  0.00    +0.000 A 
ATOM     21  C   UNL     1       4.472   6.128  17.049  0.00  0.00    +0.000 A 
ATOM     22  C   UNL     1       3.801   7.245  17.555  0.00  0.00    +0.000 A 
ATOM     23  C   UNL     1       2.763   7.082  18.466  0.00  0.00    +0.000 A 
ATOM     24  C   UNL     1       2.391   5.800  18.863  0.00  0.00    +0.000 A 
ATOM     25  C   UNL     1       3.060   4.665  18.364  0.00  0.00    +0.000 A 
BRANCH  20  27
ATOM     26  C   UNL     1       5.700   3.929  15.920  0.00  0.00    +0.000 C 
ATOM     27  O   UNL     1       4.791   3.729  16.998  0.00  0.00    +0.000 OA
ENDBRANCH  20  27
BRANCH  25  28
ATOM     28  O   UNL     1       2.567   3.497  18.891  0.00  0.00    +0.000 OA
ATOM     29  C   UNL     1       1.199   3.172  18.684  0.00  0.00    +0.000 C 
ENDBRANCH  25  28
ENDBRANCH  18  23
ENDBRANCH   1  18
TORSDOF 5
ENDMDL
MODEL 6
REMARK VINA RESULT:      -7.3      2.669      8.247
REMARK  Name = 
REMARK  9 active torsions:
REMARK  status: ('A' for Active; 'I' for Inactive)
REMARK    1  A    between atoms: C_1  and  O_2
REMARK    2  A    between atoms: O_2  and  C_3
REMARK    3  A    between atoms: C_6  and  N_7
REMARK    4  A    between atoms: N_7  and  S_8
REMARK    5  A    between atoms: S_8  and  C_11
REMARK    6  A    between atoms: C_16  and  C_17
REMARK    7  A    between atoms: C_19  and  C_20
REMARK    8  A    between atoms: C_26  and  O_27
REMARK    9  A    between atoms: O_27  and  C_28
REMARK                            x       y       z     vdW  Elec       q    Type
REMARK                         _______ _______ _______ _____ _____    ______ ____
ROOT
ATOM      1  S   UNL     1       1.439   9.138  18.193  0.00  0.00    +0.000 S 
ATOM      2  O   UNL     1       2.425  10.027  17.626  0.00  0.00    +0.000 OA
ATOM      3  O   UNL     1       0.578   8.336  17.349  0.00  0.00    +0.000 OA
ENDROOT
BRANCH   1   4
ATOM      4  C   UNL     1       0.410  10.110  19.278  0.00  0.00    +0.000 A 
ATOM      5  C   UNL     1       0.718  10.174  20.640  0.00  0.00    +0.000 A 
ATOM      6  C   UNL     1      -0.043  11.022  21.427  0.00  0.00    +0.000 A 
ATOM      7  C   UNL     1      -0.781  12.043  20.833  0.00  0.00    +0.000 A 
ATOM      8  C   UNL     1      -1.239  11.852  19.537  0.00  0.00    +0.000 A 
ATOM      9  C   UNL     1      -0.735  10.774  18.797  0.00  0.00    +0.000 A 
ATOM     10  C   UNL     1      -1.535  10.249  17.637  0.00  0.00    +0.000 C 
ATOM     11  N   UNL     1      -1.359  13.002  21.711  0.00  0.00    +0.000 N 
ATOM     12  C   UNL     1      -0.426  13.830  22.396  0.00  0.00    +0.000 C 
ATOM     13  C   UNL     1      -0.992  14.657  23.529  0.00  0.00    +0.000 C 
ATOM     14  O   UNL     1       0.773  13.901  22.133  0.00  0.00    +0.000 OA
ATOM     15  C   UNL     1      -2.275  12.251  22.562  0.00  0.00    +0.000 C 
ATOM     16  C   UNL     1      -1.496  11.131  23.296  0.00  0.00    +0.000 C 
ATOM     17  O   UNL     1      -0.169  10.798  22.780  0.00  0.00    +0.000 OA
ENDBRANCH   1   4
BRANCH   1  18
ATOM     18  N   UNL     1       2.260   8.105  19.246  0.00  0.00    +0.000 N 
ATOM     19  H   UNL     1       2.115   8.275  20.237  0.00  0.00    +0.000 HD
BRANCH  18  23
ATOM     20  C   UNL     1       3.572   4.312  17.905  0.00  0.00    +0.000 A 
ATOM     21  C   UNL     1       2.697   4.436  18.994  0.00  0.00    +0.000 A 
ATOM     22  C   UNL     1       2.286   5.695  19.445  0.00  0.00    +0.000 A 
ATOM     23  C   UNL     1       2.764   6.845  18.829  0.00  0.00    +0.000 A 
ATOM     24  C   UNL     1       3.660   6.738  17.768  0.00  0.00    +0.000 A 
ATOM     25  C   UNL     1       4.081   5.477  17.302  0.00  0.00    +0.000 A 
BRANCH  20  27
ATOM     26  C   UNL     1       3.286   1.947  17.951  0.00  0.00    +0.000 C 
ATOM     27  O   UNL     1       3.968   3.088  17.437  0.00  0.00    +0.000 OA
ENDBRANCH  20  27
BRANCH  25  28
ATOM     28  O   UNL     1       4.941   5.577  16.238  0.00  0.00    +0.000 OA
ATOM     29  C   UNL     1       6.341   5.613  16.484  0.00  0.00    +0.000 C 
ENDBRANCH  25  28
ENDBRANCH  18  23
ENDBRANCH   1  18
TORSDOF 5
ENDMDL
MODEL 7
REMARK VINA RESULT:      -7.3      2.631      7.927
REMARK  Name = 
REMARK  9 active torsions:
REMARK  status: ('A' for Active; 'I' for Inactive)
REMARK    1  A    between atoms: C_1  and  O_2
REMARK    2  A    between atoms: O_2  and  C_3
REMARK    3  A    between atoms: C_6  and  N_7
REMARK    4  A    between atoms: N_7  and  S_8
REMARK    5  A    between atoms: S_8  and  C_11
REMARK    6  A    between atoms: C_16  and  C_17
REMARK    7  A    between atoms: C_19  and  C_20
REMARK    8  A    between atoms: C_26  and  O_27
REMARK    9  A    between atoms: O_27  and  C_28
REMARK                            x       y       z     vdW  Elec       q    Type
REMARK                         _______ _______ _______ _____ _____    ______ ____
ROOT
ATOM      1  S   UNL     1       1.485   9.217  18.229  0.00  0.00    +0.000 S 
ATOM      2  O   UNL     1       2.344  10.155  17.545  0.00  0.00    +0.000 OA
ATOM      3  O   UNL     1       0.659   8.282  17.495  0.00  0.00    +0.000 OA
ENDROOT
BRANCH   1   4
ATOM      4  C   UNL     1       0.431  10.159  19.316  0.00  0.00    +0.000 A 
ATOM      5  C   UNL     1       0.730  10.218  20.680  0.00  0.00    +0.000 A 
ATOM      6  C   UNL     1      -0.053  11.044  21.470  0.00  0.00    +0.000 A 
ATOM      7  C   UNL     1      -0.808  12.055  20.880  0.00  0.00    +0.000 A 
ATOM      8  C   UNL     1      -1.254  11.866  19.580  0.00  0.00    +0.000 A 
ATOM      9  C   UNL     1      -0.725  10.804  18.834  0.00  0.00    +0.000 A 
ATOM     10  C   UNL     1      -1.507  10.273  17.665  0.00  0.00    +0.000 C 
ATOM     11  N   UNL     1      -1.410  12.995  21.763  0.00  0.00    +0.000 N 
ATOM     12  C   UNL     1      -0.498  13.835  22.460  0.00  0.00    +0.000 C 
ATOM     13  C   UNL     1      -1.087  14.641  23.596  0.00  0.00    +0.000 C 
ATOM     14  O   UNL     1       0.701  13.933  22.204  0.00  0.00    +0.000 OA
ATOM     15  C   UNL     1      -2.316  12.219  22.602  0.00  0.00    +0.000 C 
ATOM     16  C   UNL     1      -1.518  11.109  23.332  0.00  0.00    +0.000 C 
ATOM     17  O   UNL     1      -0.181  10.806  22.820  0.00  0.00    +0.000 OA
ENDBRANCH   1   4
BRANCH   1  18
ATOM     18  N   UNL     1       2.464   8.341  19.289  0.00  0.00    +0.000 N 
ATOM     19  H   UNL     1       2.852   8.863  20.069  0.00  0.00    +0.000 HD
BRANCH  18  23
ATOM     20  C   UNL     1       2.128   4.126  19.439  0.00  0.00    +0.000 A 
ATOM     21  C   UNL     1       1.574   4.936  20.442  0.00  0.00    +0.000 A 
ATOM     22  C   UNL     1       1.710   6.327  20.395  0.00  0.00    +0.000 A 
ATOM     23  C   UNL     1       2.420   6.924  19.361  0.00  0.00    +0.000 A 
ATOM     24  C   UNL     1       3.004   6.130  18.378  0.00  0.00    +0.000 A 
ATOM     25  C   UNL     1       2.874   4.727  18.410  0.00  0.00    +0.000 A 
BRANCH  20  27
ATOM     26  C   UNL     1       0.847   2.222  18.794  0.00  0.00    +0.000 C 
ATOM     27  O   UNL     1       1.987   2.764  19.456  0.00  0.00    +0.000 OA
ENDBRANCH  20  27
BRANCH  25  28
ATOM     28  O   UNL     1       3.495   4.123  17.345  0.00  0.00    +0.000 OA
ATOM     29  C   UNL     1       4.611   4.765  16.743  0.00  0.00    +0.000 C 
ENDBRANCH  25  28
ENDBRANCH  18  23
ENDBRANCH   1  18
TORSDOF 5
ENDMDL
MODEL 8
REMARK VINA RESULT:      -7.3      2.663      8.222
REMARK  Name = 
REMARK  9 active torsions:
REMARK  status: ('A' for Active; 'I' for Inactive)
REMARK    1  A    between atoms: C_1  and  O_2
REMARK    2  A    between atoms: O_2  and  C_3
REMARK    3  A    between atoms: C_6  and  N_7
REMARK    4  A    between atoms: N_7  and  S_8
REMARK    5  A    between atoms: S_8  and  C_11
REMARK    6  A    between atoms: C_16  and  C_17
REMARK    7  A    between atoms: C_19  and  C_20
REMARK    8  A    between atoms: C_26  and  O_27
REMARK    9  A    between atoms: O_27  and  C_28
REMARK                            x       y       z     vdW  Elec       q    Type
REMARK                         _______ _______ _______ _____ _____    ______ ____
ROOT
ATOM      1  S   UNL     1       1.480   9.199  18.208  0.00  0.00    +0.000 S 
ATOM      2  O   UNL     1       2.448  10.112  17.650  0.00  0.00    +0.000 OA
ATOM      3  O   UNL     1       0.633   8.390  17.358  0.00  0.00    +0.000 OA
ENDROOT
BRANCH   1   4
ATOM      4  C   UNL     1       0.433  10.141  19.303  0.00  0.00    +0.000 A 
ATOM      5  C   UNL     1       0.739  10.195  20.666  0.00  0.00    +0.000 A 
ATOM      6  C   UNL     1      -0.038  11.021  21.462  0.00  0.00    +0.000 A 
ATOM      7  C   UNL     1      -0.794  12.035  20.879  0.00  0.00    +0.000 A 
ATOM      8  C   UNL     1      -1.247  11.851  19.581  0.00  0.00    +0.000 A 
ATOM      9  C   UNL     1      -0.723  10.789  18.829  0.00  0.00    +0.000 A 
ATOM     10  C   UNL     1      -1.513  10.263  17.662  0.00  0.00    +0.000 C 
ATOM     11  N   UNL     1      -1.389  12.974  21.767  0.00  0.00    +0.000 N 
ATOM     12  C   UNL     1      -0.471  13.811  22.462  0.00  0.00    +0.000 C 
ATOM     13  C   UNL     1      -1.052  14.615  23.603  0.00  0.00    +0.000 C 
ATOM     14  O   UNL     1       0.727  13.906  22.200  0.00  0.00    +0.000 OA
ATOM     15  C   UNL     1      -2.292  12.198  22.608  0.00  0.00    +0.000 C 
ATOM     16  C   UNL     1      -1.493  11.084  23.331  0.00  0.00    +0.000 C 
ATOM     17  O   UNL     1      -0.160  10.780  22.812  0.00  0.00    +0.000 OA
ENDBRANCH   1   4
BRANCH   1  18
ATOM     18  N   UNL     1       2.321   8.172  19.251  0.00  0.00    +0.000 N 
ATOM     19  H   UNL     1       2.499   8.535  20.183  0.00  0.00    +0.000 HD
BRANCH  18  23
ATOM     20  C   UNL     1       2.772   4.006  18.665  0.00  0.00    +0.000 A 
ATOM     21  C   UNL     1       3.350   4.932  17.783  0.00  0.00    +0.000 A 
ATOM     22  C   UNL     1       3.177   6.306  17.972  0.00  0.00    +0.000 A 
ATOM     23  C   UNL     1       2.404   6.773  19.028  0.00  0.00    +0.000 A 
ATOM     24  C   UNL     1       1.796   5.865  19.892  0.00  0.00    +0.000 A 
ATOM     25  C   UNL     1       1.964   4.477  19.715  0.00  0.00    +0.000 A 
BRANCH  20  27
ATOM     26  C   UNL     1       4.082   2.074  19.144  0.00  0.00    +0.000 C 
ATOM     27  O   UNL     1       2.948   2.657  18.507  0.00  0.00    +0.000 OA
ENDBRANCH  20  27
BRANCH  25  28
ATOM     28  O   UNL     1       1.310   3.748  20.677  0.00  0.00    +0.000 OA
ATOM     29  C   UNL     1       2.036   3.302  21.815  0.00  0.00    +0.000 C 
ENDBRANCH  25  28
ENDBRANCH  18  23
ENDBRANCH   1  18
TORSDOF 5
ENDMDL
MODEL 9
REMARK VINA RESULT:      -7.1      5.442      8.932
REMARK  Name = 
REMARK  9 active torsions:
REMARK  status: ('A' for Active; 'I' for Inactive)
REMARK    1  A    between atoms: C_1  and  O_2
REMARK    2  A    between atoms: O_2  and  C_3
REMARK    3  A    between atoms: C_6  and  N_7
REMARK    4  A    between atoms: N_7  and  S_8
REMARK    5  A    between atoms: S_8  and  C_11
REMARK    6  A    between atoms: C_16  and  C_17
REMARK    7  A    between atoms: C_19  and  C_20
REMARK    8  A    between atoms: C_26  and  O_27
REMARK    9  A    between atoms: O_27  and  C_28
REMARK                            x       y       z     vdW  Elec       q    Type
REMARK                         _______ _______ _______ _____ _____    ______ ____
ROOT
ATOM      1  S   UNL     1       5.422   6.603  16.628  0.00  0.00    +0.000 S 
ATOM      2  O   UNL     1       6.222   7.399  17.528  0.00  0.00    +0.000 OA
ATOM      3  O   UNL     1       4.848   7.174  15.428  0.00  0.00    +0.000 OA
ENDROOT
BRANCH   1   4
ATOM      4  C   UNL     1       4.103   5.881  17.587  0.00  0.00    +0.000 A 
ATOM      5  C   UNL     1       3.965   4.491  17.626  0.00  0.00    +0.000 A 
ATOM      6  C   UNL     1       2.994   3.969  18.466  0.00  0.00    +0.000 A 
ATOM      7  C   UNL     1       2.482   4.747  19.501  0.00  0.00    +0.000 A 
ATOM      8  C   UNL     1       2.458   6.124  19.335  0.00  0.00    +0.000 A 
ATOM      9  C   UNL     1       3.169   6.687  18.266  0.00  0.00    +0.000 A 
ATOM     10  C   UNL     1       2.776   8.049  17.766  0.00  0.00    +0.000 C 
ATOM     11  N   UNL     1       1.657   4.079  20.449  0.00  0.00    +0.000 N 
ATOM     12  C   UNL     1       2.326   3.120  21.259  0.00  0.00    +0.000 C 
ATOM     13  C   UNL     1       1.432   2.209  22.070  0.00  0.00    +0.000 C 
ATOM     14  O   UNL     1       3.547   2.990  21.327  0.00  0.00    +0.000 OA
ATOM     15  C   UNL     1       0.519   3.575  19.689  0.00  0.00    +0.000 C 
ATOM     16  C   UNL     1       1.026   2.652  18.552  0.00  0.00    +0.000 C 
ATOM     17  O   UNL     1       2.449   2.729  18.219  0.00  0.00    +0.000 OA
ENDBRANCH   1   4
BRANCH   1  18
ATOM     18  N   UNL     1       6.363   5.273  16.185  0.00  0.00    +0.000 N 
ATOM     19  H   UNL     1       6.561   4.604  16.923  0.00  0.00    +0.000 HD
BRANCH  18  23
ATOM     20  C   UNL     1       6.951   3.924  12.217  0.00  0.00    +0.000 A 
ATOM     21  C   UNL     1       7.896   4.742  12.856  0.00  0.00    +0.000 A 
ATOM     22  C   UNL     1       7.683   5.201  14.159  0.00  0.00    +0.000 A 
ATOM     23  C   UNL     1       6.512   4.871  14.832  0.00  0.00    +0.000 A 
ATOM     24  C   UNL     1       5.550   4.088  14.198  0.00  0.00    +0.000 A 
ATOM     25  C   UNL     1       5.752   3.616  12.886  0.00  0.00    +0.000 A 
BRANCH  20  27
ATOM     26  C   UNL     1       7.563   2.088  10.827  0.00  0.00    +0.000 C 
ATOM     27  O   UNL     1       7.153   3.448  10.950  0.00  0.00    +0.000 OA
ENDBRANCH  20  27
BRANCH  25  28
ATOM     28  O   UNL     1       4.707   2.844  12.445  0.00  0.00    +0.000 OA
ATOM     29  C   UNL     1       4.004   3.239  11.274  0.00  0.00    +0.000 C 
ENDBRANCH  25  28
ENDBRANCH  18  23
ENDBRANCH   1  18
TORSDOF 5
ENDMDL
