MODEL 1
REMARK VINA RESULT:      -4.5      0.000      0.000
REMARK  Name = 
REMARK  0 active torsions:
REMARK  status: ('A' for Active; 'I' for Inactive)
REMARK                            x       y       z     vdW  Elec       q    Type
REMARK                         _______ _______ _______ _____ _____    ______ ____
ROOT
ATOM      1 CL   UNL     1       6.387   3.858  14.450  0.00  0.00    +0.000 Cl
ATOM      2  C   UNL     1       6.007   4.290  16.071  0.00  0.00    +0.000 A 
ATOM      3  C   UNL     1       4.695   4.173  16.527  0.00  0.00    +0.000 A 
ATOM      4  C   UNL     1       4.394   4.531  17.840  0.00  0.00    +0.000 A 
ATOM      5 CL   UNL     1       2.778   4.382  18.412  0.00  0.00    +0.000 Cl
ATOM      6  C   UNL     1       5.389   5.004  18.693  0.00  0.00    +0.000 A 
ATOM      7  C   UNL     1       6.696   5.110  18.225  0.00  0.00    +0.000 A 
ATOM      8 CL   UNL     1       7.933   5.686  19.274  0.00  0.00    +0.000 Cl
ATOM      9  C   UNL     1       7.015   4.753  16.915  0.00  0.00    +0.000 A 
ENDROOT
TORSDOF 0
ENDMDL
MODEL 2
REMARK VINA RESULT:      -4.5      0.137      3.672
REMARK  Name = 
REMARK  0 active torsions:
REMARK  status: ('A' for Active; 'I' for Inactive)
REMARK                            x       y       z     vdW  Elec       q    Type
REMARK                         _______ _______ _______ _____ _____    ______ ____
ROOT
ATOM      1 CL   UNL     1       7.993   5.632  19.192  0.00  0.00    +0.000 Cl
ATOM      2  C   UNL     1       6.751   5.033  18.163  0.00  0.00    +0.000 A 
ATOM      3  C   UNL     1       7.043   4.727  16.835  0.00  0.00    +0.000 A 
ATOM      4  C   UNL     1       6.031   4.248  16.007  0.00  0.00    +0.000 A 
ATOM      5 CL   UNL     1       6.385   3.861  14.368  0.00  0.00    +0.000 Cl
ATOM      6  C   UNL     1       4.736   4.077  16.493  0.00  0.00    +0.000 A 
ATOM      7  C   UNL     1       4.461   4.381  17.824  0.00  0.00    +0.000 A 
ATOM      8 CL   UNL     1       2.867   4.165  18.435  0.00  0.00    +0.000 Cl
ATOM      9  C   UNL     1       5.464   4.858  18.667  0.00  0.00    +0.000 A 
ENDROOT
TORSDOF 0
ENDMDL
MODEL 3
REMARK VINA RESULT:      -4.5      0.157      3.009
REMARK  Name = 
REMARK  0 active torsions:
REMARK  status: ('A' for Active; 'I' for Inactive)
REMARK                            x       y       z     vdW  Elec       q    Type
REMARK                         _______ _______ _______ _____ _____    ______ ____
ROOT
ATOM      1 CL   UNL     1       6.456   3.891  14.354  0.00  0.00    +0.000 Cl
ATOM      2  C   UNL     1       6.068   4.260  15.989  0.00  0.00    +0.000 A 
ATOM      3  C   UNL     1       7.058   4.750  16.839  0.00  0.00    +0.000 A 
ATOM      4  C   UNL     1       6.738   5.040  18.164  0.00  0.00    +0.000 A 
ATOM      5 CL   UNL     1       7.952   5.653  19.217  0.00  0.00    +0.000 Cl
ATOM      6  C   UNL     1       5.444   4.842  18.641  0.00  0.00    +0.000 A 
ATOM      7  C   UNL     1       4.464   4.357  17.779  0.00  0.00    +0.000 A 
ATOM      8 CL   UNL     1       2.862   4.117  18.358  0.00  0.00    +0.000 Cl
ATOM      9  C   UNL     1       4.767   4.066  16.450  0.00  0.00    +0.000 A 
ENDROOT
TORSDOF 0
ENDMDL
MODEL 4
REMARK VINA RESULT:      -4.5      0.326      3.702
REMARK  Name = 
REMARK  0 active torsions:
REMARK  status: ('A' for Active; 'I' for Inactive)
REMARK                            x       y       z     vdW  Elec       q    Type
REMARK                         _______ _______ _______ _____ _____    ______ ____
ROOT
ATOM      1 CL   UNL     1       3.028   3.769  18.632  0.00  0.00    +0.000 Cl
ATOM      2  C   UNL     1       4.568   4.145  17.964  0.00  0.00    +0.000 A 
ATOM      3  C   UNL     1       5.552   4.709  18.773  0.00  0.00    +0.000 A 
ATOM      4  C   UNL     1       6.795   5.017  18.223  0.00  0.00    +0.000 A 
ATOM      5 CL   UNL     1       8.018   5.707  19.217  0.00  0.00    +0.000 Cl
ATOM      6  C   UNL     1       7.057   4.768  16.877  0.00  0.00    +0.000 A 
ATOM      7  C   UNL     1       6.065   4.198  16.082  0.00  0.00    +0.000 A 
ATOM      8 CL   UNL     1       6.383   3.880  14.421  0.00  0.00    +0.000 Cl
ATOM      9  C   UNL     1       4.818   3.881  16.618  0.00  0.00    +0.000 A 
ENDROOT
TORSDOF 0
ENDMDL
MODEL 5
REMARK VINA RESULT:      -4.5      0.154      3.009
REMARK  Name = 
REMARK  0 active torsions:
REMARK  status: ('A' for Active; 'I' for Inactive)
REMARK                            x       y       z     vdW  Elec       q    Type
REMARK                         _______ _______ _______ _____ _____    ______ ____
ROOT
ATOM      1 CL   UNL     1       7.926   5.722  19.310  0.00  0.00    +0.000 Cl
ATOM      2  C   UNL     1       6.698   5.187  18.230  0.00  0.00    +0.000 A 
ATOM      3  C   UNL     1       5.370   5.159  18.656  0.00  0.00    +0.000 A 
ATOM      4  C   UNL     1       4.382   4.719  17.778  0.00  0.00    +0.000 A 
ATOM      5 CL   UNL     1       2.741   4.688  18.292  0.00  0.00    +0.000 Cl
ATOM      6  C   UNL     1       4.710   4.307  16.488  0.00  0.00    +0.000 A 
ATOM      7  C   UNL     1       6.040   4.346  16.076  0.00  0.00    +0.000 A 
ATOM      8 CL   UNL     1       6.452   3.847  14.481  0.00  0.00    +0.000 Cl
ATOM      9  C   UNL     1       7.040   4.788  16.940  0.00  0.00    +0.000 A 
ENDROOT
TORSDOF 0
ENDMDL
MODEL 6
REMARK VINA RESULT:      -4.5      2.504      3.863
REMARK  Name = 
REMARK  0 active torsions:
REMARK  status: ('A' for Active; 'I' for Inactive)
REMARK                            x       y       z     vdW  Elec       q    Type
REMARK                         _______ _______ _______ _____ _____    ______ ____
ROOT
ATOM      1 CL   UNL     1       2.570   7.487  18.574  0.00  0.00    +0.000 Cl
ATOM      2  C   UNL     1       2.842   5.852  18.114  0.00  0.00    +0.000 A 
ATOM      3  C   UNL     1       1.938   4.866  18.506  0.00  0.00    +0.000 A 
ATOM      4  C   UNL     1       2.169   3.543  18.134  0.00  0.00    +0.000 A 
ATOM      5 CL   UNL     1       1.053   2.321  18.607  0.00  0.00    +0.000 Cl
ATOM      6  C   UNL     1       3.291   3.201  17.382  0.00  0.00    +0.000 A 
ATOM      7  C   UNL     1       4.182   4.199  16.994  0.00  0.00    +0.000 A 
ATOM      8 CL   UNL     1       5.566   3.787  16.058  0.00  0.00    +0.000 Cl
ATOM      9  C   UNL     1       3.964   5.528  17.354  0.00  0.00    +0.000 A 
ENDROOT
TORSDOF 0
ENDMDL
MODEL 7
REMARK VINA RESULT:      -4.5      2.470      4.260
REMARK  Name = 
REMARK  0 active torsions:
REMARK  status: ('A' for Active; 'I' for Inactive)
REMARK                            x       y       z     vdW  Elec       q    Type
REMARK                         _______ _______ _______ _____ _____    ______ ____
ROOT
ATOM      1 CL   UNL     1       1.078   2.401  18.593  0.00  0.00    +0.000 Cl
ATOM      2  C   UNL     1       2.209   3.595  18.089  0.00  0.00    +0.000 A 
ATOM      3  C   UNL     1       3.329   3.215  17.351  0.00  0.00    +0.000 A 
ATOM      4  C   UNL     1       4.244   4.187  16.952  0.00  0.00    +0.000 A 
ATOM      5 CL   UNL     1       5.626   3.728  16.034  0.00  0.00    +0.000 Cl
ATOM      6  C   UNL     1       4.049   5.526  17.285  0.00  0.00    +0.000 A 
ATOM      7  C   UNL     1       2.922   5.891  18.017  0.00  0.00    +0.000 A 
ATOM      8 CL   UNL     1       2.669   7.543  18.426  0.00  0.00    +0.000 Cl
ATOM      9  C   UNL     1       1.995   4.931  18.421  0.00  0.00    +0.000 A 
ENDROOT
TORSDOF 0
ENDMDL
MODEL 8
REMARK VINA RESULT:      -4.5      0.278      3.010
REMARK  Name = 
REMARK  0 active torsions:
REMARK  status: ('A' for Active; 'I' for Inactive)
REMARK                            x       y       z     vdW  Elec       q    Type
REMARK                         _______ _______ _______ _____ _____    ______ ____
ROOT
ATOM      1 CL   UNL     1       2.949   3.927  18.294  0.00  0.00    +0.000 Cl
ATOM      2  C   UNL     1       4.530   4.262  17.704  0.00  0.00    +0.000 A 
ATOM      3  C   UNL     1       4.836   4.004  16.369  0.00  0.00    +0.000 A 
ATOM      4  C   UNL     1       6.120   4.272  15.900  0.00  0.00    +0.000 A 
ATOM      5 CL   UNL     1       6.505   3.964  14.251  0.00  0.00    +0.000 Cl
ATOM      6  C   UNL     1       7.094   4.791  16.751  0.00  0.00    +0.000 A 
ATOM      7  C   UNL     1       6.771   5.049  18.081  0.00  0.00    +0.000 A 
ATOM      8 CL   UNL     1       7.965   5.697  19.137  0.00  0.00    +0.000 Cl
ATOM      9  C   UNL     1       5.490   4.790  18.565  0.00  0.00    +0.000 A 
ENDROOT
TORSDOF 0
ENDMDL
MODEL 9
REMARK VINA RESULT:      -4.5      2.501      4.692
REMARK  Name = 
REMARK  0 active torsions:
REMARK  status: ('A' for Active; 'I' for Inactive)
REMARK                            x       y       z     vdW  Elec       q    Type
REMARK                         _______ _______ _______ _____ _____    ______ ____
ROOT
ATOM      1 CL   UNL     1       2.592   7.516  18.517  0.00  0.00    +0.000 Cl
ATOM      2  C   UNL     1       2.855   5.871  18.084  0.00  0.00    +0.000 A 
ATOM      3  C   UNL     1       3.980   5.525  17.338  0.00  0.00    +0.000 A 
ATOM      4  C   UNL     1       4.183   4.193  16.987  0.00  0.00    +0.000 A 
ATOM      5 CL   UNL     1       5.573   3.756  16.072  0.00  0.00    +0.000 Cl
ATOM      6  C   UNL     1       3.272   3.210  17.372  0.00  0.00    +0.000 A 
ATOM      7  C   UNL     1       2.156   3.571  18.122  0.00  0.00    +0.000 A 
ATOM      8 CL   UNL     1       1.031   2.363  18.609  0.00  0.00    +0.000 Cl
ATOM      9  C   UNL     1       1.941   4.899  18.485  0.00  0.00    +0.000 A 
ENDROOT
TORSDOF 0
ENDMDL
