MODEL 1
REMARK VINA RESULT:      -7.6      0.000      0.000
REMARK  Name = 
REMARK  1 active torsions:
REMARK  status: ('A' for Active; 'I' for Inactive)
REMARK    1  A    between atoms: C_4  and  C_5
REMARK                            x       y       z     vdW  Elec       q    Type
REMARK                         _______ _______ _______ _____ _____    ______ ____
ROOT
ATOM      1  C   UNL     1       4.345   4.561  16.817  0.00  0.00    +0.000 C 
ATOM      2  N   UNL     1       4.128   5.744  17.338  0.00  0.00    +0.000 NA
ATOM      3  C   UNL     1       3.214   5.824  18.406  0.00  0.00    +0.000 A 
ATOM      4  C   UNL     1       2.910   7.079  18.939  0.00  0.00    +0.000 A 
ATOM      5  C   UNL     1       2.043   7.196  20.025  0.00  0.00    +0.000 A 
ATOM      6  C   UNL     1       1.474   6.056  20.596  0.00  0.00    +0.000 A 
ATOM      7  C   UNL     1       1.758   4.782  20.073  0.00  0.00    +0.000 A 
ATOM      8  C   UNL     1       1.213   3.608  20.615  0.00  0.00    +0.000 A 
ATOM      9  C   UNL     1       1.518   2.364  20.054  0.00  0.00    +0.000 A 
ATOM     10  C   UNL     1       2.353   2.279  18.937  0.00  0.00    +0.000 A 
ATOM     11  C   UNL     1       2.910   3.435  18.389  0.00  0.00    +0.000 A 
ATOM     12  C   UNL     1       2.621   4.682  18.964  0.00  0.00    +0.000 A 
ATOM     13  N   UNL     1       3.714   3.407  17.245  0.00  0.00    +0.000 N 
ATOM     14  H   UNL     1       4.016   2.523  16.865  0.00  0.00    +0.000 HD
ENDROOT
BRANCH   1  18
ATOM     15  C   UNL     1       6.519   4.245  13.868  0.00  0.00    +0.000 A 
ATOM     16  C   UNL     1       7.260   4.932  14.800  0.00  0.00    +0.000 A 
ATOM     17  O   UNL     1       6.535   5.140  15.931  0.00  0.00    +0.000 OA
ATOM     18  C   UNL     1       5.322   4.530  15.743  0.00  0.00    +0.000 A 
ATOM     19  C   UNL     1       5.273   3.979  14.477  0.00  0.00    +0.000 A 
ENDBRANCH   1  18
TORSDOF 1
ENDMDL
MODEL 2
REMARK VINA RESULT:      -7.5      0.738      2.824
REMARK  Name = 
REMARK  1 active torsions:
REMARK  status: ('A' for Active; 'I' for Inactive)
REMARK    1  A    between atoms: C_4  and  C_5
REMARK                            x       y       z     vdW  Elec       q    Type
REMARK                         _______ _______ _______ _____ _____    ______ ____
ROOT
ATOM      1  C   UNL     1       4.594   4.554  16.857  0.00  0.00    +0.000 C 
ATOM      2  N   UNL     1       3.987   3.409  17.053  0.00  0.00    +0.000 NA
ATOM      3  C   UNL     1       3.038   3.347  18.092  0.00  0.00    +0.000 A 
ATOM      4  C   UNL     1       2.424   2.124  18.370  0.00  0.00    +0.000 A 
ATOM      5  C   UNL     1       1.448   2.031  19.362  0.00  0.00    +0.000 A 
ATOM      6  C   UNL     1       1.069   3.165  20.084  0.00  0.00    +0.000 A 
ATOM      7  C   UNL     1       1.678   4.406  19.828  0.00  0.00    +0.000 A 
ATOM      8  C   UNL     1       1.330   5.573  20.525  0.00  0.00    +0.000 A 
ATOM      9  C   UNL     1       1.971   6.783  20.242  0.00  0.00    +0.000 A 
ATOM     10  C   UNL     1       2.979   6.838  19.275  0.00  0.00    +0.000 A 
ATOM     11  C   UNL     1       3.334   5.690  18.567  0.00  0.00    +0.000 A 
ATOM     12  C   UNL     1       2.677   4.479  18.836  0.00  0.00    +0.000 A 
ATOM     13  N   UNL     1       4.366   5.683  17.623  0.00  0.00    +0.000 N 
ATOM     14  H   UNL     1       4.792   6.553  17.340  0.00  0.00    +0.000 HD
ENDROOT
BRANCH   1  18
ATOM     15  C   UNL     1       7.241   4.847  14.322  0.00  0.00    +0.000 A 
ATOM     16  C   UNL     1       6.231   4.135  13.719  0.00  0.00    +0.000 A 
ATOM     17  O   UNL     1       5.203   3.933  14.586  0.00  0.00    +0.000 OA
ATOM     18  C   UNL     1       5.535   4.572  15.752  0.00  0.00    +0.000 A 
ATOM     19  C   UNL     1       6.790   5.136  15.629  0.00  0.00    +0.000 A 
ENDBRANCH   1  18
TORSDOF 1
ENDMDL
MODEL 3
REMARK VINA RESULT:      -7.5      0.953      1.144
REMARK  Name = 
REMARK  1 active torsions:
REMARK  status: ('A' for Active; 'I' for Inactive)
REMARK    1  A    between atoms: C_4  and  C_5
REMARK                            x       y       z     vdW  Elec       q    Type
REMARK                         _______ _______ _______ _____ _____    ______ ____
ROOT
ATOM      1  C   UNL     1       4.718   4.647  16.954  0.00  0.00    +0.000 C 
ATOM      2  N   UNL     1       4.224   5.833  17.210  0.00  0.00    +0.000 NA
ATOM      3  C   UNL     1       3.387   5.959  18.337  0.00  0.00    +0.000 A 
ATOM      4  C   UNL     1       2.791   7.194  18.598  0.00  0.00    +0.000 A 
ATOM      5  C   UNL     1       1.991   7.369  19.726  0.00  0.00    +0.000 A 
ATOM      6  C   UNL     1       1.784   6.311  20.613  0.00  0.00    +0.000 A 
ATOM      7  C   UNL     1       2.367   5.055  20.368  0.00  0.00    +0.000 A 
ATOM      8  C   UNL     1       2.190   3.962  21.230  0.00  0.00    +0.000 A 
ATOM      9  C   UNL     1       2.783   2.729  20.939  0.00  0.00    +0.000 A 
ATOM     10  C   UNL     1       3.542   2.568  19.777  0.00  0.00    +0.000 A 
ATOM     11  C   UNL     1       3.734   3.645  18.911  0.00  0.00    +0.000 A 
ATOM     12  C   UNL     1       3.157   4.888  19.213  0.00  0.00    +0.000 A 
ATOM     13  N   UNL     1       4.446   3.523  17.713  0.00  0.00    +0.000 N 
ATOM     14  H   UNL     1       4.951   2.673  17.514  0.00  0.00    +0.000 HD
ENDROOT
BRANCH   1  18
ATOM     15  C   UNL     1       7.241   4.728  14.280  0.00  0.00    +0.000 A 
ATOM     16  C   UNL     1       6.172   4.040  13.757  0.00  0.00    +0.000 A 
ATOM     17  O   UNL     1       5.182   3.916  14.682  0.00  0.00    +0.000 OA
ATOM     18  C   UNL     1       5.602   4.582  15.803  0.00  0.00    +0.000 A 
ATOM     19  C   UNL     1       6.871   5.085  15.596  0.00  0.00    +0.000 A 
ENDBRANCH   1  18
TORSDOF 1
ENDMDL
MODEL 4
REMARK VINA RESULT:      -7.4      1.039      1.051
REMARK  Name = 
REMARK  1 active torsions:
REMARK  status: ('A' for Active; 'I' for Inactive)
REMARK    1  A    between atoms: C_4  and  C_5
REMARK                            x       y       z     vdW  Elec       q    Type
REMARK                         _______ _______ _______ _____ _____    ______ ____
ROOT
ATOM      1  C   UNL     1       4.950   4.599  16.318  0.00  0.00    +0.000 C 
ATOM      2  N   UNL     1       4.464   5.782  16.606  0.00  0.00    +0.000 NA
ATOM      3  C   UNL     1       3.685   5.896  17.775  0.00  0.00    +0.000 A 
ATOM      4  C   UNL     1       3.097   7.126  18.074  0.00  0.00    +0.000 A 
ATOM      5  C   UNL     1       2.355   7.291  19.243  0.00  0.00    +0.000 A 
ATOM      6  C   UNL     1       2.198   6.225  20.132  0.00  0.00    +0.000 A 
ATOM      7  C   UNL     1       2.773   4.973  19.849  0.00  0.00    +0.000 A 
ATOM      8  C   UNL     1       2.645   3.874  20.712  0.00  0.00    +0.000 A 
ATOM      9  C   UNL     1       3.227   2.646  20.382  0.00  0.00    +0.000 A 
ATOM     10  C   UNL     1       3.927   2.496  19.182  0.00  0.00    +0.000 A 
ATOM     11  C   UNL     1       4.071   3.580  18.315  0.00  0.00    +0.000 A 
ATOM     12  C   UNL     1       3.504   4.818  18.654  0.00  0.00    +0.000 A 
ATOM     13  N   UNL     1       4.721   3.470  17.082  0.00  0.00    +0.000 N 
ATOM     14  H   UNL     1       5.219   2.622  16.851  0.00  0.00    +0.000 HD
ENDROOT
BRANCH   1  18
ATOM     15  C   UNL     1       6.743   4.166  13.137  0.00  0.00    +0.000 A 
ATOM     16  C   UNL     1       7.501   5.048  13.870  0.00  0.00    +0.000 A 
ATOM     17  O   UNL     1       6.908   5.312  15.065  0.00  0.00    +0.000 OA
ATOM     18  C   UNL     1       5.774   4.546  15.123  0.00  0.00    +0.000 A 
ATOM     19  C   UNL     1       5.634   3.836  13.947  0.00  0.00    +0.000 A 
ENDBRANCH   1  18
TORSDOF 1
ENDMDL
MODEL 5
REMARK VINA RESULT:      -7.3      0.990      2.846
REMARK  Name = 
REMARK  1 active torsions:
REMARK  status: ('A' for Active; 'I' for Inactive)
REMARK    1  A    between atoms: C_4  and  C_5
REMARK                            x       y       z     vdW  Elec       q    Type
REMARK                         _______ _______ _______ _____ _____    ______ ____
ROOT
ATOM      1  C   UNL     1       4.758   4.884  17.259  0.00  0.00    +0.000 C 
ATOM      2  N   UNL     1       4.573   3.780  17.941  0.00  0.00    +0.000 NA
ATOM      3  C   UNL     1       3.756   3.855  19.087  0.00  0.00    +0.000 A 
ATOM      4  C   UNL     1       3.593   2.712  19.872  0.00  0.00    +0.000 A 
ATOM      5  C   UNL     1       2.759   2.734  20.990  0.00  0.00    +0.000 A 
ATOM      6  C   UNL     1       2.070   3.901  21.330  0.00  0.00    +0.000 A 
ATOM      7  C   UNL     1       2.224   5.067  20.559  0.00  0.00    +0.000 A 
ATOM      8  C   UNL     1       1.552   6.261  20.860  0.00  0.00    +0.000 A 
ATOM      9  C   UNL     1       1.745   7.398  20.069  0.00  0.00    +0.000 A 
ATOM     10  C   UNL     1       2.622   7.362  18.982  0.00  0.00    +0.000 A 
ATOM     11  C   UNL     1       3.294   6.181  18.663  0.00  0.00    +0.000 A 
ATOM     12  C   UNL     1       3.086   5.034  19.445  0.00  0.00    +0.000 A 
ATOM     13  N   UNL     1       4.216   6.105  17.615  0.00  0.00    +0.000 N 
ATOM     14  H   UNL     1       4.318   6.882  16.979  0.00  0.00    +0.000 HD
ENDROOT
BRANCH   1  18
ATOM     15  C   UNL     1       7.143   4.767  14.462  0.00  0.00    +0.000 A 
ATOM     16  C   UNL     1       6.022   4.106  14.019  0.00  0.00    +0.000 A 
ATOM     17  O   UNL     1       5.077   4.056  14.995  0.00  0.00    +0.000 OA
ATOM     18  C   UNL     1       5.579   4.742  16.069  0.00  0.00    +0.000 A 
ATOM     19  C   UNL     1       6.855   5.185  15.781  0.00  0.00    +0.000 A 
ENDBRANCH   1  18
TORSDOF 1
ENDMDL
MODEL 6
REMARK VINA RESULT:      -7.3      0.946      2.756
REMARK  Name = 
REMARK  1 active torsions:
REMARK  status: ('A' for Active; 'I' for Inactive)
REMARK    1  A    between atoms: C_4  and  C_5
REMARK                            x       y       z     vdW  Elec       q    Type
REMARK                         _______ _______ _______ _____ _____    ______ ____
ROOT
ATOM      1  C   UNL     1       4.905   4.839  16.543  0.00  0.00    +0.000 C 
ATOM      2  N   UNL     1       4.730   3.757  17.261  0.00  0.00    +0.000 NA
ATOM      3  C   UNL     1       3.983   3.880  18.450  0.00  0.00    +0.000 A 
ATOM      4  C   UNL     1       3.836   2.760  19.270  0.00  0.00    +0.000 A 
ATOM      5  C   UNL     1       3.069   2.830  20.433  0.00  0.00    +0.000 A 
ATOM      6  C   UNL     1       2.433   4.023  20.785  0.00  0.00    +0.000 A 
ATOM      7  C   UNL     1       2.573   5.167  19.979  0.00  0.00    +0.000 A 
ATOM      8  C   UNL     1       1.952   6.386  20.289  0.00  0.00    +0.000 A 
ATOM      9  C   UNL     1       2.129   7.500  19.462  0.00  0.00    +0.000 A 
ATOM     10  C   UNL     1       2.940   7.414  18.327  0.00  0.00    +0.000 A 
ATOM     11  C   UNL     1       3.560   6.208  17.999  0.00  0.00    +0.000 A 
ATOM     12  C   UNL     1       3.367   5.085  18.818  0.00  0.00    +0.000 A 
ATOM     13  N   UNL     1       4.418   6.083  16.901  0.00  0.00    +0.000 N 
ATOM     14  H   UNL     1       4.503   6.842  16.242  0.00  0.00    +0.000 HD
ENDROOT
BRANCH   1  18
ATOM     15  C   UNL     1       6.495   4.039  13.326  0.00  0.00    +0.000 A 
ATOM     16  C   UNL     1       7.287   5.006  13.898  0.00  0.00    +0.000 A 
ATOM     17  O   UNL     1       6.769   5.408  15.089  0.00  0.00    +0.000 OA
ATOM     18  C   UNL     1       5.651   4.648  15.312  0.00  0.00    +0.000 A 
ATOM     19  C   UNL     1       5.444   3.802  14.240  0.00  0.00    +0.000 A 
ENDBRANCH   1  18
TORSDOF 1
ENDMDL
MODEL 7
REMARK VINA RESULT:      -7.2      2.684      5.674
REMARK  Name = 
REMARK  1 active torsions:
REMARK  status: ('A' for Active; 'I' for Inactive)
REMARK    1  A    between atoms: C_4  and  C_5
REMARK                            x       y       z     vdW  Elec       q    Type
REMARK                         _______ _______ _______ _____ _____    ______ ____
ROOT
ATOM      1  C   UNL     1       1.874   7.181  20.181  0.00  0.00    +0.000 C 
ATOM      2  N   UNL     1       2.606   7.197  19.094  0.00  0.00    +0.000 NA
ATOM      3  C   UNL     1       3.074   5.960  18.608  0.00  0.00    +0.000 A 
ATOM      4  C   UNL     1       3.912   5.950  17.491  0.00  0.00    +0.000 A 
ATOM      5  C   UNL     1       4.361   4.743  16.955  0.00  0.00    +0.000 A 
ATOM      6  C   UNL     1       3.971   3.531  17.527  0.00  0.00    +0.000 A 
ATOM      7  C   UNL     1       3.134   3.515  18.657  0.00  0.00    +0.000 A 
ATOM      8  C   UNL     1       2.713   2.323  19.265  0.00  0.00    +0.000 A 
ATOM      9  C   UNL     1       1.888   2.359  20.394  0.00  0.00    +0.000 A 
ATOM     10  C   UNL     1       1.490   3.583  20.938  0.00  0.00    +0.000 A 
ATOM     11  C   UNL     1       1.893   4.778  20.343  0.00  0.00    +0.000 A 
ATOM     12  C   UNL     1       2.705   4.743  19.199  0.00  0.00    +0.000 A 
ATOM     13  N   UNL     1       1.560   6.028  20.876  0.00  0.00    +0.000 N 
ATOM     14  H   UNL     1       0.904   6.089  21.640  0.00  0.00    +0.000 HD
ENDROOT
BRANCH   1  18
ATOM     15  C   UNL     1       0.645  10.297  21.698  0.00  0.00    +0.000 A 
ATOM     16  C   UNL     1       0.695  10.540  20.345  0.00  0.00    +0.000 A 
ATOM     17  O   UNL     1       1.175   9.456  19.681  0.00  0.00    +0.000 OA
ATOM     18  C   UNL     1       1.389   8.479  20.617  0.00  0.00    +0.000 A 
ATOM     19  C   UNL     1       1.085   8.966  21.873  0.00  0.00    +0.000 A 
ENDBRANCH   1  18
TORSDOF 1
ENDMDL
MODEL 8
REMARK VINA RESULT:      -7.1      2.437      5.496
REMARK  Name = 
REMARK  1 active torsions:
REMARK  status: ('A' for Active; 'I' for Inactive)
REMARK    1  A    between atoms: C_4  and  C_5
REMARK                            x       y       z     vdW  Elec       q    Type
REMARK                         _______ _______ _______ _____ _____    ______ ____
ROOT
ATOM      1  C   UNL     1       2.282   6.939  19.495  0.00  0.00    +0.000 C 
ATOM      2  N   UNL     1       3.083   7.209  18.493  0.00  0.00    +0.000 NA
ATOM      3  C   UNL     1       3.689   6.121  17.835  0.00  0.00    +0.000 A 
ATOM      4  C   UNL     1       4.599   6.378  16.808  0.00  0.00    +0.000 A 
ATOM      5  C   UNL     1       5.188   5.328  16.105  0.00  0.00    +0.000 A 
ATOM      6  C   UNL     1       4.867   4.005  16.417  0.00  0.00    +0.000 A 
ATOM      7  C   UNL     1       3.960   3.720  17.452  0.00  0.00    +0.000 A 
ATOM      8  C   UNL     1       3.604   2.408  17.801  0.00  0.00    +0.000 A 
ATOM      9  C   UNL     1       2.704   2.174  18.846  0.00  0.00    +0.000 A 
ATOM     10  C   UNL     1       2.164   3.244  19.564  0.00  0.00    +0.000 A 
ATOM     11  C   UNL     1       2.500   4.555  19.228  0.00  0.00    +0.000 A 
ATOM     12  C   UNL     1       3.388   4.792  18.167  0.00  0.00    +0.000 A 
ATOM     13  N   UNL     1       2.023   5.657  19.945  0.00  0.00    +0.000 N 
ATOM     14  H   UNL     1       1.313   5.527  20.650  0.00  0.00    +0.000 HD
ENDROOT
BRANCH   1  18
ATOM     15  C   UNL     1       0.702   9.630  21.440  0.00  0.00    +0.000 A 
ATOM     16  C   UNL     1       0.765  10.097  20.148  0.00  0.00    +0.000 A 
ATOM     17  O   UNL     1       1.371   9.188  19.339  0.00  0.00    +0.000 OA
ATOM     18  C   UNL     1       1.656   8.094  20.113  0.00  0.00    +0.000 A 
ATOM     19  C   UNL     1       1.269   8.336  21.416  0.00  0.00    +0.000 A 
ENDBRANCH   1  18
TORSDOF 1
ENDMDL
MODEL 9
REMARK VINA RESULT:      -7.1      2.877      5.634
REMARK  Name = 
REMARK  1 active torsions:
REMARK  status: ('A' for Active; 'I' for Inactive)
REMARK    1  A    between atoms: C_4  and  C_5
REMARK                            x       y       z     vdW  Elec       q    Type
REMARK                         _______ _______ _______ _____ _____    ______ ____
ROOT
ATOM      1  C   UNL     1       2.003   7.334  19.990  0.00  0.00    +0.000 C 
ATOM      2  N   UNL     1       2.639   7.224  18.849  0.00  0.00    +0.000 NA
ATOM      3  C   UNL     1       3.210   5.974  18.542  0.00  0.00    +0.000 A 
ATOM      4  C   UNL     1       3.951   5.843  17.366  0.00  0.00    +0.000 A 
ATOM      5  C   UNL     1       4.496   4.611  17.006  0.00  0.00    +0.000 A 
ATOM      6  C   UNL     1       4.299   3.491  17.816  0.00  0.00    +0.000 A 
ATOM      7  C   UNL     1       3.563   3.599  19.010  0.00  0.00    +0.000 A 
ATOM      8  C   UNL     1       3.337   2.502  19.855  0.00  0.00    +0.000 A 
ATOM      9  C   UNL     1       2.607   2.661  21.037  0.00  0.00    +0.000 A 
ATOM     10  C   UNL     1       2.111   3.917  21.397  0.00  0.00    +0.000 A 
ATOM     11  C   UNL     1       2.320   5.017  20.566  0.00  0.00    +0.000 A 
ATOM     12  C   UNL     1       3.036   4.855  19.369  0.00  0.00    +0.000 A 
ATOM     13  N   UNL     1       1.885   6.303  20.903  0.00  0.00    +0.000 N 
ATOM     14  H   UNL     1       1.289   6.436  21.707  0.00  0.00    +0.000 HD
ENDROOT
BRANCH   1  18
ATOM     15  C   UNL     1       0.471  10.672  20.178  0.00  0.00    +0.000 A 
ATOM     16  C   UNL     1       0.685  10.290  21.481  0.00  0.00    +0.000 A 
ATOM     17  O   UNL     1       1.221   9.042  21.534  0.00  0.00    +0.000 OA
ATOM     18  C   UNL     1       1.404   8.633  20.239  0.00  0.00    +0.000 A 
ATOM     19  C   UNL     1       0.942   9.608  19.376  0.00  0.00    +0.000 A 
ENDBRANCH   1  18
TORSDOF 1
ENDMDL
