MODEL 1
REMARK VINA RESULT:      -7.9      0.000      0.000
REMARK  Name = 
REMARK  8 active torsions:
REMARK  status: ('A' for Active; 'I' for Inactive)
REMARK    1  A    between atoms: C_1  and  O_2
REMARK    2  A    between atoms: O_2  and  C_3
REMARK    3  A    between atoms: C_8  and  N_9
REMARK    4  A    between atoms: N_9  and  C_10
REMARK    5  A    between atoms: N_9  and  S_20
REMARK    6  A    between atoms: C_10  and  C_11
REMARK    7  A    between atoms: N_13  and  C_14
REMARK    8  A    between atoms: S_20  and  C_23
REMARK                            x       y       z     vdW  Elec       q    Type
REMARK                         _______ _______ _______ _____ _____    ______ ____
ROOT
ATOM      1  N   UNL     1       3.555   5.228  17.661  0.00  0.00    +0.000 N 
ENDROOT
BRANCH   1   7
ATOM      2  C   UNL     1       6.061   4.829  17.667  0.00  0.00    +0.000 A 
ATOM      3  C   UNL     1       7.226   4.613  16.911  0.00  0.00    +0.000 A 
ATOM      4  C   UNL     1       7.190   4.620  15.517  0.00  0.00    +0.000 A 
ATOM      5  C   UNL     1       5.994   4.874  14.860  0.00  0.00    +0.000 A 
ATOM      6  C   UNL     1       4.825   5.082  15.594  0.00  0.00    +0.000 A 
ATOM      7  C   UNL     1       4.831   5.024  16.995  0.00  0.00    +0.000 A 
BRANCH   2   9
ATOM      8  C   UNL     1       7.188   5.489  19.661  0.00  0.00    +0.000 C 
ATOM      9  O   UNL     1       6.058   4.875  19.041  0.00  0.00    +0.000 OA
ENDBRANCH   2   9
ENDBRANCH   1   7
BRANCH   1  10
ATOM     10  S   UNL     1       2.436   3.931  17.571  0.00  0.00    +0.000 S 
ATOM     11  O   UNL     1       1.138   4.478  17.223  0.00  0.00    +0.000 OA
ATOM     12  O   UNL     1       3.025   2.900  16.741  0.00  0.00    +0.000 OA
BRANCH  10  13
ATOM     13  C   UNL     1       2.282   3.267  19.228  0.00  0.00    +0.000 A 
ATOM     14  C   UNL     1       3.429   2.787  19.879  0.00  0.00    +0.000 A 
ATOM     15  C   UNL     1       3.371   2.411  21.223  0.00  0.00    +0.000 A 
ATOM     16  C   UNL     1       2.173   2.526  21.927  0.00  0.00    +0.000 A 
ATOM     17  C   UNL     1       1.031   3.022  21.287  0.00  0.00    +0.000 A 
ATOM     18  C   UNL     1       1.084   3.399  19.939  0.00  0.00    +0.000 A 
ENDBRANCH  10  13
ENDBRANCH   1  10
BRANCH   1  19
ATOM     19  C   UNL     1       2.959   6.587  17.652  0.00  0.00    +0.000 C 
BRANCH  19  20
ATOM     20  C   UNL     1       2.579   7.163  19.023  0.00  0.00    +0.000 C 
ATOM     21  O   UNL     1       2.798   6.500  20.035  0.00  0.00    +0.000 OA
ATOM     22  N   UNL     1       1.855   8.353  18.998  0.00  0.00    +0.000 N 
ATOM     23  H   UNL     1       1.801   8.820  18.101  0.00  0.00    +0.000 HD
BRANCH  22  24
ATOM     24  C   UNL     1       1.179   8.971  20.094  0.00  0.00    +0.000 A 
ATOM     25  C   UNL     1       0.744   8.303  21.242  0.00  0.00    +0.000 A 
ATOM     26  C   UNL     1       0.053   8.995  22.246  0.00  0.00    +0.000 A 
ATOM     27  C   UNL     1      -0.187  10.349  22.080  0.00  0.00    +0.000 A 
ATOM     28  N   UNL     1       0.212  11.041  20.996  0.00  0.00    +0.000 NA
ATOM     29  C   UNL     1       0.883  10.337  20.041  0.00  0.00    +0.000 A 
ENDBRANCH  22  24
ENDBRANCH  19  20
ENDBRANCH   1  19
TORSDOF 7
ENDMDL
MODEL 2
REMARK VINA RESULT:      -7.8      1.637      2.411
REMARK  Name = 
REMARK  8 active torsions:
REMARK  status: ('A' for Active; 'I' for Inactive)
REMARK    1  A    between atoms: C_1  and  O_2
REMARK    2  A    between atoms: O_2  and  C_3
REMARK    3  A    between atoms: C_8  and  N_9
REMARK    4  A    between atoms: N_9  and  C_10
REMARK    5  A    between atoms: N_9  and  S_20
REMARK    6  A    between atoms: C_10  and  C_11
REMARK    7  A    between atoms: N_13  and  C_14
REMARK    8  A    between atoms: S_20  and  C_23
REMARK                            x       y       z     vdW  Elec       q    Type
REMARK                         _______ _______ _______ _____ _____    ______ ____
ROOT
ATOM      1  N   UNL     1       3.776   5.505  18.023  0.00  0.00    +0.000 N 
ENDROOT
BRANCH   1   7
ATOM      2  C   UNL     1       5.992   6.262  17.043  0.00  0.00    +0.000 A 
ATOM      3  C   UNL     1       7.358   6.507  17.260  0.00  0.00    +0.000 A 
ATOM      4  C   UNL     1       7.948   6.244  18.497  0.00  0.00    +0.000 A 
ATOM      5  C   UNL     1       7.186   5.703  19.523  0.00  0.00    +0.000 A 
ATOM      6  C   UNL     1       5.825   5.462  19.328  0.00  0.00    +0.000 A 
ATOM      7  C   UNL     1       5.203   5.772  18.111  0.00  0.00    +0.000 A 
BRANCH   2   9
ATOM      8  C   UNL     1       5.500   5.412  14.871  0.00  0.00    +0.000 C 
ATOM      9  O   UNL     1       5.379   6.464  15.830  0.00  0.00    +0.000 OA
ENDBRANCH   2   9
ENDBRANCH   1   7
BRANCH   1  10
ATOM     10  S   UNL     1       3.325   3.878  17.720  0.00  0.00    +0.000 S 
ATOM     11  O   UNL     1       2.254   3.882  16.742  0.00  0.00    +0.000 OA
ATOM     12  O   UNL     1       4.537   3.130  17.453  0.00  0.00    +0.000 OA
BRANCH  10  13
ATOM     13  C   UNL     1       2.625   3.244  19.242  0.00  0.00    +0.000 A 
ATOM     14  C   UNL     1       3.484   2.731  20.226  0.00  0.00    +0.000 A 
ATOM     15  C   UNL     1       2.984   2.377  21.482  0.00  0.00    +0.000 A 
ATOM     16  C   UNL     1       1.630   2.548  21.766  0.00  0.00    +0.000 A 
ATOM     17  C   UNL     1       0.773   3.078  20.794  0.00  0.00    +0.000 A 
ATOM     18  C   UNL     1       1.269   3.433  19.533  0.00  0.00    +0.000 A 
ENDBRANCH  10  13
ENDBRANCH   1  10
BRANCH   1  19
ATOM     19  C   UNL     1       2.897   6.535  17.415  0.00  0.00    +0.000 C 
BRANCH  19  20
ATOM     20  C   UNL     1       2.479   7.689  18.337  0.00  0.00    +0.000 C 
ATOM     21  O   UNL     1       2.335   7.476  19.540  0.00  0.00    +0.000 OA
ATOM     22  N   UNL     1       2.135   8.878  17.698  0.00  0.00    +0.000 N 
ATOM     23  H   UNL     1       2.361   8.933  16.712  0.00  0.00    +0.000 HD
BRANCH  22  24
ATOM     24  C   UNL     1       1.494  10.013  18.280  0.00  0.00    +0.000 A 
ATOM     25  C   UNL     1       0.215  10.004  18.846  0.00  0.00    +0.000 A 
ATOM     26  C   UNL     1      -0.342  11.184  19.359  0.00  0.00    +0.000 A 
ATOM     27  C   UNL     1       0.397  12.354  19.294  0.00  0.00    +0.000 A 
ATOM     28  N   UNL     1       1.632  12.418  18.762  0.00  0.00    +0.000 NA
ATOM     29  C   UNL     1       2.143  11.252  18.277  0.00  0.00    +0.000 A 
ENDBRANCH  22  24
ENDBRANCH  19  20
ENDBRANCH   1  19
TORSDOF 7
ENDMDL
MODEL 3
REMARK VINA RESULT:      -7.7      1.427      1.913
REMARK  Name = 
REMARK  8 active torsions:
REMARK  status: ('A' for Active; 'I' for Inactive)
REMARK    1  A    between atoms: C_1  and  O_2
REMARK    2  A    between atoms: O_2  and  C_3
REMARK    3  A    between atoms: C_8  and  N_9
REMARK    4  A    between atoms: N_9  and  C_10
REMARK    5  A    between atoms: N_9  and  S_20
REMARK    6  A    between atoms: C_10  and  C_11
REMARK    7  A    between atoms: N_13  and  C_14
REMARK    8  A    between atoms: S_20  and  C_23
REMARK                            x       y       z     vdW  Elec       q    Type
REMARK                         _______ _______ _______ _____ _____    ______ ____
ROOT
ATOM      1  N   UNL     1       4.794   3.865  17.995  0.00  0.00    +0.000 N 
ENDROOT
BRANCH   1   7
ATOM      2  C   UNL     1       6.969   4.541  16.874  0.00  0.00    +0.000 A 
ATOM      3  C   UNL     1       7.646   4.807  15.672  0.00  0.00    +0.000 A 
ATOM      4  C   UNL     1       6.981   4.763  14.447  0.00  0.00    +0.000 A 
ATOM      5  C   UNL     1       5.622   4.481  14.410  0.00  0.00    +0.000 A 
ATOM      6  C   UNL     1       4.935   4.205  15.593  0.00  0.00    +0.000 A 
ATOM      7  C   UNL     1       5.598   4.191  16.828  0.00  0.00    +0.000 A 
BRANCH   2   9
ATOM      8  C   UNL     1       7.828   5.927  18.612  0.00  0.00    +0.000 C 
ATOM      9  O   UNL     1       7.573   4.616  18.107  0.00  0.00    +0.000 OA
ENDBRANCH   2   9
ENDBRANCH   1   7
BRANCH   1  10
ATOM     10  S   UNL     1       3.481   2.792  17.736  0.00  0.00    +0.000 S 
ATOM     11  O   UNL     1       2.599   3.389  16.750  0.00  0.00    +0.000 OA
ATOM     12  O   UNL     1       4.032   1.473  17.499  0.00  0.00    +0.000 OA
BRANCH  10  13
ATOM     13  C   UNL     1       2.559   2.724  19.271  0.00  0.00    +0.000 A 
ATOM     14  C   UNL     1       3.226   2.360  20.450  0.00  0.00    +0.000 A 
ATOM     15  C   UNL     1       2.576   2.451  21.684  0.00  0.00    +0.000 A 
ATOM     16  C   UNL     1       1.264   2.919  21.746  0.00  0.00    +0.000 A 
ATOM     17  C   UNL     1       0.602   3.301  20.574  0.00  0.00    +0.000 A 
ATOM     18  C   UNL     1       1.249   3.211  19.335  0.00  0.00    +0.000 A 
ENDBRANCH  10  13
ENDBRANCH   1  10
BRANCH   1  19
ATOM     19  C   UNL     1       4.568   4.916  19.018  0.00  0.00    +0.000 C 
BRANCH  19  20
ATOM     20  C   UNL     1       3.866   6.190  18.527  0.00  0.00    +0.000 C 
ATOM     21  O   UNL     1       4.389   6.861  17.639  0.00  0.00    +0.000 OA
ATOM     22  N   UNL     1       2.741   6.577  19.252  0.00  0.00    +0.000 N 
ATOM     23  H   UNL     1       2.386   5.898  19.916  0.00  0.00    +0.000 HD
BRANCH  22  24
ATOM     24  C   UNL     1       2.049   7.823  19.167  0.00  0.00    +0.000 A 
ATOM     25  C   UNL     1       1.907   8.578  17.999  0.00  0.00    +0.000 A 
ATOM     26  C   UNL     1       1.241   9.810  18.028  0.00  0.00    +0.000 A 
ATOM     27  C   UNL     1       0.727  10.263  19.231  0.00  0.00    +0.000 A 
ATOM     28  N   UNL     1       0.833   9.576  20.384  0.00  0.00    +0.000 NA
ATOM     29  C   UNL     1       1.485   8.381  20.318  0.00  0.00    +0.000 A 
ENDBRANCH  22  24
ENDBRANCH  19  20
ENDBRANCH   1  19
TORSDOF 7
ENDMDL
MODEL 4
REMARK VINA RESULT:      -7.5      1.664      2.538
REMARK  Name = 
REMARK  8 active torsions:
REMARK  status: ('A' for Active; 'I' for Inactive)
REMARK    1  A    between atoms: C_1  and  O_2
REMARK    2  A    between atoms: O_2  and  C_3
REMARK    3  A    between atoms: C_8  and  N_9
REMARK    4  A    between atoms: N_9  and  C_10
REMARK    5  A    between atoms: N_9  and  S_20
REMARK    6  A    between atoms: C_10  and  C_11
REMARK    7  A    between atoms: N_13  and  C_14
REMARK    8  A    between atoms: S_20  and  C_23
REMARK                            x       y       z     vdW  Elec       q    Type
REMARK                         _______ _______ _______ _____ _____    ______ ____
ROOT
ATOM      1  N   UNL     1       3.621   6.007  18.063  0.00  0.00    +0.000 N 
ENDROOT
BRANCH   1   7
ATOM      2  C   UNL     1       5.906   6.140  16.967  0.00  0.00    +0.000 A 
ATOM      3  C   UNL     1       7.301   6.081  17.130  0.00  0.00    +0.000 A 
ATOM      4  C   UNL     1       7.868   5.800  18.373  0.00  0.00    +0.000 A 
ATOM      5  C   UNL     1       7.048   5.544  19.463  0.00  0.00    +0.000 A 
ATOM      6  C   UNL     1       5.660   5.607  19.322  0.00  0.00    +0.000 A 
ATOM      7  C   UNL     1       5.073   5.943  18.093  0.00  0.00    +0.000 A 
BRANCH   2   9
ATOM      8  C   UNL     1       5.583   5.431  14.714  0.00  0.00    +0.000 C 
ATOM      9  O   UNL     1       5.304   6.370  15.753  0.00  0.00    +0.000 OA
ENDBRANCH   2   9
ENDBRANCH   1   7
BRANCH   1  10
ATOM     10  S   UNL     1       2.801   4.521  17.812  0.00  0.00    +0.000 S 
ATOM     11  O   UNL     1       1.478   4.818  17.295  0.00  0.00    +0.000 OA
ATOM     12  O   UNL     1       3.685   3.653  17.063  0.00  0.00    +0.000 OA
BRANCH  10  13
ATOM     13  C   UNL     1       2.563   3.784  19.428  0.00  0.00    +0.000 A 
ATOM     14  C   UNL     1       1.304   3.874  20.039  0.00  0.00    +0.000 A 
ATOM     15  C   UNL     1       1.044   3.176  21.222  0.00  0.00    +0.000 A 
ATOM     16  C   UNL     1       2.033   2.375  21.790  0.00  0.00    +0.000 A 
ATOM     17  C   UNL     1       3.285   2.268  21.173  0.00  0.00    +0.000 A 
ATOM     18  C   UNL     1       3.551   2.966  19.988  0.00  0.00    +0.000 A 
ENDBRANCH  10  13
ENDBRANCH   1  10
BRANCH   1  19
ATOM     19  C   UNL     1       2.975   7.202  17.464  0.00  0.00    +0.000 C 
BRANCH  19  20
ATOM     20  C   UNL     1       2.233   8.124  18.441  0.00  0.00    +0.000 C 
ATOM     21  O   UNL     1       2.047   7.750  19.597  0.00  0.00    +0.000 OA
ATOM     22  N   UNL     1       1.680   9.274  17.883  0.00  0.00    +0.000 N 
ATOM     23  H   UNL     1       1.965   9.488  16.934  0.00  0.00    +0.000 HD
BRANCH  22  24
ATOM     24  C   UNL     1       0.753  10.169  18.499  0.00  0.00    +0.000 A 
ATOM     25  C   UNL     1       1.094  11.148  19.437  0.00  0.00    +0.000 A 
ATOM     26  C   UNL     1       0.101  11.953  20.013  0.00  0.00    +0.000 A 
ATOM     27  C   UNL     1      -1.217  11.761  19.636  0.00  0.00    +0.000 A 
ATOM     28  N   UNL     1      -1.599  10.835  18.736  0.00  0.00    +0.000 NA
ATOM     29  C   UNL     1      -0.608  10.073  18.194  0.00  0.00    +0.000 A 
ENDBRANCH  22  24
ENDBRANCH  19  20
ENDBRANCH   1  19
TORSDOF 7
ENDMDL
MODEL 5
REMARK VINA RESULT:      -7.5      0.820      1.428
REMARK  Name = 
REMARK  8 active torsions:
REMARK  status: ('A' for Active; 'I' for Inactive)
REMARK    1  A    between atoms: C_1  and  O_2
REMARK    2  A    between atoms: O_2  and  C_3
REMARK    3  A    between atoms: C_8  and  N_9
REMARK    4  A    between atoms: N_9  and  C_10
REMARK    5  A    between atoms: N_9  and  S_20
REMARK    6  A    between atoms: C_10  and  C_11
REMARK    7  A    between atoms: N_13  and  C_14
REMARK    8  A    between atoms: S_20  and  C_23
REMARK                            x       y       z     vdW  Elec       q    Type
REMARK                         _______ _______ _______ _____ _____    ______ ____
ROOT
ATOM      1  N   UNL     1       3.874   4.807  17.536  0.00  0.00    +0.000 N 
ENDROOT
BRANCH   1   7
ATOM      2  C   UNL     1       6.406   4.687  17.426  0.00  0.00    +0.000 A 
ATOM      3  C   UNL     1       7.556   4.682  16.617  0.00  0.00    +0.000 A 
ATOM      4  C   UNL     1       7.462   4.833  15.233  0.00  0.00    +0.000 A 
ATOM      5  C   UNL     1       6.220   5.023  14.643  0.00  0.00    +0.000 A 
ATOM      6  C   UNL     1       5.067   5.022  15.430  0.00  0.00    +0.000 A 
ATOM      7  C   UNL     1       5.136   4.815  16.815  0.00  0.00    +0.000 A 
BRANCH   2   9
ATOM      8  C   UNL     1       7.224   5.574  19.481  0.00  0.00    +0.000 C 
ATOM      9  O   UNL     1       6.455   4.585  18.796  0.00  0.00    +0.000 OA
ENDBRANCH   2   9
ENDBRANCH   1   7
BRANCH   1  10
ATOM     10  S   UNL     1       3.077   3.292  17.654  0.00  0.00    +0.000 S 
ATOM     11  O   UNL     1       1.903   3.333  16.803  0.00  0.00    +0.000 OA
ATOM     12  O   UNL     1       4.071   2.257  17.454  0.00  0.00    +0.000 OA
BRANCH  10  13
ATOM     13  C   UNL     1       2.483   3.150  19.338  0.00  0.00    +0.000 A 
ATOM     14  C   UNL     1       1.115   3.322  19.594  0.00  0.00    +0.000 A 
ATOM     15  C   UNL     1       0.599   3.062  20.867  0.00  0.00    +0.000 A 
ATOM     16  C   UNL     1       1.442   2.616  21.883  0.00  0.00    +0.000 A 
ATOM     17  C   UNL     1       2.805   2.425  21.626  0.00  0.00    +0.000 A 
ATOM     18  C   UNL     1       3.327   2.684  20.353  0.00  0.00    +0.000 A 
ENDBRANCH  10  13
ENDBRANCH   1  10
BRANCH   1  19
ATOM     19  C   UNL     1       2.984   5.989  17.424  0.00  0.00    +0.000 C 
BRANCH  19  20
ATOM     20  C   UNL     1       2.809   6.821  18.702  0.00  0.00    +0.000 C 
ATOM     21  O   UNL     1       3.277   6.404  19.760  0.00  0.00    +0.000 OA
ATOM     22  N   UNL     1       1.978   7.933  18.589  0.00  0.00    +0.000 N 
ATOM     23  H   UNL     1       1.712   8.194  17.647  0.00  0.00    +0.000 HD
BRANCH  22  24
ATOM     24  C   UNL     1       1.459   8.730  19.654  0.00  0.00    +0.000 A 
ATOM     25  C   UNL     1       1.137  10.087  19.550  0.00  0.00    +0.000 A 
ATOM     26  C   UNL     1       0.668  10.792  20.668  0.00  0.00    +0.000 A 
ATOM     27  C   UNL     1       0.531  10.120  21.871  0.00  0.00    +0.000 A 
ATOM     28  N   UNL     1       0.824   8.816  22.025  0.00  0.00    +0.000 NA
ATOM     29  C   UNL     1       1.274   8.161  20.918  0.00  0.00    +0.000 A 
ENDBRANCH  22  24
ENDBRANCH  19  20
ENDBRANCH   1  19
TORSDOF 7
ENDMDL
MODEL 6
REMARK VINA RESULT:      -7.4      1.471      5.083
REMARK  Name = 
REMARK  8 active torsions:
REMARK  status: ('A' for Active; 'I' for Inactive)
REMARK    1  A    between atoms: C_1  and  O_2
REMARK    2  A    between atoms: O_2  and  C_3
REMARK    3  A    between atoms: C_8  and  N_9
REMARK    4  A    between atoms: N_9  and  C_10
REMARK    5  A    between atoms: N_9  and  S_20
REMARK    6  A    between atoms: C_10  and  C_11
REMARK    7  A    between atoms: N_13  and  C_14
REMARK    8  A    between atoms: S_20  and  C_23
REMARK                            x       y       z     vdW  Elec       q    Type
REMARK                         _______ _______ _______ _____ _____    ______ ____
ROOT
ATOM      1  N   UNL     1       3.885   5.022  18.981  0.00  0.00    +0.000 N 
ENDROOT
BRANCH   1   7
ATOM      2  C   UNL     1       1.921   3.415  19.030  0.00  0.00    +0.000 A 
ATOM      3  C   UNL     1       1.011   2.683  19.812  0.00  0.00    +0.000 A 
ATOM      4  C   UNL     1       1.017   2.782  21.203  0.00  0.00    +0.000 A 
ATOM      5  C   UNL     1       1.912   3.638  21.829  0.00  0.00    +0.000 A 
ATOM      6  C   UNL     1       2.828   4.367  21.069  0.00  0.00    +0.000 A 
ATOM      7  C   UNL     1       2.875   4.238  19.674  0.00  0.00    +0.000 A 
BRANCH   2   9
ATOM      8  C   UNL     1       2.556   2.258  17.045  0.00  0.00    +0.000 C 
ATOM      9  O   UNL     1       1.922   3.382  17.655  0.00  0.00    +0.000 OA
ENDBRANCH   2   9
ENDBRANCH   1   7
BRANCH   1  10
ATOM     10  S   UNL     1       5.451   4.328  18.887  0.00  0.00    +0.000 S 
ATOM     11  O   UNL     1       6.368   5.183  19.616  0.00  0.00    +0.000 OA
ATOM     12  O   UNL     1       5.334   2.930  19.249  0.00  0.00    +0.000 OA
BRANCH  10  13
ATOM     13  C   UNL     1       5.945   4.400  17.166  0.00  0.00    +0.000 A 
ATOM     14  C   UNL     1       4.959   4.324  16.171  0.00  0.00    +0.000 A 
ATOM     15  C   UNL     1       5.293   4.536  14.831  0.00  0.00    +0.000 A 
ATOM     16  C   UNL     1       6.609   4.838  14.481  0.00  0.00    +0.000 A 
ATOM     17  C   UNL     1       7.592   4.933  15.473  0.00  0.00    +0.000 A 
ATOM     18  C   UNL     1       7.262   4.721  16.817  0.00  0.00    +0.000 A 
ENDBRANCH  10  13
ENDBRANCH   1  10
BRANCH   1  19
ATOM     19  C   UNL     1       3.848   6.500  19.109  0.00  0.00    +0.000 C 
BRANCH  19  20
ATOM     20  C   UNL     1       2.496   7.166  18.814  0.00  0.00    +0.000 C 
ATOM     21  O   UNL     1       1.911   6.899  17.766  0.00  0.00    +0.000 OA
ATOM     22  N   UNL     1       2.107   8.161  19.707  0.00  0.00    +0.000 N 
ATOM     23  H   UNL     1       2.652   8.232  20.558  0.00  0.00    +0.000 HD
BRANCH  22  24
ATOM     24  C   UNL     1       1.035   9.090  19.545  0.00  0.00    +0.000 A 
ATOM     25  C   UNL     1       0.683   9.699  18.336  0.00  0.00    +0.000 A 
ATOM     26  C   UNL     1      -0.364  10.629  18.290  0.00  0.00    +0.000 A 
ATOM     27  C   UNL     1      -1.042  10.932  19.459  0.00  0.00    +0.000 A 
ATOM     28  N   UNL     1      -0.746  10.373  20.648  0.00  0.00    +0.000 NA
ATOM     29  C   UNL     1       0.275   9.472  20.656  0.00  0.00    +0.000 A 
ENDBRANCH  22  24
ENDBRANCH  19  20
ENDBRANCH   1  19
TORSDOF 7
ENDMDL
MODEL 7
REMARK VINA RESULT:      -7.3      1.493      2.011
REMARK  Name = 
REMARK  8 active torsions:
REMARK  status: ('A' for Active; 'I' for Inactive)
REMARK    1  A    between atoms: C_1  and  O_2
REMARK    2  A    between atoms: O_2  and  C_3
REMARK    3  A    between atoms: C_8  and  N_9
REMARK    4  A    between atoms: N_9  and  C_10
REMARK    5  A    between atoms: N_9  and  S_20
REMARK    6  A    between atoms: C_10  and  C_11
REMARK    7  A    between atoms: N_13  and  C_14
REMARK    8  A    between atoms: S_20  and  C_23
REMARK                            x       y       z     vdW  Elec       q    Type
REMARK                         _______ _______ _______ _____ _____    ______ ____
ROOT
ATOM      1  N   UNL     1       4.878   4.067  17.893  0.00  0.00    +0.000 N 
ENDROOT
BRANCH   1   7
ATOM      2  C   UNL     1       6.920   4.870  16.619  0.00  0.00    +0.000 A 
ATOM      3  C   UNL     1       7.538   5.052  15.370  0.00  0.00    +0.000 A 
ATOM      4  C   UNL     1       6.872   4.738  14.185  0.00  0.00    +0.000 A 
ATOM      5  C   UNL     1       5.567   4.267  14.232  0.00  0.00    +0.000 A 
ATOM      6  C   UNL     1       4.940   4.072  15.464  0.00  0.00    +0.000 A 
ATOM      7  C   UNL     1       5.613   4.329  16.667  0.00  0.00    +0.000 A 
BRANCH   2   9
ATOM      8  C   UNL     1       7.756   6.598  18.032  0.00  0.00    +0.000 C 
ATOM      9  O   UNL     1       7.521   5.207  17.808  0.00  0.00    +0.000 OA
ENDBRANCH   2   9
ENDBRANCH   1   7
BRANCH   1  10
ATOM     10  S   UNL     1       3.532   3.011  17.760  0.00  0.00    +0.000 S 
ATOM     11  O   UNL     1       2.615   3.570  16.784  0.00  0.00    +0.000 OA
ATOM     12  O   UNL     1       4.045   1.668  17.575  0.00  0.00    +0.000 OA
BRANCH  10  13
ATOM     13  C   UNL     1       2.685   3.051  19.338  0.00  0.00    +0.000 A 
ATOM     14  C   UNL     1       1.327   3.402  19.373  0.00  0.00    +0.000 A 
ATOM     15  C   UNL     1       0.602   3.289  20.563  0.00  0.00    +0.000 A 
ATOM     16  C   UNL     1       1.224   2.814  21.715  0.00  0.00    +0.000 A 
ATOM     17  C   UNL     1       2.574   2.445  21.680  0.00  0.00    +0.000 A 
ATOM     18  C   UNL     1       3.306   2.557  20.491  0.00  0.00    +0.000 A 
ENDBRANCH  10  13
ENDBRANCH   1  10
BRANCH   1  19
ATOM     19  C   UNL     1       4.734   5.163  18.883  0.00  0.00    +0.000 C 
BRANCH  19  20
ATOM     20  C   UNL     1       3.853   6.344  18.454  0.00  0.00    +0.000 C 
ATOM     21  O   UNL     1       4.165   6.995  17.458  0.00  0.00    +0.000 OA
ATOM     22  N   UNL     1       2.833   6.689  19.337  0.00  0.00    +0.000 N 
ATOM     23  H   UNL     1       2.651   6.029  20.084  0.00  0.00    +0.000 HD
BRANCH  22  24
ATOM     24  C   UNL     1       2.031   7.870  19.306  0.00  0.00    +0.000 A 
ATOM     25  C   UNL     1       1.380   8.421  20.414  0.00  0.00    +0.000 A 
ATOM     26  C   UNL     1       0.582   9.565  20.271  0.00  0.00    +0.000 A 
ATOM     27  C   UNL     1       0.453  10.136  19.016  0.00  0.00    +0.000 A 
ATOM     28  N   UNL     1       1.060   9.649  17.918  0.00  0.00    +0.000 NA
ATOM     29  C   UNL     1       1.829   8.538  18.094  0.00  0.00    +0.000 A 
ENDBRANCH  22  24
ENDBRANCH  19  20
ENDBRANCH   1  19
TORSDOF 7
ENDMDL
MODEL 8
REMARK VINA RESULT:      -7.2      1.675      2.465
REMARK  Name = 
REMARK  8 active torsions:
REMARK  status: ('A' for Active; 'I' for Inactive)
REMARK    1  A    between atoms: C_1  and  O_2
REMARK    2  A    between atoms: O_2  and  C_3
REMARK    3  A    between atoms: C_8  and  N_9
REMARK    4  A    between atoms: N_9  and  C_10
REMARK    5  A    between atoms: N_9  and  S_20
REMARK    6  A    between atoms: C_10  and  C_11
REMARK    7  A    between atoms: N_13  and  C_14
REMARK    8  A    between atoms: S_20  and  C_23
REMARK                            x       y       z     vdW  Elec       q    Type
REMARK                         _______ _______ _______ _____ _____    ______ ____
ROOT
ATOM      1  N   UNL     1       3.820   5.818  18.014  0.00  0.00    +0.000 N 
ENDROOT
BRANCH   1   7
ATOM      2  C   UNL     1       5.918   5.087  16.788  0.00  0.00    +0.000 A 
ATOM      3  C   UNL     1       7.287   4.779  16.867  0.00  0.00    +0.000 A 
ATOM      4  C   UNL     1       7.958   4.796  18.089  0.00  0.00    +0.000 A 
ATOM      5  C   UNL     1       7.263   5.092  19.253  0.00  0.00    +0.000 A 
ATOM      6  C   UNL     1       5.905   5.409  19.193  0.00  0.00    +0.000 A 
ATOM      7  C   UNL     1       5.226   5.451  17.967  0.00  0.00    +0.000 A 
BRANCH   2   9
ATOM      8  C   UNL     1       5.929   4.648  14.445  0.00  0.00    +0.000 C 
ATOM      9  O   UNL     1       5.206   5.039  15.613  0.00  0.00    +0.000 OA
ENDBRANCH   2   9
ENDBRANCH   1   7
BRANCH   1  10
ATOM     10  S   UNL     1       2.694   4.537  17.831  0.00  0.00    +0.000 S 
ATOM     11  O   UNL     1       1.410   5.112  17.476  0.00  0.00    +0.000 OA
ATOM     12  O   UNL     1       3.297   3.543  16.966  0.00  0.00    +0.000 OA
BRANCH  10  13
ATOM     13  C   UNL     1       2.491   3.793  19.448  0.00  0.00    +0.000 A 
ATOM     14  C   UNL     1       1.217   3.779  20.036  0.00  0.00    +0.000 A 
ATOM     15  C   UNL     1       0.996   3.069  21.220  0.00  0.00    +0.000 A 
ATOM     16  C   UNL     1       2.040   2.359  21.811  0.00  0.00    +0.000 A 
ATOM     17  C   UNL     1       3.307   2.355  21.217  0.00  0.00    +0.000 A 
ATOM     18  C   UNL     1       3.534   3.065  20.032  0.00  0.00    +0.000 A 
ENDBRANCH  10  13
ENDBRANCH   1  10
BRANCH   1  19
ATOM     19  C   UNL     1       3.406   7.120  17.434  0.00  0.00    +0.000 C 
BRANCH  19  20
ATOM     20  C   UNL     1       2.544   8.013  18.336  0.00  0.00    +0.000 C 
ATOM     21  O   UNL     1       2.272   7.635  19.474  0.00  0.00    +0.000 OA
ATOM     22  N   UNL     1       1.995   9.138  17.724  0.00  0.00    +0.000 N 
ATOM     23  H   UNL     1       2.353   9.361  16.803  0.00  0.00    +0.000 HD
BRANCH  22  24
ATOM     24  C   UNL     1       0.981   9.995  18.250  0.00  0.00    +0.000 A 
ATOM     25  C   UNL     1      -0.394   9.759  18.151  0.00  0.00    +0.000 A 
ATOM     26  C   UNL     1      -1.311  10.683  18.669  0.00  0.00    +0.000 A 
ATOM     27  C   UNL     1      -0.831  11.830  19.279  0.00  0.00    +0.000 A 
ATOM     28  N   UNL     1       0.481  12.105  19.403  0.00  0.00    +0.000 NA
ATOM     29  C   UNL     1       1.344  11.184  18.891  0.00  0.00    +0.000 A 
ENDBRANCH  22  24
ENDBRANCH  19  20
ENDBRANCH   1  19
TORSDOF 7
ENDMDL
MODEL 9
REMARK VINA RESULT:      -7.2      2.100      2.496
REMARK  Name = 
REMARK  8 active torsions:
REMARK  status: ('A' for Active; 'I' for Inactive)
REMARK    1  A    between atoms: C_1  and  O_2
REMARK    2  A    between atoms: O_2  and  C_3
REMARK    3  A    between atoms: C_8  and  N_9
REMARK    4  A    between atoms: N_9  and  C_10
REMARK    5  A    between atoms: N_9  and  S_20
REMARK    6  A    between atoms: C_10  and  C_11
REMARK    7  A    between atoms: N_13  and  C_14
REMARK    8  A    between atoms: S_20  and  C_23
REMARK                            x       y       z     vdW  Elec       q    Type
REMARK                         _______ _______ _______ _____ _____    ______ ____
ROOT
ATOM      1  N   UNL     1       4.383   5.636  17.833  0.00  0.00    +0.000 N 
ENDROOT
BRANCH   1   7
ATOM      2  C   UNL     1       6.538   5.969  16.534  0.00  0.00    +0.000 A 
ATOM      3  C   UNL     1       7.304   5.626  15.407  0.00  0.00    +0.000 A 
ATOM      4  C   UNL     1       6.810   4.749  14.442  0.00  0.00    +0.000 A 
ATOM      5  C   UNL     1       5.531   4.227  14.575  0.00  0.00    +0.000 A 
ATOM      6  C   UNL     1       4.759   4.550  15.692  0.00  0.00    +0.000 A 
ATOM      7  C   UNL     1       5.259   5.386  16.701  0.00  0.00    +0.000 A 
BRANCH   2   9
ATOM      8  C   UNL     1       7.804   6.342  18.519  0.00  0.00    +0.000 C 
ATOM      9  O   UNL     1       6.966   6.863  17.487  0.00  0.00    +0.000 OA
ENDBRANCH   2   9
ENDBRANCH   1   7
BRANCH   1  10
ATOM     10  S   UNL     1       4.566   4.589  19.180  0.00  0.00    +0.000 S 
ATOM     11  O   UNL     1       5.592   3.615  18.858  0.00  0.00    +0.000 OA
ATOM     12  O   UNL     1       4.710   5.416  20.362  0.00  0.00    +0.000 OA
BRANCH  10  13
ATOM     13  C   UNL     1       3.031   3.681  19.341  0.00  0.00    +0.000 A 
ATOM     14  C   UNL     1       2.126   4.046  20.350  0.00  0.00    +0.000 A 
ATOM     15  C   UNL     1       0.856   3.464  20.401  0.00  0.00    +0.000 A 
ATOM     16  C   UNL     1       0.480   2.528  19.438  0.00  0.00    +0.000 A 
ATOM     17  C   UNL     1       1.373   2.176  18.420  0.00  0.00    +0.000 A 
ATOM     18  C   UNL     1       2.647   2.755  18.364  0.00  0.00    +0.000 A 
ENDBRANCH  10  13
ENDBRANCH   1  10
BRANCH   1  19
ATOM     19  C   UNL     1       2.999   6.103  17.571  0.00  0.00    +0.000 C 
BRANCH  19  20
ATOM     20  C   UNL     1       2.560   7.362  18.332  0.00  0.00    +0.000 C 
ATOM     21  O   UNL     1       2.481   7.326  19.558  0.00  0.00    +0.000 OA
ATOM     22  N   UNL     1       2.125   8.423  17.542  0.00  0.00    +0.000 N 
ATOM     23  H   UNL     1       2.303   8.339  16.548  0.00  0.00    +0.000 HD
BRANCH  22  24
ATOM     24  C   UNL     1       1.450   9.602  17.982  0.00  0.00    +0.000 A 
ATOM     25  C   UNL     1       0.067   9.711  18.156  0.00  0.00    +0.000 A 
ATOM     26  C   UNL     1      -0.504  10.928  18.555  0.00  0.00    +0.000 A 
ATOM     27  C   UNL     1       0.326  12.015  18.774  0.00  0.00    +0.000 A 
ATOM     28  N   UNL     1       1.663  11.964  18.624  0.00  0.00    +0.000 NA
ATOM     29  C   UNL     1       2.184  10.765  18.237  0.00  0.00    +0.000 A 
ENDBRANCH  22  24
ENDBRANCH  19  20
ENDBRANCH   1  19
TORSDOF 7
ENDMDL
