MODEL 1
REMARK VINA RESULT:      -6.2      0.000      0.000
REMARK  Name = 
REMARK  8 active torsions:
REMARK  status: ('A' for Active; 'I' for Inactive)
REMARK    1  A    between atoms: C_1  and  O_2
REMARK    2  A    between atoms: O_2  and  C_3
REMARK    3  A    between atoms: C_5  and  C_6
REMARK    4  A    between atoms: C_6  and  S_7
REMARK    5  A    between atoms: S_7  and  O_10
REMARK    6  A    between atoms: C_11  and  O_12
REMARK    7  A    between atoms: C_13  and  O_14
REMARK    8  A    between atoms: C_15  and  O_16
REMARK                            x       y       z     vdW  Elec       q    Type
REMARK                         _______ _______ _______ _____ _____    ______ ____
ROOT
ATOM      1  C   UNL     1       3.714   2.723  20.022  0.00  0.00    +0.000 C 
ATOM      2  O   UNL     1       4.321   4.013  20.051  0.00  0.00    +0.000 OA
ATOM      3  C   UNL     1       5.034   4.342  18.861  0.00  0.00    +0.000 C 
ATOM      4  C   UNL     1       4.051   4.398  17.683  0.00  0.00    +0.000 C 
ATOM      5  C   UNL     1       3.245   3.090  17.584  0.00  0.00    +0.000 C 
ATOM      6  C   UNL     1       2.617   2.706  18.934  0.00  0.00    +0.000 C 
ENDROOT
BRANCH   1   8
ATOM      7  C   UNL     1       2.157   3.433  21.649  0.00  0.00    +0.000 C 
ATOM      8  O   UNL     1       3.124   2.453  21.293  0.00  0.00    +0.000 OA
ENDBRANCH   1   8
BRANCH   4   9
ATOM      9  O   UNL     1       4.777   4.664  16.482  0.00  0.00    +0.000 OA
ATOM     10  H   UNL     1       4.307   4.255  15.731  0.00  0.00    +0.000 HD
ENDBRANCH   4   9
BRANCH   5  11
ATOM     11  O   UNL     1       2.256   3.219  16.554  0.00  0.00    +0.000 OA
ATOM     12  H   UNL     1       1.423   2.830  16.879  0.00  0.00    +0.000 HD
ENDBRANCH   5  11
BRANCH   6  13
ATOM     13  O   UNL     1       1.957   1.437  18.826  0.00  0.00    +0.000 OA
ATOM     14  H   UNL     1       1.895   1.035  19.708  0.00  0.00    +0.000 HD
ENDBRANCH   6  13
BRANCH   3  15
ATOM     15  C   UNL     1       5.683   5.708  19.065  0.00  0.00    +0.000 C 
BRANCH  15  16
ATOM     16  S   UNL     1       7.446   5.609  18.839  0.00  0.00    +0.000 S 
ATOM     17  O   UNL     1       7.836   4.371  18.209  0.00  0.00    +0.000 OA
ATOM     18  O   UNL     1       7.944   6.893  18.393  0.00  0.00    +0.000 OA
BRANCH  16  19
ATOM     19  O   UNL     1       7.851   5.427  20.394  0.00  0.00    +0.000 OA
ATOM     20  H   UNL     1       8.181   4.509  20.502  0.00  0.00    +0.000 HD
ENDBRANCH  16  19
ENDBRANCH  15  16
ENDBRANCH   3  15
TORSDOF 7
ENDMDL
MODEL 2
REMARK VINA RESULT:      -6.2      2.586      5.278
REMARK  Name = 
REMARK  8 active torsions:
REMARK  status: ('A' for Active; 'I' for Inactive)
REMARK    1  A    between atoms: C_1  and  O_2
REMARK    2  A    between atoms: O_2  and  C_3
REMARK    3  A    between atoms: C_5  and  C_6
REMARK    4  A    between atoms: C_6  and  S_7
REMARK    5  A    between atoms: S_7  and  O_10
REMARK    6  A    between atoms: C_11  and  O_12
REMARK    7  A    between atoms: C_13  and  O_14
REMARK    8  A    between atoms: C_15  and  O_16
REMARK                            x       y       z     vdW  Elec       q    Type
REMARK                         _______ _______ _______ _____ _____    ______ ____
ROOT
ATOM      1  C   UNL     1       3.881   6.243  17.626  0.00  0.00    +0.000 C 
ATOM      2  O   UNL     1       3.394   5.917  18.927  0.00  0.00    +0.000 OA
ATOM      3  C   UNL     1       3.495   4.532  19.250  0.00  0.00    +0.000 C 
ATOM      4  C   UNL     1       4.975   4.126  19.273  0.00  0.00    +0.000 C 
ATOM      5  C   UNL     1       5.664   4.507  17.951  0.00  0.00    +0.000 C 
ATOM      6  C   UNL     1       5.402   5.975  17.576  0.00  0.00    +0.000 C 
ENDROOT
BRANCH   1   8
ATOM      7  C   UNL     1       2.523   8.114  18.103  0.00  0.00    +0.000 C 
ATOM      8  O   UNL     1       3.634   7.624  17.365  0.00  0.00    +0.000 OA
ENDBRANCH   1   8
BRANCH   4   9
ATOM      9  O   UNL     1       5.070   2.724  19.534  0.00  0.00    +0.000 OA
ATOM     10  H   UNL     1       5.746   2.339  18.945  0.00  0.00    +0.000 HD
ENDBRANCH   4   9
BRANCH   5  11
ATOM     11  O   UNL     1       7.067   4.226  18.048  0.00  0.00    +0.000 OA
ATOM     12  H   UNL     1       7.509   5.001  18.442  0.00  0.00    +0.000 HD
ENDBRANCH   5  11
BRANCH   6  13
ATOM     13  O   UNL     1       5.977   6.266  16.294  0.00  0.00    +0.000 OA
ATOM     14  H   UNL     1       5.593   5.671  15.631  0.00  0.00    +0.000 HD
ENDBRANCH   6  13
BRANCH   3  15
ATOM     15  C   UNL     1       2.876   4.326  20.629  0.00  0.00    +0.000 C 
BRANCH  15  16
ATOM     16  S   UNL     1       1.824   2.890  20.641  0.00  0.00    +0.000 S 
ATOM     17  O   UNL     1       2.100   2.015  19.527  0.00  0.00    +0.000 OA
ATOM     18  O   UNL     1       1.699   2.399  21.996  0.00  0.00    +0.000 OA
BRANCH  16  19
ATOM     19  O   UNL     1       0.442   3.634  20.248  0.00  0.00    +0.000 OA
ATOM     20  H   UNL     1      -0.029   3.053  19.612  0.00  0.00    +0.000 HD
ENDBRANCH  16  19
ENDBRANCH  15  16
ENDBRANCH   3  15
TORSDOF 7
ENDMDL
MODEL 3
REMARK VINA RESULT:      -6.2      1.938      2.533
REMARK  Name = 
REMARK  8 active torsions:
REMARK  status: ('A' for Active; 'I' for Inactive)
REMARK    1  A    between atoms: C_1  and  O_2
REMARK    2  A    between atoms: O_2  and  C_3
REMARK    3  A    between atoms: C_5  and  C_6
REMARK    4  A    between atoms: C_6  and  S_7
REMARK    5  A    between atoms: S_7  and  O_10
REMARK    6  A    between atoms: C_11  and  O_12
REMARK    7  A    between atoms: C_13  and  O_14
REMARK    8  A    between atoms: C_15  and  O_16
REMARK                            x       y       z     vdW  Elec       q    Type
REMARK                         _______ _______ _______ _____ _____    ______ ____
ROOT
ATOM      1  C   UNL     1       2.674   4.928  19.781  0.00  0.00    +0.000 C 
ATOM      2  O   UNL     1       3.548   5.044  18.660  0.00  0.00    +0.000 OA
ATOM      3  C   UNL     1       4.311   3.868  18.400  0.00  0.00    +0.000 C 
ATOM      4  C   UNL     1       3.360   2.719  18.039  0.00  0.00    +0.000 C 
ATOM      5  C   UNL     1       2.289   2.536  19.129  0.00  0.00    +0.000 C 
ATOM      6  C   UNL     1       1.596   3.864  19.473  0.00  0.00    +0.000 C 
ENDROOT
BRANCH   1   8
ATOM      7  C   UNL     1       2.537   7.199  19.151  0.00  0.00    +0.000 C 
ATOM      8  O   UNL     1       2.042   6.186  20.017  0.00  0.00    +0.000 OA
ENDBRANCH   1   8
BRANCH   4   9
ATOM      9  O   UNL     1       4.124   1.527  17.842  0.00  0.00    +0.000 OA
ATOM     10  H   UNL     1       3.515   0.790  17.647  0.00  0.00    +0.000 HD
ENDBRANCH   4   9
BRANCH   5  11
ATOM     11  O   UNL     1       1.349   1.538  18.707  0.00  0.00    +0.000 OA
ATOM     12  H   UNL     1       1.659   0.670  19.026  0.00  0.00    +0.000 HD
ENDBRANCH   5  11
BRANCH   6  13
ATOM     13  O   UNL     1       0.675   3.672  20.556  0.00  0.00    +0.000 OA
ATOM     14  H   UNL     1      -0.168   4.101  20.337  0.00  0.00    +0.000 HD
ENDBRANCH   6  13
BRANCH   3  15
ATOM     15  C   UNL     1       5.242   4.163  17.229  0.00  0.00    +0.000 C 
BRANCH  15  16
ATOM     16  S   UNL     1       6.671   5.077  17.772  0.00  0.00    +0.000 S 
ATOM     17  O   UNL     1       7.900   4.446  17.356  0.00  0.00    +0.000 OA
ATOM     18  O   UNL     1       6.430   6.493  17.592  0.00  0.00    +0.000 OA
BRANCH  16  19
ATOM     19  O   UNL     1       6.550   4.744  19.350  0.00  0.00    +0.000 OA
ATOM     20  H   UNL     1       6.662   5.591  19.834  0.00  0.00    +0.000 HD
ENDBRANCH  16  19
ENDBRANCH  15  16
ENDBRANCH   3  15
TORSDOF 7
ENDMDL
MODEL 4
REMARK VINA RESULT:      -6.2      1.963      2.784
REMARK  Name = 
REMARK  8 active torsions:
REMARK  status: ('A' for Active; 'I' for Inactive)
REMARK    1  A    between atoms: C_1  and  O_2
REMARK    2  A    between atoms: O_2  and  C_3
REMARK    3  A    between atoms: C_5  and  C_6
REMARK    4  A    between atoms: C_6  and  S_7
REMARK    5  A    between atoms: S_7  and  O_10
REMARK    6  A    between atoms: C_11  and  O_12
REMARK    7  A    between atoms: C_13  and  O_14
REMARK    8  A    between atoms: C_15  and  O_16
REMARK                            x       y       z     vdW  Elec       q    Type
REMARK                         _______ _______ _______ _____ _____    ______ ____
ROOT
ATOM      1  C   UNL     1       2.755   5.014  19.593  0.00  0.00    +0.000 C 
ATOM      2  O   UNL     1       3.670   5.018  18.499  0.00  0.00    +0.000 OA
ATOM      3  C   UNL     1       4.360   3.783  18.320  0.00  0.00    +0.000 C 
ATOM      4  C   UNL     1       3.346   2.683  17.979  0.00  0.00    +0.000 C 
ATOM      5  C   UNL     1       2.231   2.624  19.038  0.00  0.00    +0.000 C 
ATOM      6  C   UNL     1       1.618   4.010  19.297  0.00  0.00    +0.000 C 
ENDROOT
BRANCH   1   8
ATOM      7  C   UNL     1       2.532   7.170  18.655  0.00  0.00    +0.000 C 
ATOM      8  O   UNL     1       2.203   6.321  19.748  0.00  0.00    +0.000 OA
ENDBRANCH   1   8
BRANCH   4   9
ATOM      9  O   UNL     1       4.033   1.435  17.865  0.00  0.00    +0.000 OA
ATOM     10  H   UNL     1       3.671   0.814  18.525  0.00  0.00    +0.000 HD
ENDBRANCH   4   9
BRANCH   5  11
ATOM     11  O   UNL     1       1.239   1.672  18.631  0.00  0.00    +0.000 OA
ATOM     12  H   UNL     1       0.539   1.648  19.310  0.00  0.00    +0.000 HD
ENDBRANCH   5  11
BRANCH   6  13
ATOM     13  O   UNL     1       0.653   3.932  20.355  0.00  0.00    +0.000 OA
ATOM     14  H   UNL     1       1.084   4.153  21.196  0.00  0.00    +0.000 HD
ENDBRANCH   6  13
BRANCH   3  15
ATOM     15  C   UNL     1       5.346   3.959  17.169  0.00  0.00    +0.000 C 
BRANCH  15  16
ATOM     16  S   UNL     1       6.819   4.793  17.721  0.00  0.00    +0.000 S 
ATOM     17  O   UNL     1       6.974   4.714  19.154  0.00  0.00    +0.000 OA
ATOM     18  O   UNL     1       7.904   4.502  16.810  0.00  0.00    +0.000 OA
BRANCH  16  19
ATOM     19  O   UNL     1       6.324   6.308  17.444  0.00  0.00    +0.000 OA
ATOM     20  H   UNL     1       6.823   6.638  16.666  0.00  0.00    +0.000 HD
ENDBRANCH  16  19
ENDBRANCH  15  16
ENDBRANCH   3  15
TORSDOF 7
ENDMDL
MODEL 5
REMARK VINA RESULT:      -6.2      0.190      1.084
REMARK  Name = 
REMARK  8 active torsions:
REMARK  status: ('A' for Active; 'I' for Inactive)
REMARK    1  A    between atoms: C_1  and  O_2
REMARK    2  A    between atoms: O_2  and  C_3
REMARK    3  A    between atoms: C_5  and  C_6
REMARK    4  A    between atoms: C_6  and  S_7
REMARK    5  A    between atoms: S_7  and  O_10
REMARK    6  A    between atoms: C_11  and  O_12
REMARK    7  A    between atoms: C_13  and  O_14
REMARK    8  A    between atoms: C_15  and  O_16
REMARK                            x       y       z     vdW  Elec       q    Type
REMARK                         _______ _______ _______ _____ _____    ______ ____
ROOT
ATOM      1  C   UNL     1       3.595   2.705  20.057  0.00  0.00    +0.000 C 
ATOM      2  O   UNL     1       4.186   4.003  20.069  0.00  0.00    +0.000 OA
ATOM      3  C   UNL     1       4.905   4.321  18.879  0.00  0.00    +0.000 C 
ATOM      4  C   UNL     1       3.933   4.344  17.693  0.00  0.00    +0.000 C 
ATOM      5  C   UNL     1       3.145   3.024  17.609  0.00  0.00    +0.000 C 
ATOM      6  C   UNL     1       2.509   2.655  18.959  0.00  0.00    +0.000 C 
ENDROOT
BRANCH   1   8
ATOM      7  C   UNL     1       2.058   3.456  21.683  0.00  0.00    +0.000 C 
ATOM      8  O   UNL     1       2.997   2.449  21.327  0.00  0.00    +0.000 OA
ENDBRANCH   1   8
BRANCH   4   9
ATOM      9  O   UNL     1       4.668   4.598  16.493  0.00  0.00    +0.000 OA
ATOM     10  H   UNL     1       4.732   5.563  16.362  0.00  0.00    +0.000 HD
ENDBRANCH   4   9
BRANCH   5  11
ATOM     11  O   UNL     1       2.164   3.122  16.567  0.00  0.00    +0.000 OA
ATOM     12  H   UNL     1       1.780   2.237  16.424  0.00  0.00    +0.000 HD
ENDBRANCH   5  11
BRANCH   6  13
ATOM     13  O   UNL     1       1.867   1.376  18.867  0.00  0.00    +0.000 OA
ATOM     14  H   UNL     1       2.512   0.680  19.074  0.00  0.00    +0.000 HD
ENDBRANCH   6  13
BRANCH   3  15
ATOM     15  C   UNL     1       5.535   5.698  19.066  0.00  0.00    +0.000 C 
BRANCH  15  16
ATOM     16  S   UNL     1       7.311   5.593  19.009  0.00  0.00    +0.000 S 
ATOM     17  O   UNL     1       7.885   6.655  18.219  0.00  0.00    +0.000 OA
ATOM     18  O   UNL     1       7.812   5.250  20.323  0.00  0.00    +0.000 OA
BRANCH  16  19
ATOM     19  O   UNL     1       7.419   4.278  18.073  0.00  0.00    +0.000 OA
ATOM     20  H   UNL     1       6.591   4.228  17.547  0.00  0.00    +0.000 HD
ENDBRANCH  16  19
ENDBRANCH  15  16
ENDBRANCH   3  15
TORSDOF 7
ENDMDL
MODEL 6
REMARK VINA RESULT:      -6.1      1.911      2.695
REMARK  Name = 
REMARK  8 active torsions:
REMARK  status: ('A' for Active; 'I' for Inactive)
REMARK    1  A    between atoms: C_1  and  O_2
REMARK    2  A    between atoms: O_2  and  C_3
REMARK    3  A    between atoms: C_5  and  C_6
REMARK    4  A    between atoms: C_6  and  S_7
REMARK    5  A    between atoms: S_7  and  O_10
REMARK    6  A    between atoms: C_11  and  O_12
REMARK    7  A    between atoms: C_13  and  O_14
REMARK    8  A    between atoms: C_15  and  O_16
REMARK                            x       y       z     vdW  Elec       q    Type
REMARK                         _______ _______ _______ _____ _____    ______ ____
ROOT
ATOM      1  C   UNL     1       2.824   5.028  19.781  0.00  0.00    +0.000 C 
ATOM      2  O   UNL     1       3.778   5.099  18.723  0.00  0.00    +0.000 OA
ATOM      3  C   UNL     1       4.472   3.875  18.490  0.00  0.00    +0.000 C 
ATOM      4  C   UNL     1       3.469   2.803  18.043  0.00  0.00    +0.000 C 
ATOM      5  C   UNL     1       2.316   2.680  19.055  0.00  0.00    +0.000 C 
ATOM      6  C   UNL     1       1.697   4.050  19.380  0.00  0.00    +0.000 C 
ENDROOT
BRANCH   1   8
ATOM      7  C   UNL     1       2.464   7.182  18.882  0.00  0.00    +0.000 C 
ATOM      8  O   UNL     1       2.268   6.325  20.000  0.00  0.00    +0.000 OA
ENDBRANCH   1   8
BRANCH   4   9
ATOM      9  O   UNL     1       4.158   1.563  17.873  0.00  0.00    +0.000 OA
ATOM     10  H   UNL     1       4.057   1.270  16.948  0.00  0.00    +0.000 HD
ENDBRANCH   4   9
BRANCH   5  11
ATOM     11  O   UNL     1       1.339   1.760  18.552  0.00  0.00    +0.000 OA
ATOM     12  H   UNL     1       1.776   1.166  17.914  0.00  0.00    +0.000 HD
ENDBRANCH   5  11
BRANCH   6  13
ATOM     13  O   UNL     1       0.694   3.908  20.395  0.00  0.00    +0.000 OA
ATOM     14  H   UNL     1       0.416   2.978  20.441  0.00  0.00    +0.000 HD
ENDBRANCH   6  13
BRANCH   3  15
ATOM     15  C   UNL     1       5.499   4.121  17.390  0.00  0.00    +0.000 C 
BRANCH  15  16
ATOM     16  S   UNL     1       6.880   5.057  18.012  0.00  0.00    +0.000 S 
ATOM     17  O   UNL     1       6.998   6.337  17.357  0.00  0.00    +0.000 OA
ATOM     18  O   UNL     1       6.943   4.918  19.451  0.00  0.00    +0.000 OA
BRANCH  16  19
ATOM     19  O   UNL     1       8.058   4.155  17.369  0.00  0.00    +0.000 OA
ATOM     20  H   UNL     1       8.519   3.707  18.112  0.00  0.00    +0.000 HD
ENDBRANCH  16  19
ENDBRANCH  15  16
ENDBRANCH   3  15
TORSDOF 7
ENDMDL
MODEL 7
REMARK VINA RESULT:      -6.1      2.105      3.194
REMARK  Name = 
REMARK  8 active torsions:
REMARK  status: ('A' for Active; 'I' for Inactive)
REMARK    1  A    between atoms: C_1  and  O_2
REMARK    2  A    between atoms: O_2  and  C_3
REMARK    3  A    between atoms: C_5  and  C_6
REMARK    4  A    between atoms: C_6  and  S_7
REMARK    5  A    between atoms: S_7  and  O_10
REMARK    6  A    between atoms: C_11  and  O_12
REMARK    7  A    between atoms: C_13  and  O_14
REMARK    8  A    between atoms: C_15  and  O_16
REMARK                            x       y       z     vdW  Elec       q    Type
REMARK                         _______ _______ _______ _____ _____    ______ ____
ROOT
ATOM      1  C   UNL     1       3.071   6.081  19.599  0.00  0.00    +0.000 C 
ATOM      2  O   UNL     1       4.018   5.751  18.585  0.00  0.00    +0.000 OA
ATOM      3  C   UNL     1       4.902   4.692  18.944  0.00  0.00    +0.000 C 
ATOM      4  C   UNL     1       4.090   3.407  19.156  0.00  0.00    +0.000 C 
ATOM      5  C   UNL     1       2.956   3.640  20.170  0.00  0.00    +0.000 C 
ATOM      6  C   UNL     1       2.121   4.881  19.813  0.00  0.00    +0.000 C 
ENDROOT
BRANCH   1   8
ATOM      7  C   UNL     1       2.799   7.761  17.963  0.00  0.00    +0.000 C 
ATOM      8  O   UNL     1       2.313   7.216  19.183  0.00  0.00    +0.000 OA
ENDBRANCH   1   8
BRANCH   4   9
ATOM      9  O   UNL     1       4.971   2.363  19.578  0.00  0.00    +0.000 OA
ATOM     10  H   UNL     1       5.291   2.566  20.477  0.00  0.00    +0.000 HD
ENDBRANCH   4   9
BRANCH   5  11
ATOM     11  O   UNL     1       2.145   2.460  20.255  0.00  0.00    +0.000 OA
ATOM     12  H   UNL     1       2.279   2.059  21.134  0.00  0.00    +0.000 HD
ENDBRANCH   5  11
BRANCH   6  13
ATOM     13  O   UNL     1       1.138   5.122  20.829  0.00  0.00    +0.000 OA
ATOM     14  H   UNL     1       1.012   6.079  20.930  0.00  0.00    +0.000 HD
ENDBRANCH   6  13
BRANCH   3  15
ATOM     15  C   UNL     1       5.894   4.501  17.801  0.00  0.00    +0.000 C 
BRANCH  15  16
ATOM     16  S   UNL     1       7.464   5.239  18.197  0.00  0.00    +0.000 S 
ATOM     17  O   UNL     1       7.774   6.342  17.320  0.00  0.00    +0.000 OA
ATOM     18  O   UNL     1       7.599   5.334  19.635  0.00  0.00    +0.000 OA
BRANCH  16  19
ATOM     19  O   UNL     1       8.406   4.028  17.685  0.00  0.00    +0.000 OA
ATOM     20  H   UNL     1       7.817   3.349  17.291  0.00  0.00    +0.000 HD
ENDBRANCH  16  19
ENDBRANCH  15  16
ENDBRANCH   3  15
TORSDOF 7
ENDMDL
MODEL 8
REMARK VINA RESULT:      -6.1      2.715      5.711
REMARK  Name = 
REMARK  8 active torsions:
REMARK  status: ('A' for Active; 'I' for Inactive)
REMARK    1  A    between atoms: C_1  and  O_2
REMARK    2  A    between atoms: O_2  and  C_3
REMARK    3  A    between atoms: C_5  and  C_6
REMARK    4  A    between atoms: C_6  and  S_7
REMARK    5  A    between atoms: S_7  and  O_10
REMARK    6  A    between atoms: C_11  and  O_12
REMARK    7  A    between atoms: C_13  and  O_14
REMARK    8  A    between atoms: C_15  and  O_16
REMARK                            x       y       z     vdW  Elec       q    Type
REMARK                         _______ _______ _______ _____ _____    ______ ____
ROOT
ATOM      1  C   UNL     1       5.784   4.146  15.242  0.00  0.00    +0.000 C 
ATOM      2  O   UNL     1       4.667   4.113  16.128  0.00  0.00    +0.000 OA
ATOM      3  C   UNL     1       5.017   3.865  17.488  0.00  0.00    +0.000 C 
ATOM      4  C   UNL     1       5.891   5.017  18.002  0.00  0.00    +0.000 C 
ATOM      5  C   UNL     1       7.103   5.234  17.079  0.00  0.00    +0.000 C 
ATOM      6  C   UNL     1       6.681   5.351  15.605  0.00  0.00    +0.000 C 
ENDROOT
BRANCH   1   8
ATOM      7  C   UNL     1       6.045   3.474  12.994  0.00  0.00    +0.000 C 
ATOM      8  O   UNL     1       5.317   4.291  13.902  0.00  0.00    +0.000 OA
ENDBRANCH   1   8
BRANCH   4   9
ATOM      9  O   UNL     1       6.292   4.733  19.344  0.00  0.00    +0.000 OA
ATOM     10  H   UNL     1       7.137   4.246  19.325  0.00  0.00    +0.000 HD
ENDBRANCH   4   9
BRANCH   5  11
ATOM     11  O   UNL     1       7.832   6.389  17.517  0.00  0.00    +0.000 OA
ATOM     12  H   UNL     1       8.115   6.890  16.729  0.00  0.00    +0.000 HD
ENDBRANCH   5  11
BRANCH   6  13
ATOM     13  O   UNL     1       7.841   5.456  14.768  0.00  0.00    +0.000 OA
ATOM     14  H   UNL     1       7.901   6.361  14.419  0.00  0.00    +0.000 HD
ENDBRANCH   6  13
BRANCH   3  15
ATOM     15  C   UNL     1       3.726   3.787  18.297  0.00  0.00    +0.000 C 
BRANCH  15  16
ATOM     16  S   UNL     1       3.697   2.317  19.300  0.00  0.00    +0.000 S 
ATOM     17  O   UNL     1       4.841   2.242  20.175  0.00  0.00    +0.000 OA
ATOM     18  O   UNL     1       2.348   2.085  19.771  0.00  0.00    +0.000 OA
BRANCH  16  19
ATOM     19  O   UNL     1       4.007   1.249  18.125  0.00  0.00    +0.000 OA
ATOM     20  H   UNL     1       3.248   1.275  17.502  0.00  0.00    +0.000 HD
ENDBRANCH  16  19
ENDBRANCH  15  16
ENDBRANCH   3  15
TORSDOF 7
ENDMDL
MODEL 9
REMARK VINA RESULT:      -6.0      1.933      2.376
REMARK  Name = 
REMARK  8 active torsions:
REMARK  status: ('A' for Active; 'I' for Inactive)
REMARK    1  A    between atoms: C_1  and  O_2
REMARK    2  A    between atoms: O_2  and  C_3
REMARK    3  A    between atoms: C_5  and  C_6
REMARK    4  A    between atoms: C_6  and  S_7
REMARK    5  A    between atoms: S_7  and  O_10
REMARK    6  A    between atoms: C_11  and  O_12
REMARK    7  A    between atoms: C_13  and  O_14
REMARK    8  A    between atoms: C_15  and  O_16
REMARK                            x       y       z     vdW  Elec       q    Type
REMARK                         _______ _______ _______ _____ _____    ______ ____
ROOT
ATOM      1  C   UNL     1       2.377   5.101  20.359  0.00  0.00    +0.000 C 
ATOM      2  O   UNL     1       3.309   5.717  19.473  0.00  0.00    +0.000 OA
ATOM      3  C   UNL     1       4.350   4.848  19.034  0.00  0.00    +0.000 C 
ATOM      4  C   UNL     1       3.739   3.698  18.223  0.00  0.00    +0.000 C 
ATOM      5  C   UNL     1       2.635   2.989  19.028  0.00  0.00    +0.000 C 
ATOM      6  C   UNL     1       1.617   3.990  19.599  0.00  0.00    +0.000 C 
ENDROOT
BRANCH   1   8
ATOM      7  C   UNL     1       1.843   7.398  20.460  0.00  0.00    +0.000 C 
ATOM      8  O   UNL     1       1.446   6.081  20.818  0.00  0.00    +0.000 OA
ENDBRANCH   1   8
BRANCH   4   9
ATOM      9  O   UNL     1       4.778   2.794  17.840  0.00  0.00    +0.000 OA
ATOM     10  H   UNL     1       4.982   2.929  16.895  0.00  0.00    +0.000 HD
ENDBRANCH   4   9
BRANCH   5  11
ATOM     11  O   UNL     1       2.004   2.001  18.202  0.00  0.00    +0.000 OA
ATOM     12  H   UNL     1       1.715   2.432  17.376  0.00  0.00    +0.000 HD
ENDBRANCH   5  11
BRANCH   6  13
ATOM     13  O   UNL     1       0.662   3.305  20.421  0.00  0.00    +0.000 OA
ATOM     14  H   UNL     1      -0.226   3.648  20.231  0.00  0.00    +0.000 HD
ENDBRANCH   6  13
BRANCH   3  15
ATOM     15  C   UNL     1       5.300   5.658  18.159  0.00  0.00    +0.000 C 
BRANCH  15  16
ATOM     16  S   UNL     1       6.991   5.390  18.645  0.00  0.00    +0.000 S 
ATOM     17  O   UNL     1       7.151   5.442  20.078  0.00  0.00    +0.000 OA
ATOM     18  O   UNL     1       7.557   4.326  17.844  0.00  0.00    +0.000 OA
BRANCH  16  19
ATOM     19  O   UNL     1       7.593   6.794  18.113  0.00  0.00    +0.000 OA
ATOM     20  H   UNL     1       7.174   7.508  18.640  0.00  0.00    +0.000 HD
ENDBRANCH  16  19
ENDBRANCH  15  16
ENDBRANCH   3  15
TORSDOF 7
ENDMDL
