MODEL 1
REMARK VINA RESULT:      -7.5      0.000      0.000
REMARK  Name = 
REMARK  3 active torsions:
REMARK  status: ('A' for Active; 'I' for Inactive)
REMARK    1  A    between atoms: O_1  and  C_2
REMARK    2  A    between atoms: C_6  and  C_7
REMARK    3  A    between atoms: C_10  and  O_11
REMARK                            x       y       z     vdW  Elec       q    Type
REMARK                         _______ _______ _______ _____ _____    ______ ____
ROOT
ATOM      1  C   UNL     1       1.819   2.606  21.263  0.00  0.00    +0.000 A 
ATOM      2  C   UNL     1       3.180   2.905  21.220  0.00  0.00    +0.000 A 
ATOM      3  C   UNL     1       3.760   3.383  20.036  0.00  0.00    +0.000 A 
ATOM      4  C   UNL     1       2.951   3.541  18.894  0.00  0.00    +0.000 A 
ATOM      5  C   UNL     1       3.110   3.958  17.534  0.00  0.00    +0.000 A 
ATOM      6  N   UNL     1       1.926   3.940  16.896  0.00  0.00    +0.000 NA
ATOM      7  O   UNL     1       0.995   3.482  17.810  0.00  0.00    +0.000 OA
ATOM      8  C   UNL     1       1.603   3.240  18.999  0.00  0.00    +0.000 A 
ATOM      9  C   UNL     1       0.988   2.768  20.155  0.00  0.00    +0.000 A 
ENDROOT
BRANCH   5  10
ATOM     10  C   UNL     1       4.334   4.364  16.842  0.00  0.00    +0.000 A 
ATOM     11  C   UNL     1       4.737   3.712  15.665  0.00  0.00    +0.000 A 
ATOM     12  C   UNL     1       5.905   4.099  14.997  0.00  0.00    +0.000 A 
ATOM     13  C   UNL     1       6.680   5.140  15.504  0.00  0.00    +0.000 A 
ATOM     14  C   UNL     1       6.296   5.790  16.677  0.00  0.00    +0.000 A 
ATOM     15 BR   UNL     1       7.318   7.210  17.409  0.00  0.00    +0.000 Br
ATOM     16  C   UNL     1       5.135   5.398  17.347  0.00  0.00    +0.000 A 
BRANCH  13  17
ATOM     17  O   UNL     1       7.818   5.522  14.854  0.00  0.00    +0.000 OA
ATOM     18  H   UNL     1       7.741   5.301  13.912  0.00  0.00    +0.000 HD
ENDBRANCH  13  17
ENDBRANCH   5  10
BRANCH   1  19
ATOM     19  O   UNL     1       1.243   2.144  22.413  0.00  0.00    +0.000 OA
ATOM     20  H   UNL     1       0.331   2.476  22.464  0.00  0.00    +0.000 HD
ENDBRANCH   1  19
TORSDOF 3
ENDMDL
MODEL 2
REMARK VINA RESULT:      -7.3      2.008      2.332
REMARK  Name = 
REMARK  3 active torsions:
REMARK  status: ('A' for Active; 'I' for Inactive)
REMARK    1  A    between atoms: O_1  and  C_2
REMARK    2  A    between atoms: C_6  and  C_7
REMARK    3  A    between atoms: C_10  and  O_11
REMARK                            x       y       z     vdW  Elec       q    Type
REMARK                         _______ _______ _______ _____ _____    ______ ____
ROOT
ATOM      1  C   UNL     1       2.241   3.070  21.335  0.00  0.00    +0.000 A 
ATOM      2  C   UNL     1       3.316   2.487  20.666  0.00  0.00    +0.000 A 
ATOM      3  C   UNL     1       3.998   3.199  19.669  0.00  0.00    +0.000 A 
ATOM      4  C   UNL     1       3.568   4.503  19.346  0.00  0.00    +0.000 A 
ATOM      5  C   UNL     1       3.933   5.539  18.430  0.00  0.00    +0.000 A 
ATOM      6  N   UNL     1       3.156   6.622  18.613  0.00  0.00    +0.000 NA
ATOM      7  O   UNL     1       2.261   6.297  19.616  0.00  0.00    +0.000 OA
ATOM      8  C   UNL     1       2.502   5.034  20.051  0.00  0.00    +0.000 A 
ATOM      9  C   UNL     1       1.803   4.363  21.051  0.00  0.00    +0.000 A 
ENDROOT
BRANCH   5  10
ATOM     10  C   UNL     1       4.978   5.525  17.406  0.00  0.00    +0.000 A 
ATOM     11  C   UNL     1       6.173   6.238  17.596  0.00  0.00    +0.000 A 
ATOM     12  C   UNL     1       7.177   6.224  16.622  0.00  0.00    +0.000 A 
ATOM     13  C   UNL     1       6.992   5.498  15.447  0.00  0.00    +0.000 A 
ATOM     14  C   UNL     1       5.807   4.793  15.241  0.00  0.00    +0.000 A 
ATOM     15 BR   UNL     1       5.505   3.792  13.657  0.00  0.00    +0.000 Br
ATOM     16  C   UNL     1       4.802   4.814  16.210  0.00  0.00    +0.000 A 
BRANCH  13  17
ATOM     17  O   UNL     1       7.972   5.480  14.495  0.00  0.00    +0.000 OA
ATOM     18  H   UNL     1       8.059   4.582  14.139  0.00  0.00    +0.000 HD
ENDBRANCH  13  17
ENDBRANCH   5  10
BRANCH   1  19
ATOM     19  O   UNL     1       1.573   2.386  22.311  0.00  0.00    +0.000 OA
ATOM     20  H   UNL     1       1.265   1.539  21.948  0.00  0.00    +0.000 HD
ENDBRANCH   1  19
TORSDOF 3
ENDMDL
MODEL 3
REMARK VINA RESULT:      -7.3      1.299      1.722
REMARK  Name = 
REMARK  3 active torsions:
REMARK  status: ('A' for Active; 'I' for Inactive)
REMARK    1  A    between atoms: O_1  and  C_2
REMARK    2  A    between atoms: C_6  and  C_7
REMARK    3  A    between atoms: C_10  and  O_11
REMARK                            x       y       z     vdW  Elec       q    Type
REMARK                         _______ _______ _______ _____ _____    ______ ____
ROOT
ATOM      1  C   UNL     1       1.412   2.760  21.467  0.00  0.00    +0.000 A 
ATOM      2  C   UNL     1       2.731   3.209  21.536  0.00  0.00    +0.000 A 
ATOM      3  C   UNL     1       3.376   3.684  20.386  0.00  0.00    +0.000 A 
ATOM      4  C   UNL     1       2.677   3.685  19.162  0.00  0.00    +0.000 A 
ATOM      5  C   UNL     1       2.930   4.041  17.799  0.00  0.00    +0.000 A 
ATOM      6  N   UNL     1       1.828   3.853  17.052  0.00  0.00    +0.000 NA
ATOM      7  O   UNL     1       0.862   3.343  17.900  0.00  0.00    +0.000 OA
ATOM      8  C   UNL     1       1.366   3.238  19.156  0.00  0.00    +0.000 A 
ATOM      9  C   UNL     1       0.689   2.765  20.276  0.00  0.00    +0.000 A 
ENDROOT
BRANCH   5  10
ATOM     10  C   UNL     1       4.169   4.544  17.204  0.00  0.00    +0.000 A 
ATOM     11  C   UNL     1       4.954   5.490  17.883  0.00  0.00    +0.000 A 
ATOM     12  C   UNL     1       6.141   5.971  17.320  0.00  0.00    +0.000 A 
ATOM     13  C   UNL     1       6.551   5.511  16.070  0.00  0.00    +0.000 A 
ATOM     14  C   UNL     1       5.777   4.579  15.380  0.00  0.00    +0.000 A 
ATOM     15 BR   UNL     1       6.288   3.924  13.675  0.00  0.00    +0.000 Br
ATOM     16  C   UNL     1       4.588   4.105  15.939  0.00  0.00    +0.000 A 
BRANCH  13  17
ATOM     17  O   UNL     1       7.710   5.977  15.518  0.00  0.00    +0.000 OA
ATOM     18  H   UNL     1       7.768   5.685  14.595  0.00  0.00    +0.000 HD
ENDBRANCH  13  17
ENDBRANCH   5  10
BRANCH   1  19
ATOM     19  O   UNL     1       0.774   2.300  22.584  0.00  0.00    +0.000 OA
ATOM     20  H   UNL     1       1.263   2.594  23.371  0.00  0.00    +0.000 HD
ENDBRANCH   1  19
TORSDOF 3
ENDMDL
MODEL 4
REMARK VINA RESULT:      -7.2      2.663      6.598
REMARK  Name = 
REMARK  3 active torsions:
REMARK  status: ('A' for Active; 'I' for Inactive)
REMARK    1  A    between atoms: O_1  and  C_2
REMARK    2  A    between atoms: C_6  and  C_7
REMARK    3  A    between atoms: C_10  and  O_11
REMARK                            x       y       z     vdW  Elec       q    Type
REMARK                         _______ _______ _______ _____ _____    ______ ____
ROOT
ATOM      1  C   UNL     1       7.200   5.073  14.653  0.00  0.00    +0.000 A 
ATOM      2  C   UNL     1       5.846   4.848  14.406  0.00  0.00    +0.000 A 
ATOM      3  C   UNL     1       4.978   4.531  15.460  0.00  0.00    +0.000 A 
ATOM      4  C   UNL     1       5.500   4.428  16.766  0.00  0.00    +0.000 A 
ATOM      5  C   UNL     1       5.015   4.122  18.077  0.00  0.00    +0.000 A 
ATOM      6  N   UNL     1       6.008   4.220  18.979  0.00  0.00    +0.000 NA
ATOM      7  O   UNL     1       7.148   4.552  18.272  0.00  0.00    +0.000 OA
ATOM      8  C   UNL     1       6.850   4.673  16.953  0.00  0.00    +0.000 A 
ATOM      9  C   UNL     1       7.742   4.996  15.935  0.00  0.00    +0.000 A 
ENDROOT
BRANCH   5  10
ATOM     10  C   UNL     1       3.660   3.746  18.484  0.00  0.00    +0.000 A 
ATOM     11  C   UNL     1       2.611   3.738  17.549  0.00  0.00    +0.000 A 
ATOM     12  C   UNL     1       1.315   3.375  17.932  0.00  0.00    +0.000 A 
ATOM     13  C   UNL     1       1.058   3.020  19.255  0.00  0.00    +0.000 A 
ATOM     14  C   UNL     1       2.088   3.032  20.195  0.00  0.00    +0.000 A 
ATOM     15 BR   UNL     1       1.788   2.560  22.008  0.00  0.00    +0.000 Br
ATOM     16  C   UNL     1       3.379   3.402  19.814  0.00  0.00    +0.000 A 
BRANCH  13  17
ATOM     17  O   UNL     1      -0.206   2.663  19.632  0.00  0.00    +0.000 OA
ATOM     18  H   UNL     1      -0.631   2.173  18.910  0.00  0.00    +0.000 HD
ENDBRANCH  13  17
ENDBRANCH   5  10
BRANCH   1  19
ATOM     19  O   UNL     1       8.052   5.387  13.633  0.00  0.00    +0.000 OA
ATOM     20  H   UNL     1       7.917   4.759  12.904  0.00  0.00    +0.000 HD
ENDBRANCH   1  19
TORSDOF 3
ENDMDL
MODEL 5
REMARK VINA RESULT:      -7.1      4.181      6.284
REMARK  Name = 
REMARK  3 active torsions:
REMARK  status: ('A' for Active; 'I' for Inactive)
REMARK    1  A    between atoms: O_1  and  C_2
REMARK    2  A    between atoms: C_6  and  C_7
REMARK    3  A    between atoms: C_10  and  O_11
REMARK                            x       y       z     vdW  Elec       q    Type
REMARK                         _______ _______ _______ _____ _____    ______ ____
ROOT
ATOM      1  C   UNL     1       6.731   5.070  16.636  0.00  0.00    +0.000 A 
ATOM      2  C   UNL     1       6.710   6.417  16.995  0.00  0.00    +0.000 A 
ATOM      3  C   UNL     1       5.538   6.993  17.507  0.00  0.00    +0.000 A 
ATOM      4  C   UNL     1       4.385   6.193  17.637  0.00  0.00    +0.000 A 
ATOM      5  C   UNL     1       3.030   6.353  18.070  0.00  0.00    +0.000 A 
ATOM      6  N   UNL     1       2.375   5.180  18.004  0.00  0.00    +0.000 NA
ATOM      7  O   UNL     1       3.273   4.258  17.499  0.00  0.00    +0.000 OA
ATOM      8  C   UNL     1       4.469   4.859  17.275  0.00  0.00    +0.000 A 
ATOM      9  C   UNL     1       5.613   4.249  16.769  0.00  0.00    +0.000 A 
ENDROOT
BRANCH   5  10
ATOM     10  C   UNL     1       2.359   7.567  18.534  0.00  0.00    +0.000 A 
ATOM     11  C   UNL     1       2.129   8.637  17.652  0.00  0.00    +0.000 A 
ATOM     12  C   UNL     1       1.484   9.799  18.091  0.00  0.00    +0.000 A 
ATOM     13  C   UNL     1       1.064   9.900  19.416  0.00  0.00    +0.000 A 
ATOM     14  C   UNL     1       1.294   8.850  20.304  0.00  0.00    +0.000 A 
ATOM     15 BR   UNL     1       0.747   8.941  22.118  0.00  0.00    +0.000 Br
ATOM     16  C   UNL     1       1.945   7.695  19.868  0.00  0.00    +0.000 A 
BRANCH  13  17
ATOM     17  O   UNL     1       0.432  11.032  19.846  0.00  0.00    +0.000 OA
ATOM     18  H   UNL     1      -0.527  10.886  19.845  0.00  0.00    +0.000 HD
ENDBRANCH  13  17
ENDBRANCH   5  10
BRANCH   1  19
ATOM     19  O   UNL     1       7.869   4.499  16.141  0.00  0.00    +0.000 OA
ATOM     20  H   UNL     1       8.509   5.201  15.931  0.00  0.00    +0.000 HD
ENDBRANCH   1  19
TORSDOF 3
ENDMDL
MODEL 6
REMARK VINA RESULT:      -7.1      2.418      3.047
REMARK  Name = 
REMARK  3 active torsions:
REMARK  status: ('A' for Active; 'I' for Inactive)
REMARK    1  A    between atoms: O_1  and  C_2
REMARK    2  A    between atoms: C_6  and  C_7
REMARK    3  A    between atoms: C_10  and  O_11
REMARK                            x       y       z     vdW  Elec       q    Type
REMARK                         _______ _______ _______ _____ _____    ______ ____
ROOT
ATOM      1  C   UNL     1       1.400   3.311  19.406  0.00  0.00    +0.000 A 
ATOM      2  C   UNL     1       1.399   3.584  18.039  0.00  0.00    +0.000 A 
ATOM      3  C   UNL     1       2.605   3.824  17.366  0.00  0.00    +0.000 A 
ATOM      4  C   UNL     1       3.811   3.801  18.095  0.00  0.00    +0.000 A 
ATOM      5  C   UNL     1       5.205   3.999  17.841  0.00  0.00    +0.000 A 
ATOM      6  N   UNL     1       5.919   3.802  18.963  0.00  0.00    +0.000 NA
ATOM      7  O   UNL     1       5.008   3.511  19.961  0.00  0.00    +0.000 OA
ATOM      8  C   UNL     1       3.752   3.513  19.448  0.00  0.00    +0.000 A 
ATOM      9  C   UNL     1       2.577   3.264  20.152  0.00  0.00    +0.000 A 
ENDROOT
BRANCH   5  10
ATOM     10  C   UNL     1       5.859   4.364  16.584  0.00  0.00    +0.000 A 
ATOM     11  C   UNL     1       6.902   5.306  16.570  0.00  0.00    +0.000 A 
ATOM     12  C   UNL     1       7.533   5.655  15.371  0.00  0.00    +0.000 A 
ATOM     13  C   UNL     1       7.125   5.067  14.175  0.00  0.00    +0.000 A 
ATOM     14  C   UNL     1       6.086   4.137  14.174  0.00  0.00    +0.000 A 
ATOM     15 BR   UNL     1       5.491   3.310  12.573  0.00  0.00    +0.000 Br
ATOM     16  C   UNL     1       5.451   3.795  15.369  0.00  0.00    +0.000 A 
BRANCH  13  17
ATOM     17  O   UNL     1       7.742   5.404  13.004  0.00  0.00    +0.000 OA
ATOM     18  H   UNL     1       7.392   4.854  12.286  0.00  0.00    +0.000 HD
ENDBRANCH  13  17
ENDBRANCH   5  10
BRANCH   1  19
ATOM     19  O   UNL     1       0.230   3.072  20.070  0.00  0.00    +0.000 OA
ATOM     20  H   UNL     1      -0.223   2.321  19.650  0.00  0.00    +0.000 HD
ENDBRANCH   1  19
TORSDOF 3
ENDMDL
MODEL 7
REMARK VINA RESULT:      -7.1      4.539      5.702
REMARK  Name = 
REMARK  3 active torsions:
REMARK  status: ('A' for Active; 'I' for Inactive)
REMARK    1  A    between atoms: O_1  and  C_2
REMARK    2  A    between atoms: C_6  and  C_7
REMARK    3  A    between atoms: C_10  and  O_11
REMARK                            x       y       z     vdW  Elec       q    Type
REMARK                         _______ _______ _______ _____ _____    ______ ____
ROOT
ATOM      1  C   UNL     1       3.057   2.537  18.239  0.00  0.00    +0.000 A 
ATOM      2  C   UNL     1       1.932   3.095  18.845  0.00  0.00    +0.000 A 
ATOM      3  C   UNL     1       1.769   4.487  18.886  0.00  0.00    +0.000 A 
ATOM      4  C   UNL     1       2.766   5.308  18.321  0.00  0.00    +0.000 A 
ATOM      5  C   UNL     1       3.017   6.707  18.160  0.00  0.00    +0.000 A 
ATOM      6  N   UNL     1       4.159   6.904  17.478  0.00  0.00    +0.000 NA
ATOM      7  O   UNL     1       4.681   5.650  17.220  0.00  0.00    +0.000 OA
ATOM      8  C   UNL     1       3.856   4.698  17.724  0.00  0.00    +0.000 A 
ATOM      9  C   UNL     1       4.052   3.321  17.657  0.00  0.00    +0.000 A 
ENDROOT
BRANCH   5  10
ATOM     10  C   UNL     1       2.215   7.838  18.630  0.00  0.00    +0.000 A 
ATOM     11  C   UNL     1       1.781   8.826  17.732  0.00  0.00    +0.000 A 
ATOM     12  C   UNL     1       1.010   9.907  18.176  0.00  0.00    +0.000 A 
ATOM     13  C   UNL     1       0.669  10.008  19.523  0.00  0.00    +0.000 A 
ATOM     14  C   UNL     1       1.101   9.038  20.427  0.00  0.00    +0.000 A 
ATOM     15 BR   UNL     1       0.668   9.132  22.272  0.00  0.00    +0.000 Br
ATOM     16  C   UNL     1       1.877   7.965  19.986  0.00  0.00    +0.000 A 
BRANCH  13  17
ATOM     17  O   UNL     1      -0.085  11.060  19.959  0.00  0.00    +0.000 OA
ATOM     18  H   UNL     1      -0.526  10.819  20.789  0.00  0.00    +0.000 HD
ENDBRANCH  13  17
ENDBRANCH   5  10
BRANCH   1  19
ATOM     19  O   UNL     1       3.222   1.182  18.190  0.00  0.00    +0.000 OA
ATOM     20  H   UNL     1       4.089   0.955  18.568  0.00  0.00    +0.000 HD
ENDBRANCH   1  19
TORSDOF 3
ENDMDL
MODEL 8
REMARK VINA RESULT:      -6.9      2.623      6.565
REMARK  Name = 
REMARK  3 active torsions:
REMARK  status: ('A' for Active; 'I' for Inactive)
REMARK    1  A    between atoms: O_1  and  C_2
REMARK    2  A    between atoms: C_6  and  C_7
REMARK    3  A    between atoms: C_10  and  O_11
REMARK                            x       y       z     vdW  Elec       q    Type
REMARK                         _______ _______ _______ _____ _____    ______ ____
ROOT
ATOM      1  C   UNL     1       6.694   4.578  14.112  0.00  0.00    +0.000 A 
ATOM      2  C   UNL     1       5.350   4.319  14.373  0.00  0.00    +0.000 A 
ATOM      3  C   UNL     1       4.890   4.236  15.695  0.00  0.00    +0.000 A 
ATOM      4  C   UNL     1       5.810   4.405  16.750  0.00  0.00    +0.000 A 
ATOM      5  C   UNL     1       5.795   4.384  18.180  0.00  0.00    +0.000 A 
ATOM      6  N   UNL     1       7.017   4.660  18.667  0.00  0.00    +0.000 NA
ATOM      7  O   UNL     1       7.846   4.827  17.573  0.00  0.00    +0.000 OA
ATOM      8  C   UNL     1       7.131   4.671  16.430  0.00  0.00    +0.000 A 
ATOM      9  C   UNL     1       7.625   4.766  15.132  0.00  0.00    +0.000 A 
ENDROOT
BRANCH   5  10
ATOM     10  C   UNL     1       4.669   4.113  19.076  0.00  0.00    +0.000 A 
ATOM     11  C   UNL     1       4.458   2.821  19.585  0.00  0.00    +0.000 A 
ATOM     12  C   UNL     1       3.385   2.559  20.445  0.00  0.00    +0.000 A 
ATOM     13  C   UNL     1       2.514   3.587  20.801  0.00  0.00    +0.000 A 
ATOM     14  C   UNL     1       2.708   4.872  20.296  0.00  0.00    +0.000 A 
ATOM     15 BR   UNL     1       1.548   6.305  20.746  0.00  0.00    +0.000 Br
ATOM     16  C   UNL     1       3.772   5.132  19.431  0.00  0.00    +0.000 A 
BRANCH  13  17
ATOM     17  O   UNL     1       1.468   3.334  21.642  0.00  0.00    +0.000 OA
ATOM     18  H   UNL     1       1.766   3.421  22.561  0.00  0.00    +0.000 HD
ENDBRANCH  13  17
ENDBRANCH   5  10
BRANCH   1  19
ATOM     19  O   UNL     1       7.151   4.664  12.827  0.00  0.00    +0.000 OA
ATOM     20  H   UNL     1       6.809   3.909  12.319  0.00  0.00    +0.000 HD
ENDBRANCH   1  19
TORSDOF 3
ENDMDL
MODEL 9
REMARK VINA RESULT:      -6.9      5.059      5.783
REMARK  Name = 
REMARK  3 active torsions:
REMARK  status: ('A' for Active; 'I' for Inactive)
REMARK    1  A    between atoms: O_1  and  C_2
REMARK    2  A    between atoms: C_6  and  C_7
REMARK    3  A    between atoms: C_10  and  O_11
REMARK                            x       y       z     vdW  Elec       q    Type
REMARK                         _______ _______ _______ _____ _____    ______ ____
ROOT
ATOM      1  C   UNL     1       0.181  10.310  20.488  0.00  0.00    +0.000 A 
ATOM      2  C   UNL     1       0.536   9.240  21.308  0.00  0.00    +0.000 A 
ATOM      3  C   UNL     1       1.353   8.213  20.816  0.00  0.00    +0.000 A 
ATOM      4  C   UNL     1       1.795   8.274  19.479  0.00  0.00    +0.000 A 
ATOM      5  C   UNL     1       2.586   7.480  18.589  0.00  0.00    +0.000 A 
ATOM      6  N   UNL     1       2.700   8.086  17.394  0.00  0.00    +0.000 NA
ATOM      7  O   UNL     1       1.963   9.253  17.476  0.00  0.00    +0.000 OA
ATOM      8  C   UNL     1       1.420   9.366  18.714  0.00  0.00    +0.000 A 
ATOM      9  C   UNL     1       0.615  10.407  19.166  0.00  0.00    +0.000 A 
ENDROOT
BRANCH   5  10
ATOM     10  C   UNL     1       3.222   6.186  18.842  0.00  0.00    +0.000 A 
ATOM     11  C   UNL     1       4.417   5.839  18.191  0.00  0.00    +0.000 A 
ATOM     12  C   UNL     1       5.030   4.605  18.433  0.00  0.00    +0.000 A 
ATOM     13  C   UNL     1       4.451   3.707  19.328  0.00  0.00    +0.000 A 
ATOM     14  C   UNL     1       3.261   4.035  19.975  0.00  0.00    +0.000 A 
ATOM     15 BR   UNL     1       2.430   2.846  21.198  0.00  0.00    +0.000 Br
ATOM     16  C   UNL     1       2.644   5.263  19.727  0.00  0.00    +0.000 A 
BRANCH  13  17
ATOM     17  O   UNL     1       5.049   2.502  19.568  0.00  0.00    +0.000 OA
ATOM     18  H   UNL     1       4.806   1.877  18.868  0.00  0.00    +0.000 HD
ENDBRANCH  13  17
ENDBRANCH   5  10
BRANCH   1  19
ATOM     19  O   UNL     1      -0.612  11.317  20.960  0.00  0.00    +0.000 OA
ATOM     20  H   UNL     1      -1.503  11.220  20.584  0.00  0.00    +0.000 HD
ENDBRANCH   1  19
TORSDOF 3
ENDMDL
