MODEL 1
REMARK VINA RESULT:      -6.6      0.000      0.000
REMARK  Name = 
REMARK  7 active torsions:
REMARK  status: ('A' for Active; 'I' for Inactive)
REMARK    1  A    between atoms: C_1  and  N_2
REMARK    2  A    between atoms: N_2  and  C_3
REMARK    3  A    between atoms: N_2  and  C_4
REMARK    4  A    between atoms: C_4  and  C_5
REMARK    5  A    between atoms: C_4  and  C_14
REMARK    6  A    between atoms: C_5  and  N_6
REMARK    7  A    between atoms: C_7  and  C_9
REMARK                            x       y       z     vdW  Elec       q    Type
REMARK                         _______ _______ _______ _____ _____    ______ ____
ROOT
ATOM      1  C   UNL     1       6.189   5.063  16.204  0.00  0.00    +0.000 C 
ENDROOT
BRANCH   1   2
ATOM      2  C   UNL     1       6.488   4.729  14.737  0.00  0.00    +0.000 A 
ATOM      3  C   UNL     1       5.812   3.753  13.991  0.00  0.00    +0.000 A 
ATOM      4  C   UNL     1       6.107   3.559  12.643  0.00  0.00    +0.000 A 
ATOM      5  C   UNL     1       7.106   4.324  12.076  0.00  0.00    +0.000 A 
ATOM      6  N   UNL     1       7.819   5.243  12.759  0.00  0.00    +0.000 NA
ATOM      7  C   UNL     1       7.495   5.422  14.063  0.00  0.00    +0.000 A 
ENDBRANCH   1   2
BRANCH   1   9
ATOM      8  C   UNL     1       7.400   6.902  17.401  0.00  0.00    +0.000 C 
ATOM      9  N   UNL     1       7.415   5.522  16.923  0.00  0.00    +0.000 NA
ATOM     10  C   UNL     1       7.808   4.623  18.009  0.00  0.00    +0.000 C 
ENDBRANCH   1   9
BRANCH   1  11
ATOM     11  C   UNL     1       4.905   5.934  16.409  0.00  0.00    +0.000 C 
BRANCH  11  12
ATOM     12  N   UNL     1       3.852   5.255  17.141  0.00  0.00    +0.000 N 
ATOM     13  C   UNL     1       3.819   5.118  18.506  0.00  0.00    +0.000 C 
ATOM     14  O   UNL     1       4.670   5.627  19.228  0.00  0.00    +0.000 OA
ATOM     15  H   UNL     1       3.194   4.690  16.617  0.00  0.00    +0.000 HD
BRANCH  13  16
ATOM     16  C   UNL     1       2.713   4.307  19.005  0.00  0.00    +0.000 A 
ATOM     17  C   UNL     1       1.950   3.405  18.289  0.00  0.00    +0.000 A 
ATOM     18  C   UNL     1       0.966   2.760  19.094  0.00  0.00    +0.000 A 
ATOM     19  C   UNL     1       0.996   3.192  20.395  0.00  0.00    +0.000 A 
ATOM     20  S   UNL     1       2.198   4.379  20.646  0.00  0.00    +0.000 S 
ENDBRANCH  13  16
ENDBRANCH  11  12
ENDBRANCH   1  11
TORSDOF 5
ENDMDL
MODEL 2
REMARK VINA RESULT:      -6.4      0.933      1.029
REMARK  Name = 
REMARK  7 active torsions:
REMARK  status: ('A' for Active; 'I' for Inactive)
REMARK    1  A    between atoms: C_1  and  N_2
REMARK    2  A    between atoms: N_2  and  C_3
REMARK    3  A    between atoms: N_2  and  C_4
REMARK    4  A    between atoms: C_4  and  C_5
REMARK    5  A    between atoms: C_4  and  C_14
REMARK    6  A    between atoms: C_5  and  N_6
REMARK    7  A    between atoms: C_7  and  C_9
REMARK                            x       y       z     vdW  Elec       q    Type
REMARK                         _______ _______ _______ _____ _____    ______ ____
ROOT
ATOM      1  C   UNL     1       6.189   4.812  16.141  0.00  0.00    +0.000 C 
ENDROOT
BRANCH   1   2
ATOM      2  C   UNL     1       6.537   4.605  14.661  0.00  0.00    +0.000 A 
ATOM      3  C   UNL     1       5.915   3.668  13.823  0.00  0.00    +0.000 A 
ATOM      4  C   UNL     1       6.251   3.590  12.473  0.00  0.00    +0.000 A 
ATOM      5  C   UNL     1       7.237   4.430  11.995  0.00  0.00    +0.000 A 
ATOM      6  N   UNL     1       7.899   5.315  12.768  0.00  0.00    +0.000 NA
ATOM      7  C   UNL     1       7.536   5.381  14.072  0.00  0.00    +0.000 A 
ENDBRANCH   1   2
BRANCH   1   9
ATOM      8  C   UNL     1       7.066   6.826  17.346  0.00  0.00    +0.000 C 
ATOM      9  N   UNL     1       7.310   5.464  16.882  0.00  0.00    +0.000 NA
ATOM     10  C   UNL     1       7.814   4.644  17.985  0.00  0.00    +0.000 C 
ENDBRANCH   1   9
BRANCH   1  11
ATOM     11  C   UNL     1       4.764   5.416  16.381  0.00  0.00    +0.000 C 
BRANCH  11  12
ATOM     12  N   UNL     1       4.008   4.730  17.412  0.00  0.00    +0.000 N 
ATOM     13  C   UNL     1       3.383   5.355  18.462  0.00  0.00    +0.000 C 
ATOM     14  O   UNL     1       3.369   6.576  18.571  0.00  0.00    +0.000 OA
ATOM     15  H   UNL     1       4.090   3.722  17.473  0.00  0.00    +0.000 HD
BRANCH  13  16
ATOM     16  C   UNL     1       2.771   4.447  19.427  0.00  0.00    +0.000 A 
ATOM     17  C   UNL     1       1.580   4.628  20.104  0.00  0.00    +0.000 A 
ATOM     18  C   UNL     1       1.261   3.529  20.954  0.00  0.00    +0.000 A 
ATOM     19  C   UNL     1       2.217   2.547  20.912  0.00  0.00    +0.000 A 
ATOM     20  S   UNL     1       3.501   2.950  19.861  0.00  0.00    +0.000 S 
ENDBRANCH  13  16
ENDBRANCH  11  12
ENDBRANCH   1  11
TORSDOF 5
ENDMDL
MODEL 3
REMARK VINA RESULT:      -6.4      0.962      1.322
REMARK  Name = 
REMARK  7 active torsions:
REMARK  status: ('A' for Active; 'I' for Inactive)
REMARK    1  A    between atoms: C_1  and  N_2
REMARK    2  A    between atoms: N_2  and  C_3
REMARK    3  A    between atoms: N_2  and  C_4
REMARK    4  A    between atoms: C_4  and  C_5
REMARK    5  A    between atoms: C_4  and  C_14
REMARK    6  A    between atoms: C_5  and  N_6
REMARK    7  A    between atoms: C_7  and  C_9
REMARK                            x       y       z     vdW  Elec       q    Type
REMARK                         _______ _______ _______ _____ _____    ______ ____
ROOT
ATOM      1  C   UNL     1       6.198   5.017  16.176  0.00  0.00    +0.000 C 
ENDROOT
BRANCH   1   2
ATOM      2  C   UNL     1       6.481   4.727  14.696  0.00  0.00    +0.000 A 
ATOM      3  C   UNL     1       7.506   5.328  13.952  0.00  0.00    +0.000 A 
ATOM      4  C   UNL     1       7.732   4.959  12.627  0.00  0.00    +0.000 A 
ATOM      5  C   UNL     1       6.896   4.019  12.059  0.00  0.00    +0.000 A 
ATOM      6  N   UNL     1       5.866   3.445  12.715  0.00  0.00    +0.000 NA
ATOM      7  C   UNL     1       5.685   3.810  14.008  0.00  0.00    +0.000 A 
ENDBRANCH   1   2
BRANCH   1   9
ATOM      8  C   UNL     1       7.359   6.905  17.345  0.00  0.00    +0.000 C 
ATOM      9  N   UNL     1       7.415   5.523  16.878  0.00  0.00    +0.000 NA
ATOM     10  C   UNL     1       7.848   4.646  17.967  0.00  0.00    +0.000 C 
ENDBRANCH   1   9
BRANCH   1  11
ATOM     11  C   UNL     1       4.877   5.820  16.425  0.00  0.00    +0.000 C 
BRANCH  11  12
ATOM     12  N   UNL     1       3.932   5.131  17.286  0.00  0.00    +0.000 N 
ATOM     13  C   UNL     1       4.023   5.080  18.654  0.00  0.00    +0.000 C 
ATOM     14  O   UNL     1       4.900   5.680  19.266  0.00  0.00    +0.000 OA
ATOM     15  H   UNL     1       3.268   4.500  16.856  0.00  0.00    +0.000 HD
BRANCH  13  16
ATOM     16  C   UNL     1       3.014   4.244  19.295  0.00  0.00    +0.000 A 
ATOM     17  C   UNL     1       1.665   4.513  19.422  0.00  0.00    +0.000 A 
ATOM     18  C   UNL     1       0.957   3.465  20.080  0.00  0.00    +0.000 A 
ATOM     19  C   UNL     1       1.782   2.433  20.448  0.00  0.00    +0.000 A 
ATOM     20  S   UNL     1       3.406   2.729  20.011  0.00  0.00    +0.000 S 
ENDBRANCH  13  16
ENDBRANCH  11  12
ENDBRANCH   1  11
TORSDOF 5
ENDMDL
MODEL 4
REMARK VINA RESULT:      -6.3      1.015      1.051
REMARK  Name = 
REMARK  7 active torsions:
REMARK  status: ('A' for Active; 'I' for Inactive)
REMARK    1  A    between atoms: C_1  and  N_2
REMARK    2  A    between atoms: N_2  and  C_3
REMARK    3  A    between atoms: N_2  and  C_4
REMARK    4  A    between atoms: C_4  and  C_5
REMARK    5  A    between atoms: C_4  and  C_14
REMARK    6  A    between atoms: C_5  and  N_6
REMARK    7  A    between atoms: C_7  and  C_9
REMARK                            x       y       z     vdW  Elec       q    Type
REMARK                         _______ _______ _______ _____ _____    ______ ____
ROOT
ATOM      1  C   UNL     1       6.222   5.113  16.156  0.00  0.00    +0.000 C 
ENDROOT
BRANCH   1   2
ATOM      2  C   UNL     1       6.550   4.774  14.696  0.00  0.00    +0.000 A 
ATOM      3  C   UNL     1       5.899   3.785  13.945  0.00  0.00    +0.000 A 
ATOM      4  C   UNL     1       6.218   3.586  12.604  0.00  0.00    +0.000 A 
ATOM      5  C   UNL     1       7.217   4.361  12.048  0.00  0.00    +0.000 A 
ATOM      6  N   UNL     1       7.907   5.293  12.738  0.00  0.00    +0.000 NA
ATOM      7  C   UNL     1       7.559   5.476  14.035  0.00  0.00    +0.000 A 
ENDBRANCH   1   2
BRANCH   1   9
ATOM      8  C   UNL     1       7.403   6.949  17.386  0.00  0.00    +0.000 C 
ATOM      9  N   UNL     1       7.434   5.574  16.898  0.00  0.00    +0.000 NA
ATOM     10  C   UNL     1       7.816   4.668  17.982  0.00  0.00    +0.000 C 
ENDBRANCH   1   9
BRANCH   1  11
ATOM     11  C   UNL     1       4.934   5.986  16.333  0.00  0.00    +0.000 C 
BRANCH  11  12
ATOM     12  N   UNL     1       4.094   5.564  17.439  0.00  0.00    +0.000 N 
ATOM     13  C   UNL     1       3.360   4.405  17.458  0.00  0.00    +0.000 C 
ATOM     14  O   UNL     1       3.413   3.592  16.542  0.00  0.00    +0.000 OA
ATOM     15  H   UNL     1       3.887   6.239  18.165  0.00  0.00    +0.000 HD
BRANCH  13  16
ATOM     16  C   UNL     1       2.513   4.245  18.635  0.00  0.00    +0.000 A 
ATOM     17  C   UNL     1       1.656   3.198  18.912  0.00  0.00    +0.000 A 
ATOM     18  C   UNL     1       0.999   3.344  20.168  0.00  0.00    +0.000 A 
ATOM     19  C   UNL     1       1.361   4.500  20.811  0.00  0.00    +0.000 A 
ATOM     20  S   UNL     1       2.481   5.412  19.900  0.00  0.00    +0.000 S 
ENDBRANCH  13  16
ENDBRANCH  11  12
ENDBRANCH   1  11
TORSDOF 5
ENDMDL
MODEL 5
REMARK VINA RESULT:      -6.3      1.336      1.661
REMARK  Name = 
REMARK  7 active torsions:
REMARK  status: ('A' for Active; 'I' for Inactive)
REMARK    1  A    between atoms: C_1  and  N_2
REMARK    2  A    between atoms: N_2  and  C_3
REMARK    3  A    between atoms: N_2  and  C_4
REMARK    4  A    between atoms: C_4  and  C_5
REMARK    5  A    between atoms: C_4  and  C_14
REMARK    6  A    between atoms: C_5  and  N_6
REMARK    7  A    between atoms: C_7  and  C_9
REMARK                            x       y       z     vdW  Elec       q    Type
REMARK                         _______ _______ _______ _____ _____    ______ ____
ROOT
ATOM      1  C   UNL     1       6.236   4.919  16.209  0.00  0.00    +0.000 C 
ENDROOT
BRANCH   1   2
ATOM      2  C   UNL     1       6.527   4.694  14.719  0.00  0.00    +0.000 A 
ATOM      3  C   UNL     1       7.525   5.362  13.996  0.00  0.00    +0.000 A 
ATOM      4  C   UNL     1       7.762   5.051  12.659  0.00  0.00    +0.000 A 
ATOM      5  C   UNL     1       6.964   4.098  12.059  0.00  0.00    +0.000 A 
ATOM      6  N   UNL     1       5.960   3.460  12.695  0.00  0.00    +0.000 NA
ATOM      7  C   UNL     1       5.768   3.770  14.000  0.00  0.00    +0.000 A 
ENDBRANCH   1   2
BRANCH   1   9
ATOM      8  C   UNL     1       7.299   6.891  17.332  0.00  0.00    +0.000 C 
ATOM      9  N   UNL     1       7.418   5.496  16.918  0.00  0.00    +0.000 NA
ATOM     10  C   UNL     1       7.859   4.676  18.047  0.00  0.00    +0.000 C 
ENDBRANCH   1   9
BRANCH   1  11
ATOM     11  C   UNL     1       4.860   5.610  16.491  0.00  0.00    +0.000 C 
BRANCH  11  12
ATOM     12  N   UNL     1       4.192   5.113  17.680  0.00  0.00    +0.000 N 
ATOM     13  C   UNL     1       3.377   4.010  17.707  0.00  0.00    +0.000 C 
ATOM     14  O   UNL     1       3.199   3.312  16.714  0.00  0.00    +0.000 OA
ATOM     15  H   UNL     1       4.173   5.706  18.500  0.00  0.00    +0.000 HD
BRANCH  13  16
ATOM     16  C   UNL     1       2.737   3.764  18.995  0.00  0.00    +0.000 A 
ATOM     17  C   UNL     1       1.538   4.283  19.445  0.00  0.00    +0.000 A 
ATOM     18  C   UNL     1       1.191   3.812  20.745  0.00  0.00    +0.000 A 
ATOM     19  C   UNL     1       2.134   2.958  21.256  0.00  0.00    +0.000 A 
ATOM     20  S   UNL     1       3.440   2.731  20.180  0.00  0.00    +0.000 S 
ENDBRANCH  13  16
ENDBRANCH  11  12
ENDBRANCH   1  11
TORSDOF 5
ENDMDL
MODEL 6
REMARK VINA RESULT:      -6.2      1.489      1.670
REMARK  Name = 
REMARK  7 active torsions:
REMARK  status: ('A' for Active; 'I' for Inactive)
REMARK    1  A    between atoms: C_1  and  N_2
REMARK    2  A    between atoms: N_2  and  C_3
REMARK    3  A    between atoms: N_2  and  C_4
REMARK    4  A    between atoms: C_4  and  C_5
REMARK    5  A    between atoms: C_4  and  C_14
REMARK    6  A    between atoms: C_5  and  N_6
REMARK    7  A    between atoms: C_7  and  C_9
REMARK                            x       y       z     vdW  Elec       q    Type
REMARK                         _______ _______ _______ _____ _____    ______ ____
ROOT
ATOM      1  C   UNL     1       5.866   4.460  16.117  0.00  0.00    +0.000 C 
ENDROOT
BRANCH   1   2
ATOM      2  C   UNL     1       6.374   4.442  14.669  0.00  0.00    +0.000 A 
ATOM      3  C   UNL     1       5.902   3.575  13.673  0.00  0.00    +0.000 A 
ATOM      4  C   UNL     1       6.376   3.670  12.366  0.00  0.00    +0.000 A 
ATOM      5  C   UNL     1       7.348   4.611  12.091  0.00  0.00    +0.000 A 
ATOM      6  N   UNL     1       7.870   5.436  13.021  0.00  0.00    +0.000 NA
ATOM      7  C   UNL     1       7.374   5.333  14.278  0.00  0.00    +0.000 A 
ENDBRANCH   1   2
BRANCH   1   9
ATOM      8  C   UNL     1       5.600   6.689  17.229  0.00  0.00    +0.000 C 
ATOM      9  N   UNL     1       6.481   5.572  16.901  0.00  0.00    +0.000 NA
ATOM     10  C   UNL     1       7.167   5.107  18.106  0.00  0.00    +0.000 C 
ENDBRANCH   1   9
BRANCH   1  11
ATOM     11  C   UNL     1       4.313   4.303  16.248  0.00  0.00    +0.000 C 
BRANCH  11  12
ATOM     12  N   UNL     1       3.887   3.810  17.545  0.00  0.00    +0.000 N 
ATOM     13  C   UNL     1       2.577   3.677  17.932  0.00  0.00    +0.000 C 
ATOM     14  O   UNL     1       1.649   3.916  17.166  0.00  0.00    +0.000 OA
ATOM     15  H   UNL     1       4.582   3.727  18.276  0.00  0.00    +0.000 HD
BRANCH  13  16
ATOM     16  C   UNL     1       2.396   3.257  19.318  0.00  0.00    +0.000 A 
ATOM     17  C   UNL     1       3.357   2.737  20.164  0.00  0.00    +0.000 A 
ATOM     18  C   UNL     1       2.847   2.458  21.466  0.00  0.00    +0.000 A 
ATOM     19  C   UNL     1       1.514   2.761  21.576  0.00  0.00    +0.000 A 
ATOM     20  S   UNL     1       0.875   3.369  20.114  0.00  0.00    +0.000 S 
ENDBRANCH  13  16
ENDBRANCH  11  12
ENDBRANCH   1  11
TORSDOF 5
ENDMDL
MODEL 7
REMARK VINA RESULT:      -6.1      3.982      6.181
REMARK  Name = 
REMARK  7 active torsions:
REMARK  status: ('A' for Active; 'I' for Inactive)
REMARK    1  A    between atoms: C_1  and  N_2
REMARK    2  A    between atoms: N_2  and  C_3
REMARK    3  A    between atoms: N_2  and  C_4
REMARK    4  A    between atoms: C_4  and  C_5
REMARK    5  A    between atoms: C_4  and  C_14
REMARK    6  A    between atoms: C_5  and  N_6
REMARK    7  A    between atoms: C_7  and  C_9
REMARK                            x       y       z     vdW  Elec       q    Type
REMARK                         _______ _______ _______ _____ _____    ______ ____
ROOT
ATOM      1  C   UNL     1       3.700   5.780  18.491  0.00  0.00    +0.000 C 
ENDROOT
BRANCH   1   2
ATOM      2  C   UNL     1       2.636   4.734  18.848  0.00  0.00    +0.000 A 
ATOM      3  C   UNL     1       2.096   4.557  20.130  0.00  0.00    +0.000 A 
ATOM      4  C   UNL     1       1.087   3.623  20.353  0.00  0.00    +0.000 A 
ATOM      5  C   UNL     1       0.664   2.852  19.288  0.00  0.00    +0.000 A 
ATOM      6  N   UNL     1       1.182   2.948  18.047  0.00  0.00    +0.000 NA
ATOM      7  C   UNL     1       2.149   3.880  17.858  0.00  0.00    +0.000 A 
ENDBRANCH   1   2
BRANCH   1   9
ATOM      8  C   UNL     1       5.278   5.882  16.547  0.00  0.00    +0.000 C 
ATOM      9  N   UNL     1       4.841   5.170  17.743  0.00  0.00    +0.000 NA
ATOM     10  C   UNL     1       5.991   4.880  18.600  0.00  0.00    +0.000 C 
ENDBRANCH   1   9
BRANCH   1  11
ATOM     11  C   UNL     1       3.115   7.103  17.891  0.00  0.00    +0.000 C 
BRANCH  11  12
ATOM     12  N   UNL     1       2.221   7.804  18.793  0.00  0.00    +0.000 N 
ATOM     13  C   UNL     1       1.695   9.049  18.553  0.00  0.00    +0.000 C 
ATOM     14  O   UNL     1       1.902   9.646  17.502  0.00  0.00    +0.000 OA
ATOM     15  H   UNL     1       2.115   7.445  19.735  0.00  0.00    +0.000 HD
BRANCH  13  16
ATOM     16  C   UNL     1       0.903   9.592  19.651  0.00  0.00    +0.000 A 
ATOM     17  C   UNL     1       0.704   9.026  20.896  0.00  0.00    +0.000 A 
ATOM     18  C   UNL     1      -0.104   9.839  21.744  0.00  0.00    +0.000 A 
ATOM     19  C   UNL     1      -0.508  10.993  21.124  0.00  0.00    +0.000 A 
ATOM     20  S   UNL     1       0.074  11.094  19.522  0.00  0.00    +0.000 S 
ENDBRANCH  13  16
ENDBRANCH  11  12
ENDBRANCH   1  11
TORSDOF 5
ENDMDL
MODEL 8
REMARK VINA RESULT:      -6.1      1.583      3.698
REMARK  Name = 
REMARK  7 active torsions:
REMARK  status: ('A' for Active; 'I' for Inactive)
REMARK    1  A    between atoms: C_1  and  N_2
REMARK    2  A    between atoms: N_2  and  C_3
REMARK    3  A    between atoms: N_2  and  C_4
REMARK    4  A    between atoms: C_4  and  C_5
REMARK    5  A    between atoms: C_4  and  C_14
REMARK    6  A    between atoms: C_5  and  N_6
REMARK    7  A    between atoms: C_7  and  C_9
REMARK                            x       y       z     vdW  Elec       q    Type
REMARK                         _______ _______ _______ _____ _____    ______ ____
ROOT
ATOM      1  C   UNL     1       5.874   4.761  15.377  0.00  0.00    +0.000 C 
ENDROOT
BRANCH   1   2
ATOM      2  C   UNL     1       6.649   5.303  16.586  0.00  0.00    +0.000 A 
ATOM      3  C   UNL     1       6.743   6.660  16.924  0.00  0.00    +0.000 A 
ATOM      4  C   UNL     1       7.417   7.059  18.076  0.00  0.00    +0.000 A 
ATOM      5  C   UNL     1       8.019   6.087  18.851  0.00  0.00    +0.000 A 
ATOM      6  N   UNL     1       7.998   4.774  18.546  0.00  0.00    +0.000 NA
ATOM      7  C   UNL     1       7.319   4.415  17.429  0.00  0.00    +0.000 A 
ENDBRANCH   1   2
BRANCH   1   9
ATOM      8  C   UNL     1       6.178   3.616  13.168  0.00  0.00    +0.000 C 
ATOM      9  N   UNL     1       6.796   4.321  14.287  0.00  0.00    +0.000 NA
ATOM     10  C   UNL     1       7.642   5.405  13.786  0.00  0.00    +0.000 C 
ENDBRANCH   1   9
BRANCH   1  11
ATOM     11  C   UNL     1       4.728   3.762  15.751  0.00  0.00    +0.000 C 
BRANCH  11  12
ATOM     12  N   UNL     1       3.990   4.145  16.940  0.00  0.00    +0.000 N 
ATOM     13  C   UNL     1       3.485   3.259  17.859  0.00  0.00    +0.000 C 
ATOM     14  O   UNL     1       3.681   2.052  17.769  0.00  0.00    +0.000 OA
ATOM     15  H   UNL     1       3.666   5.102  17.014  0.00  0.00    +0.000 HD
BRANCH  13  16
ATOM     16  C   UNL     1       2.692   3.875  18.918  0.00  0.00    +0.000 A 
ATOM     17  C   UNL     1       1.513   3.400  19.461  0.00  0.00    +0.000 A 
ATOM     18  C   UNL     1       1.014   4.236  20.503  0.00  0.00    +0.000 A 
ATOM     19  C   UNL     1       1.816   5.327  20.720  0.00  0.00    +0.000 A 
ATOM     20  S   UNL     1       3.159   5.352  19.666  0.00  0.00    +0.000 S 
ENDBRANCH  13  16
ENDBRANCH  11  12
ENDBRANCH   1  11
TORSDOF 5
ENDMDL
MODEL 9
REMARK VINA RESULT:      -6.1      4.245      6.403
REMARK  Name = 
REMARK  7 active torsions:
REMARK  status: ('A' for Active; 'I' for Inactive)
REMARK    1  A    between atoms: C_1  and  N_2
REMARK    2  A    between atoms: N_2  and  C_3
REMARK    3  A    between atoms: N_2  and  C_4
REMARK    4  A    between atoms: C_4  and  C_5
REMARK    5  A    between atoms: C_4  and  C_14
REMARK    6  A    between atoms: C_5  and  N_6
REMARK    7  A    between atoms: C_7  and  C_9
REMARK                            x       y       z     vdW  Elec       q    Type
REMARK                         _______ _______ _______ _____ _____    ______ ____
ROOT
ATOM      1  C   UNL     1       3.426   6.194  18.808  0.00  0.00    +0.000 C 
ENDROOT
BRANCH   1   2
ATOM      2  C   UNL     1       2.477   5.007  19.022  0.00  0.00    +0.000 A 
ATOM      3  C   UNL     1       1.940   4.634  20.262  0.00  0.00    +0.000 A 
ATOM      4  C   UNL     1       1.036   3.578  20.355  0.00  0.00    +0.000 A 
ATOM      5  C   UNL     1       0.716   2.888  19.202  0.00  0.00    +0.000 A 
ATOM      6  N   UNL     1       1.240   3.175  17.993  0.00  0.00    +0.000 NA
ATOM      7  C   UNL     1       2.101   4.220  17.932  0.00  0.00    +0.000 A 
ENDBRANCH   1   2
BRANCH   1   9
ATOM      8  C   UNL     1       5.188   6.772  17.122  0.00  0.00    +0.000 C 
ATOM      9  N   UNL     1       4.653   5.788  18.058  0.00  0.00    +0.000 NA
ATOM     10  C   UNL     1       5.719   5.301  18.934  0.00  0.00    +0.000 C 
ENDBRANCH   1   9
BRANCH   1  11
ATOM     11  C   UNL     1       2.714   7.495  18.307  0.00  0.00    +0.000 C 
BRANCH  11  12
ATOM     12  N   UNL     1       1.942   8.168  19.335  0.00  0.00    +0.000 N 
ATOM     13  C   UNL     1       1.197   9.302  19.129  0.00  0.00    +0.000 C 
ATOM     14  O   UNL     1       1.080   9.806  18.018  0.00  0.00    +0.000 OA
ATOM     15  H   UNL     1       2.097   7.901  20.300  0.00  0.00    +0.000 HD
BRANCH  13  16
ATOM     16  C   UNL     1       0.590   9.853  20.336  0.00  0.00    +0.000 A 
ATOM     17  C   UNL     1       0.384  11.186  20.634  0.00  0.00    +0.000 A 
ATOM     18  C   UNL     1      -0.263  11.374  21.890  0.00  0.00    +0.000 A 
ATOM     19  C   UNL     1      -0.523  10.185  22.522  0.00  0.00    +0.000 A 
ATOM     20  S   UNL     1       0.019   8.846  21.610  0.00  0.00    +0.000 S 
ENDBRANCH  13  16
ENDBRANCH  11  12
ENDBRANCH   1  11
TORSDOF 5
ENDMDL
