MODEL 1
REMARK VINA RESULT:      -9.0      0.000      0.000
REMARK  Name = 
REMARK  9 active torsions:
REMARK  status: ('A' for Active; 'I' for Inactive)
REMARK    1  A    between atoms: C_1  and  C_2
REMARK    2  A    between atoms: C_2  and  O_3
REMARK    3  A    between atoms: C_2  and  C_4
REMARK    4  A    between atoms: C_2  and  C_20
REMARK    5  A    between atoms: C_4  and  N_5
REMARK    6  A    between atoms: C_9  and  C_10
REMARK    7  A    between atoms: N_22  and  C_23
REMARK    8  A    between atoms: C_26  and  C_27
REMARK    9  A    between atoms: C_29  and  C_30
REMARK                            x       y       z     vdW  Elec       q    Type
REMARK                         _______ _______ _______ _____ _____    ______ ____
ROOT
ATOM      1  C   UNL     1      -0.216   9.567  23.258  0.00  0.00    +0.000 C 
ATOM      2  C   UNL     1       0.871   9.642  22.185  0.00  0.00    +0.000 C 
ENDROOT
BRANCH   2   3
ATOM      3  C   UNL     1       0.771   8.371  21.311  0.00  0.00    +0.000 C 
ATOM      4  O   UNL     1      -0.310   7.808  21.132  0.00  0.00    +0.000 OA
ATOM      5  N   UNL     1       1.998   7.924  20.837  0.00  0.00    +0.000 N 
ATOM      6  H   UNL     1       2.817   8.399  21.213  0.00  0.00    +0.000 HD
BRANCH   5   7
ATOM      7  C   UNL     1       2.192   6.770  20.050  0.00  0.00    +0.000 A 
ATOM      8  C   UNL     1       2.673   6.832  18.743  0.00  0.00    +0.000 A 
ATOM      9  C   UNL     1       2.730   5.691  17.949  0.00  0.00    +0.000 A 
ATOM     10  C   UNL     1       2.302   4.453  18.450  0.00  0.00    +0.000 A 
ATOM     11  C   UNL     1       1.853   4.363  19.775  0.00  0.00    +0.000 A 
ATOM     12  C   UNL     1       1.851   5.523  20.584  0.00  0.00    +0.000 A 
BRANCH  11  13
ATOM     13  C   UNL     1       1.316   3.078  20.373  0.00  0.00    +0.000 C 
ATOM     14  F   UNL     1       0.919   3.163  21.666  0.00  0.00    +0.000 F 
ATOM     15  F   UNL     1       0.245   2.600  19.682  0.00  0.00    +0.000 F 
ATOM     16  F   UNL     1       2.251   2.086  20.342  0.00  0.00    +0.000 F 
ENDBRANCH  11  13
BRANCH  10  17
ATOM     17  C   UNL     1       2.342   3.334  17.554  0.00  0.00    +0.000 C 
ATOM     18  N   UNL     1       2.345   2.414  16.850  0.00  0.00    +0.000 NA
ENDBRANCH  10  17
ENDBRANCH   5   7
ENDBRANCH   2   3
BRANCH   2  19
ATOM     19  O   UNL     1       2.151   9.628  22.832  0.00  0.00    +0.000 OA
ATOM     20  H   UNL     1       2.377   8.700  23.025  0.00  0.00    +0.000 HD
ENDBRANCH   2  19
BRANCH   2  21
ATOM     21  C   UNL     1       0.705  10.850  21.236  0.00  0.00    +0.000 C 
BRANCH  21  22
ATOM     22  N   UNL     1      -0.657  11.179  20.842  0.00  0.00    +0.000 N 
ATOM     23  C   UNL     1      -1.464  12.002  21.582  0.00  0.00    +0.000 A 
ATOM     24  C   UNL     1      -2.566  12.302  20.821  0.00  0.00    +0.000 A 
ATOM     25  C   UNL     1      -2.470  11.603  19.577  0.00  0.00    +0.000 A 
ATOM     26  C   UNL     1      -3.296  11.515  18.414  0.00  0.00    +0.000 A 
ATOM     27  C   UNL     1      -2.803  10.754  17.330  0.00  0.00    +0.000 A 
ATOM     28  C   UNL     1      -1.600  10.059  17.400  0.00  0.00    +0.000 A 
ATOM     29  C   UNL     1      -0.816  10.105  18.550  0.00  0.00    +0.000 A 
ATOM     30  C   UNL     1      -1.251  10.902  19.621  0.00  0.00    +0.000 A 
BRANCH  26  31
ATOM     31  C   UNL     1      -4.626  12.170  18.348  0.00  0.00    +0.000 A 
ATOM     32  C   UNL     1      -5.398  12.152  17.170  0.00  0.00    +0.000 A 
ATOM     33  C   UNL     1      -6.674  12.725  17.117  0.00  0.00    +0.000 A 
ATOM     34  C   UNL     1      -7.201  13.357  18.238  0.00  0.00    +0.000 A 
ATOM     35  C   UNL     1      -6.465  13.391  19.415  0.00  0.00    +0.000 A 
ATOM     36  C   UNL     1      -5.207  12.783  19.472  0.00  0.00    +0.000 A 
ENDBRANCH  26  31
ENDBRANCH  21  22
ENDBRANCH   2  21
TORSDOF 8
ENDMDL
MODEL 2
REMARK VINA RESULT:      -8.9      1.841      2.214
REMARK  Name = 
REMARK  9 active torsions:
REMARK  status: ('A' for Active; 'I' for Inactive)
REMARK    1  A    between atoms: C_1  and  C_2
REMARK    2  A    between atoms: C_2  and  O_3
REMARK    3  A    between atoms: C_2  and  C_4
REMARK    4  A    between atoms: C_2  and  C_20
REMARK    5  A    between atoms: C_4  and  N_5
REMARK    6  A    between atoms: C_9  and  C_10
REMARK    7  A    between atoms: N_22  and  C_23
REMARK    8  A    between atoms: C_26  and  C_27
REMARK    9  A    between atoms: C_29  and  C_30
REMARK                            x       y       z     vdW  Elec       q    Type
REMARK                         _______ _______ _______ _____ _____    ______ ____
ROOT
ATOM      1  C   UNL     1      -0.310   8.912  22.166  0.00  0.00    +0.000 C 
ATOM      2  C   UNL     1       0.968   9.412  21.489  0.00  0.00    +0.000 C 
ENDROOT
BRANCH   2   3
ATOM      3  C   UNL     1       1.451   8.318  20.510  0.00  0.00    +0.000 C 
ATOM      4  O   UNL     1       1.680   8.582  19.328  0.00  0.00    +0.000 OA
ATOM      5  N   UNL     1       1.521   7.053  21.079  0.00  0.00    +0.000 N 
ATOM      6  H   UNL     1       1.136   6.969  22.018  0.00  0.00    +0.000 HD
BRANCH   5   7
ATOM      7  C   UNL     1       1.896   5.876  20.398  0.00  0.00    +0.000 A 
ATOM      8  C   UNL     1       1.220   4.670  20.570  0.00  0.00    +0.000 A 
ATOM      9  C   UNL     1       1.692   3.499  19.985  0.00  0.00    +0.000 A 
ATOM     10  C   UNL     1       2.861   3.510  19.211  0.00  0.00    +0.000 A 
ATOM     11  C   UNL     1       3.532   4.722  18.994  0.00  0.00    +0.000 A 
ATOM     12  C   UNL     1       3.010   5.911  19.553  0.00  0.00    +0.000 A 
BRANCH  11  13
ATOM     13  C   UNL     1       4.834   4.810  18.223  0.00  0.00    +0.000 C 
ATOM     14  F   UNL     1       5.839   4.032  18.693  0.00  0.00    +0.000 F 
ATOM     15  F   UNL     1       4.679   4.472  16.913  0.00  0.00    +0.000 F 
ATOM     16  F   UNL     1       5.327   6.082  18.223  0.00  0.00    +0.000 F 
ENDBRANCH  11  13
BRANCH  10  17
ATOM     17  C   UNL     1       3.313   2.254  18.687  0.00  0.00    +0.000 C 
ATOM     18  N   UNL     1       3.708   1.258  18.246  0.00  0.00    +0.000 NA
ENDBRANCH  10  17
ENDBRANCH   5   7
ENDBRANCH   2   3
BRANCH   2  19
ATOM     19  O   UNL     1       1.979   9.577  22.493  0.00  0.00    +0.000 OA
ATOM     20  H   UNL     1       1.608  10.134  23.200  0.00  0.00    +0.000 HD
ENDBRANCH   2  19
BRANCH   2  21
ATOM     21  C   UNL     1       0.751  10.695  20.655  0.00  0.00    +0.000 C 
BRANCH  21  22
ATOM     22  N   UNL     1      -0.630  11.061  20.381  0.00  0.00    +0.000 N 
ATOM     23  C   UNL     1      -1.341  11.920  21.176  0.00  0.00    +0.000 A 
ATOM     24  C   UNL     1      -2.498  12.243  20.513  0.00  0.00    +0.000 A 
ATOM     25  C   UNL     1      -2.538  11.523  19.279  0.00  0.00    +0.000 A 
ATOM     26  C   UNL     1      -3.469  11.443  18.198  0.00  0.00    +0.000 A 
ATOM     27  C   UNL     1      -3.101  10.651  17.087  0.00  0.00    +0.000 A 
ATOM     28  C   UNL     1      -1.918   9.919  17.060  0.00  0.00    +0.000 A 
ATOM     29  C   UNL     1      -1.031   9.957  18.133  0.00  0.00    +0.000 A 
ATOM     30  C   UNL     1      -1.342  10.784  19.225  0.00  0.00    +0.000 A 
BRANCH  26  31
ATOM     31  C   UNL     1      -4.779  12.139  18.241  0.00  0.00    +0.000 A 
ATOM     32  C   UNL     1      -5.556  12.320  17.079  0.00  0.00    +0.000 A 
ATOM     33  C   UNL     1      -6.814  12.931  17.124  0.00  0.00    +0.000 A 
ATOM     34  C   UNL     1      -7.318  13.403  18.331  0.00  0.00    +0.000 A 
ATOM     35  C   UNL     1      -6.577  13.240  19.494  0.00  0.00    +0.000 A 
ATOM     36  C   UNL     1      -5.338  12.594  19.449  0.00  0.00    +0.000 A 
ENDBRANCH  26  31
ENDBRANCH  21  22
ENDBRANCH   2  21
TORSDOF 8
ENDMDL
MODEL 3
REMARK VINA RESULT:      -8.9      4.509      9.902
REMARK  Name = 
REMARK  9 active torsions:
REMARK  status: ('A' for Active; 'I' for Inactive)
REMARK    1  A    between atoms: C_1  and  C_2
REMARK    2  A    between atoms: C_2  and  O_3
REMARK    3  A    between atoms: C_2  and  C_4
REMARK    4  A    between atoms: C_2  and  C_20
REMARK    5  A    between atoms: C_4  and  N_5
REMARK    6  A    between atoms: C_9  and  C_10
REMARK    7  A    between atoms: N_22  and  C_23
REMARK    8  A    between atoms: C_26  and  C_27
REMARK    9  A    between atoms: C_29  and  C_30
REMARK                            x       y       z     vdW  Elec       q    Type
REMARK                         _______ _______ _______ _____ _____    ______ ____
ROOT
ATOM      1  C   UNL     1       1.972   3.302  21.741  0.00  0.00    +0.000 C 
ATOM      2  C   UNL     1       2.478   3.310  20.298  0.00  0.00    +0.000 C 
ENDROOT
BRANCH   2   3
ATOM      3  C   UNL     1       1.932   4.579  19.606  0.00  0.00    +0.000 C 
ATOM      4  O   UNL     1       1.273   4.502  18.568  0.00  0.00    +0.000 OA
ATOM      5  N   UNL     1       2.317   5.760  20.227  0.00  0.00    +0.000 N 
ATOM      6  H   UNL     1       3.001   5.664  20.975  0.00  0.00    +0.000 HD
BRANCH   5   7
ATOM      7  C   UNL     1       1.987   7.057  19.781  0.00  0.00    +0.000 A 
ATOM      8  C   UNL     1       2.481   7.580  18.587  0.00  0.00    +0.000 A 
ATOM      9  C   UNL     1       2.243   8.906  18.238  0.00  0.00    +0.000 A 
ATOM     10  C   UNL     1       1.503   9.744  19.084  0.00  0.00    +0.000 A 
ATOM     11  C   UNL     1       0.965   9.224  20.270  0.00  0.00    +0.000 A 
ATOM     12  C   UNL     1       1.172   7.861  20.583  0.00  0.00    +0.000 A 
BRANCH  11  13
ATOM     13  C   UNL     1       0.207  10.077  21.268  0.00  0.00    +0.000 C 
ATOM     14  F   UNL     1       0.876  11.161  21.729  0.00  0.00    +0.000 F 
ATOM     15  F   UNL     1      -0.963  10.548  20.756  0.00  0.00    +0.000 F 
ATOM     16  F   UNL     1      -0.135   9.360  22.376  0.00  0.00    +0.000 F 
ENDBRANCH  11  13
BRANCH  10  17
ATOM     17  C   UNL     1       1.347  11.112  18.681  0.00  0.00    +0.000 C 
ATOM     18  N   UNL     1       1.200  12.223  18.387  0.00  0.00    +0.000 NA
ENDBRANCH  10  17
ENDBRANCH   5   7
ENDBRANCH   2   3
BRANCH   2  19
ATOM     19  O   UNL     1       1.930   2.172  19.618  0.00  0.00    +0.000 OA
ATOM     20  H   UNL     1       0.982   2.123  19.835  0.00  0.00    +0.000 HD
ENDBRANCH   2  19
BRANCH   2  21
ATOM     21  C   UNL     1       4.018   3.372  20.194  0.00  0.00    +0.000 C 
BRANCH  21  22
ATOM     22  N   UNL     1       4.574   3.393  18.849  0.00  0.00    +0.000 N 
ATOM     23  C   UNL     1       4.092   2.608  17.835  0.00  0.00    +0.000 A 
ATOM     24  C   UNL     1       4.655   3.046  16.663  0.00  0.00    +0.000 A 
ATOM     25  C   UNL     1       5.561   4.113  16.958  0.00  0.00    +0.000 A 
ATOM     26  C   UNL     1       6.422   4.939  16.172  0.00  0.00    +0.000 A 
ATOM     27  C   UNL     1       7.124   5.963  16.845  0.00  0.00    +0.000 A 
ATOM     28  C   UNL     1       7.045   6.131  18.224  0.00  0.00    +0.000 A 
ATOM     29  C   UNL     1       6.243   5.297  18.999  0.00  0.00    +0.000 A 
ATOM     30  C   UNL     1       5.487   4.308  18.349  0.00  0.00    +0.000 A 
BRANCH  26  31
ATOM     31  C   UNL     1       6.597   4.722  14.714  0.00  0.00    +0.000 A 
ATOM     32  C   UNL     1       7.584   5.408  13.980  0.00  0.00    +0.000 A 
ATOM     33  C   UNL     1       7.785   5.170  12.616  0.00  0.00    +0.000 A 
ATOM     34  C   UNL     1       6.983   4.256  11.941  0.00  0.00    +0.000 A 
ATOM     35  C   UNL     1       6.001   3.562  12.637  0.00  0.00    +0.000 A 
ATOM     36  C   UNL     1       5.831   3.777  14.008  0.00  0.00    +0.000 A 
ENDBRANCH  26  31
ENDBRANCH  21  22
ENDBRANCH   2  21
TORSDOF 8
ENDMDL
MODEL 4
REMARK VINA RESULT:      -8.7      4.555      9.891
REMARK  Name = 
REMARK  9 active torsions:
REMARK  status: ('A' for Active; 'I' for Inactive)
REMARK    1  A    between atoms: C_1  and  C_2
REMARK    2  A    between atoms: C_2  and  O_3
REMARK    3  A    between atoms: C_2  and  C_4
REMARK    4  A    between atoms: C_2  and  C_20
REMARK    5  A    between atoms: C_4  and  N_5
REMARK    6  A    between atoms: C_9  and  C_10
REMARK    7  A    between atoms: N_22  and  C_23
REMARK    8  A    between atoms: C_26  and  C_27
REMARK    9  A    between atoms: C_29  and  C_30
REMARK                            x       y       z     vdW  Elec       q    Type
REMARK                         _______ _______ _______ _____ _____    ______ ____
ROOT
ATOM      1  C   UNL     1       1.767   3.085  21.591  0.00  0.00    +0.000 C 
ATOM      2  C   UNL     1       2.328   3.112  20.169  0.00  0.00    +0.000 C 
ENDROOT
BRANCH   2   3
ATOM      3  C   UNL     1       1.837   4.407  19.484  0.00  0.00    +0.000 C 
ATOM      4  O   UNL     1       1.174   4.364  18.447  0.00  0.00    +0.000 OA
ATOM      5  N   UNL     1       2.275   5.568  20.111  0.00  0.00    +0.000 N 
ATOM      6  H   UNL     1       2.956   5.438  20.856  0.00  0.00    +0.000 HD
BRANCH   5   7
ATOM      7  C   UNL     1       2.002   6.880  19.671  0.00  0.00    +0.000 A 
ATOM      8  C   UNL     1       2.548   7.400  18.499  0.00  0.00    +0.000 A 
ATOM      9  C   UNL     1       2.364   8.737  18.160  0.00  0.00    +0.000 A 
ATOM     10  C   UNL     1       1.627   9.589  18.994  0.00  0.00    +0.000 A 
ATOM     11  C   UNL     1       1.036   9.073  20.157  0.00  0.00    +0.000 A 
ATOM     12  C   UNL     1       1.189   7.701  20.459  0.00  0.00    +0.000 A 
BRANCH  11  13
ATOM     13  C   UNL     1       0.276   9.939  21.143  0.00  0.00    +0.000 C 
ATOM     14  F   UNL     1      -0.813  10.570  20.639  0.00  0.00    +0.000 F 
ATOM     15  F   UNL     1      -0.166   9.227  22.216  0.00  0.00    +0.000 F 
ATOM     16  F   UNL     1       1.068  10.925  21.651  0.00  0.00    +0.000 F 
ENDBRANCH  11  13
BRANCH  10  17
ATOM     17  C   UNL     1       1.527  10.966  18.604  0.00  0.00    +0.000 C 
ATOM     18  N   UNL     1       1.474  12.086  18.314  0.00  0.00    +0.000 NA
ENDBRANCH  10  17
ENDBRANCH   5   7
ENDBRANCH   2   3
BRANCH   2  19
ATOM     19  O   UNL     1       1.784   2.001  19.444  0.00  0.00    +0.000 OA
ATOM     20  H   UNL     1       1.664   1.266  20.072  0.00  0.00    +0.000 HD
ENDBRANCH   2  19
BRANCH   2  21
ATOM     21  C   UNL     1       3.873   3.142  20.126  0.00  0.00    +0.000 C 
BRANCH  21  22
ATOM     22  N   UNL     1       4.481   3.192  18.805  0.00  0.00    +0.000 N 
ATOM     23  C   UNL     1       4.107   2.358  17.784  0.00  0.00    +0.000 A 
ATOM     24  C   UNL     1       4.681   2.826  16.630  0.00  0.00    +0.000 A 
ATOM     25  C   UNL     1       5.483   3.967  16.944  0.00  0.00    +0.000 A 
ATOM     26  C   UNL     1       6.307   4.851  16.181  0.00  0.00    +0.000 A 
ATOM     27  C   UNL     1       6.894   5.938  16.866  0.00  0.00    +0.000 A 
ATOM     28  C   UNL     1       6.744   6.116  18.238  0.00  0.00    +0.000 A 
ATOM     29  C   UNL     1       5.982   5.228  18.992  0.00  0.00    +0.000 A 
ATOM     30  C   UNL     1       5.336   4.173  18.328  0.00  0.00    +0.000 A 
BRANCH  26  31
ATOM     31  C   UNL     1       6.559   4.631  14.735  0.00  0.00    +0.000 A 
ATOM     32  C   UNL     1       5.765   3.750  13.974  0.00  0.00    +0.000 A 
ATOM     33  C   UNL     1       5.968   3.577  12.600  0.00  0.00    +0.000 A 
ATOM     34  C   UNL     1       6.992   4.263  11.954  0.00  0.00    +0.000 A 
ATOM     35  C   UNL     1       7.792   5.139  12.676  0.00  0.00    +0.000 A 
ATOM     36  C   UNL     1       7.559   5.336  14.041  0.00  0.00    +0.000 A 
ENDBRANCH  26  31
ENDBRANCH  21  22
ENDBRANCH   2  21
TORSDOF 8
ENDMDL
MODEL 5
REMARK VINA RESULT:      -8.5      4.330      9.789
REMARK  Name = 
REMARK  9 active torsions:
REMARK  status: ('A' for Active; 'I' for Inactive)
REMARK    1  A    between atoms: C_1  and  C_2
REMARK    2  A    between atoms: C_2  and  O_3
REMARK    3  A    between atoms: C_2  and  C_4
REMARK    4  A    between atoms: C_2  and  C_20
REMARK    5  A    between atoms: C_4  and  N_5
REMARK    6  A    between atoms: C_9  and  C_10
REMARK    7  A    between atoms: N_22  and  C_23
REMARK    8  A    between atoms: C_26  and  C_27
REMARK    9  A    between atoms: C_29  and  C_30
REMARK                            x       y       z     vdW  Elec       q    Type
REMARK                         _______ _______ _______ _____ _____    ______ ____
ROOT
ATOM      1  C   UNL     1       1.469   2.844  21.634  0.00  0.00    +0.000 C 
ATOM      2  C   UNL     1       2.061   3.105  20.247  0.00  0.00    +0.000 C 
ENDROOT
BRANCH   2   3
ATOM      3  C   UNL     1       1.665   4.536  19.818  0.00  0.00    +0.000 C 
ATOM      4  O   UNL     1       1.274   4.770  18.674  0.00  0.00    +0.000 OA
ATOM      5  N   UNL     1       1.862   5.488  20.811  0.00  0.00    +0.000 N 
ATOM      6  H   UNL     1       2.351   5.165  21.643  0.00  0.00    +0.000 HD
BRANCH   5   7
ATOM      7  C   UNL     1       1.617   6.870  20.669  0.00  0.00    +0.000 A 
ATOM      8  C   UNL     1       0.957   7.613  21.646  0.00  0.00    +0.000 A 
ATOM      9  C   UNL     1       0.615   8.942  21.422  0.00  0.00    +0.000 A 
ATOM     10  C   UNL     1       0.927   9.562  20.203  0.00  0.00    +0.000 A 
ATOM     11  C   UNL     1       1.627   8.843  19.224  0.00  0.00    +0.000 A 
ATOM     12  C   UNL     1       2.012   7.509  19.489  0.00  0.00    +0.000 A 
BRANCH  11  13
ATOM     13  C   UNL     1       1.949   9.418  17.858  0.00  0.00    +0.000 C 
ATOM     14  F   UNL     1       2.584  10.615  17.870  0.00  0.00    +0.000 F 
ATOM     15  F   UNL     1       2.732   8.584  17.122  0.00  0.00    +0.000 F 
ATOM     16  F   UNL     1       0.818   9.612  17.122  0.00  0.00    +0.000 F 
ENDBRANCH  11  13
BRANCH  10  17
ATOM     17  C   UNL     1       0.495  10.918  20.027  0.00  0.00    +0.000 C 
ATOM     18  N   UNL     1       0.150  12.009  19.846  0.00  0.00    +0.000 NA
ENDBRANCH  10  17
ENDBRANCH   5   7
ENDBRANCH   2   3
BRANCH   2  19
ATOM     19  O   UNL     1       1.464   2.189  19.318  0.00  0.00    +0.000 OA
ATOM     20  H   UNL     1       0.987   2.713  18.649  0.00  0.00    +0.000 HD
ENDBRANCH   2  19
BRANCH   2  21
ATOM     21  C   UNL     1       3.605   3.043  20.224  0.00  0.00    +0.000 C 
BRANCH  21  22
ATOM     22  N   UNL     1       4.233   3.093  18.913  0.00  0.00    +0.000 N 
ATOM     23  C   UNL     1       4.104   2.089  17.989  0.00  0.00    +0.000 A 
ATOM     24  C   UNL     1       4.595   2.553  16.795  0.00  0.00    +0.000 A 
ATOM     25  C   UNL     1       5.095   3.879  16.987  0.00  0.00    +0.000 A 
ATOM     26  C   UNL     1       5.715   4.846  16.137  0.00  0.00    +0.000 A 
ATOM     27  C   UNL     1       6.005   6.108  16.701  0.00  0.00    +0.000 A 
ATOM     28  C   UNL     1       5.767   6.392  18.042  0.00  0.00    +0.000 A 
ATOM     29  C   UNL     1       5.206   5.436  18.884  0.00  0.00    +0.000 A 
ATOM     30  C   UNL     1       4.851   4.192  18.337  0.00  0.00    +0.000 A 
BRANCH  26  31
ATOM     31  C   UNL     1       6.067   4.537  14.728  0.00  0.00    +0.000 A 
ATOM     32  C   UNL     1       5.218   3.766  13.910  0.00  0.00    +0.000 A 
ATOM     33  C   UNL     1       5.521   3.515  12.566  0.00  0.00    +0.000 A 
ATOM     34  C   UNL     1       6.698   4.007  12.013  0.00  0.00    +0.000 A 
ATOM     35  C   UNL     1       7.556   4.771  12.794  0.00  0.00    +0.000 A 
ATOM     36  C   UNL     1       7.228   5.051  14.124  0.00  0.00    +0.000 A 
ENDBRANCH  26  31
ENDBRANCH  21  22
ENDBRANCH   2  21
TORSDOF 8
ENDMDL
MODEL 6
REMARK VINA RESULT:      -8.5      4.286      9.972
REMARK  Name = 
REMARK  9 active torsions:
REMARK  status: ('A' for Active; 'I' for Inactive)
REMARK    1  A    between atoms: C_1  and  C_2
REMARK    2  A    between atoms: C_2  and  O_3
REMARK    3  A    between atoms: C_2  and  C_4
REMARK    4  A    between atoms: C_2  and  C_20
REMARK    5  A    between atoms: C_4  and  N_5
REMARK    6  A    between atoms: C_9  and  C_10
REMARK    7  A    between atoms: N_22  and  C_23
REMARK    8  A    between atoms: C_26  and  C_27
REMARK    9  A    between atoms: C_29  and  C_30
REMARK                            x       y       z     vdW  Elec       q    Type
REMARK                         _______ _______ _______ _____ _____    ______ ____
ROOT
ATOM      1  C   UNL     1       1.715   3.132  21.577  0.00  0.00    +0.000 C 
ATOM      2  C   UNL     1       2.283   3.380  20.178  0.00  0.00    +0.000 C 
ENDROOT
BRANCH   2   3
ATOM      3  C   UNL     1       1.916   4.823  19.761  0.00  0.00    +0.000 C 
ATOM      4  O   UNL     1       1.741   5.115  18.577  0.00  0.00    +0.000 OA
ATOM      5  N   UNL     1       1.881   5.717  20.824  0.00  0.00    +0.000 N 
ATOM      6  H   UNL     1       2.216   5.357  21.715  0.00  0.00    +0.000 HD
BRANCH   5   7
ATOM      7  C   UNL     1       1.610   7.097  20.714  0.00  0.00    +0.000 A 
ATOM      8  C   UNL     1       1.013   7.822  21.744  0.00  0.00    +0.000 A 
ATOM      9  C   UNL     1       0.640   9.149  21.558  0.00  0.00    +0.000 A 
ATOM     10  C   UNL     1       0.856   9.784  20.326  0.00  0.00    +0.000 A 
ATOM     11  C   UNL     1       1.492   9.083  19.291  0.00  0.00    +0.000 A 
ATOM     12  C   UNL     1       1.911   7.751  19.515  0.00  0.00    +0.000 A 
BRANCH  11  13
ATOM     13  C   UNL     1       1.707   9.674  17.912  0.00  0.00    +0.000 C 
ATOM     14  F   UNL     1       0.576  10.006  17.242  0.00  0.00    +0.000 F 
ATOM     15  F   UNL     1       2.465  10.804  17.951  0.00  0.00    +0.000 F 
ATOM     16  F   UNL     1       2.373   8.807  17.098  0.00  0.00    +0.000 F 
ENDBRANCH  11  13
BRANCH  10  17
ATOM     17  C   UNL     1       0.396  11.136  20.195  0.00  0.00    +0.000 C 
ATOM     18  N   UNL     1       0.048  12.238  20.117  0.00  0.00    +0.000 NA
ENDBRANCH  10  17
ENDBRANCH   5   7
ENDBRANCH   2   3
BRANCH   2  19
ATOM     19  O   UNL     1       1.641   2.483  19.261  0.00  0.00    +0.000 OA
ATOM     20  H   UNL     1       2.294   1.810  18.998  0.00  0.00    +0.000 HD
ENDBRANCH   2  19
BRANCH   2  21
ATOM     21  C   UNL     1       3.824   3.277  20.121  0.00  0.00    +0.000 C 
BRANCH  21  22
ATOM     22  N   UNL     1       4.424   3.314  18.796  0.00  0.00    +0.000 N 
ATOM     23  C   UNL     1       3.993   2.524  17.764  0.00  0.00    +0.000 A 
ATOM     24  C   UNL     1       4.586   2.978  16.613  0.00  0.00    +0.000 A 
ATOM     25  C   UNL     1       5.459   4.061  16.942  0.00  0.00    +0.000 A 
ATOM     26  C   UNL     1       6.330   4.907  16.188  0.00  0.00    +0.000 A 
ATOM     27  C   UNL     1       6.988   5.943  16.889  0.00  0.00    +0.000 A 
ATOM     28  C   UNL     1       6.859   6.104  18.265  0.00  0.00    +0.000 A 
ATOM     29  C   UNL     1       6.049   5.251  19.009  0.00  0.00    +0.000 A 
ATOM     30  C   UNL     1       5.335   4.250  18.330  0.00  0.00    +0.000 A 
BRANCH  26  31
ATOM     31  C   UNL     1       6.559   4.700  14.737  0.00  0.00    +0.000 A 
ATOM     32  C   UNL     1       7.580   5.382  14.047  0.00  0.00    +0.000 A 
ATOM     33  C   UNL     1       7.831   5.153  12.689  0.00  0.00    +0.000 A 
ATOM     34  C   UNL     1       7.047   4.251  11.977  0.00  0.00    +0.000 A 
ATOM     35  C   UNL     1       6.032   3.562  12.629  0.00  0.00    +0.000 A 
ATOM     36  C   UNL     1       5.812   3.767  13.994  0.00  0.00    +0.000 A 
ENDBRANCH  26  31
ENDBRANCH  21  22
ENDBRANCH   2  21
TORSDOF 8
ENDMDL
MODEL 7
REMARK VINA RESULT:      -8.4      2.176      3.158
REMARK  Name = 
REMARK  9 active torsions:
REMARK  status: ('A' for Active; 'I' for Inactive)
REMARK    1  A    between atoms: C_1  and  C_2
REMARK    2  A    between atoms: C_2  and  O_3
REMARK    3  A    between atoms: C_2  and  C_4
REMARK    4  A    between atoms: C_2  and  C_20
REMARK    5  A    between atoms: C_4  and  N_5
REMARK    6  A    between atoms: C_9  and  C_10
REMARK    7  A    between atoms: N_22  and  C_23
REMARK    8  A    between atoms: C_26  and  C_27
REMARK    9  A    between atoms: C_29  and  C_30
REMARK                            x       y       z     vdW  Elec       q    Type
REMARK                         _______ _______ _______ _____ _____    ______ ____
ROOT
ATOM      1  C   UNL     1      -0.429   9.025  22.042  0.00  0.00    +0.000 C 
ATOM      2  C   UNL     1       0.962   9.412  21.539  0.00  0.00    +0.000 C 
ENDROOT
BRANCH   2   3
ATOM      3  C   UNL     1       1.417   8.345  20.517  0.00  0.00    +0.000 C 
ATOM      4  O   UNL     1       1.554   8.627  19.326  0.00  0.00    +0.000 OA
ATOM      5  N   UNL     1       1.574   7.080  21.067  0.00  0.00    +0.000 N 
ATOM      6  H   UNL     1       1.259   6.973  22.029  0.00  0.00    +0.000 HD
BRANCH   5   7
ATOM      7  C   UNL     1       1.945   5.923  20.349  0.00  0.00    +0.000 A 
ATOM      8  C   UNL     1       1.245   4.723  20.459  0.00  0.00    +0.000 A 
ATOM      9  C   UNL     1       1.710   3.567  19.841  0.00  0.00    +0.000 A 
ATOM     10  C   UNL     1       2.898   3.587  19.095  0.00  0.00    +0.000 A 
ATOM     11  C   UNL     1       3.594   4.794  18.940  0.00  0.00    +0.000 A 
ATOM     12  C   UNL     1       3.079   5.970  19.532  0.00  0.00    +0.000 A 
BRANCH  11  13
ATOM     13  C   UNL     1       4.915   4.889  18.203  0.00  0.00    +0.000 C 
ATOM     14  F   UNL     1       5.897   4.078  18.667  0.00  0.00    +0.000 F 
ATOM     15  F   UNL     1       4.786   4.601  16.878  0.00  0.00    +0.000 F 
ATOM     16  F   UNL     1       5.427   6.151  18.260  0.00  0.00    +0.000 F 
ENDBRANCH  11  13
BRANCH  10  17
ATOM     17  C   UNL     1       3.341   2.344  18.532  0.00  0.00    +0.000 C 
ATOM     18  N   UNL     1       3.676   1.322  18.104  0.00  0.00    +0.000 NA
ENDBRANCH  10  17
ENDBRANCH   5   7
ENDBRANCH   2   3
BRANCH   2  19
ATOM     19  O   UNL     1       1.873   9.373  22.646  0.00  0.00    +0.000 OA
ATOM     20  H   UNL     1       1.726   8.536  23.123  0.00  0.00    +0.000 HD
ENDBRANCH   2  19
BRANCH   2  21
ATOM     21  C   UNL     1       0.986  10.772  20.806  0.00  0.00    +0.000 C 
BRANCH  21  22
ATOM     22  N   UNL     1      -0.307  11.376  20.523  0.00  0.00    +0.000 N 
ATOM     23  C   UNL     1      -0.987  11.161  19.354  0.00  0.00    +0.000 A 
ATOM     24  C   UNL     1      -2.256  11.658  19.509  0.00  0.00    +0.000 A 
ATOM     25  C   UNL     1      -2.363  12.249  20.807  0.00  0.00    +0.000 A 
ATOM     26  C   UNL     1      -3.407  12.916  21.518  0.00  0.00    +0.000 A 
ATOM     27  C   UNL     1      -3.136  13.302  22.850  0.00  0.00    +0.000 A 
ATOM     28  C   UNL     1      -1.889  13.110  23.436  0.00  0.00    +0.000 A 
ATOM     29  C   UNL     1      -0.855  12.503  22.729  0.00  0.00    +0.000 A 
ATOM     30  C   UNL     1      -1.114  12.055  21.423  0.00  0.00    +0.000 A 
BRANCH  26  31
ATOM     31  C   UNL     1      -4.716  13.218  20.885  0.00  0.00    +0.000 A 
ATOM     32  C   UNL     1      -5.005  14.494  20.364  0.00  0.00    +0.000 A 
ATOM     33  C   UNL     1      -6.218  14.769  19.722  0.00  0.00    +0.000 A 
ATOM     34  C   UNL     1      -7.188  13.778  19.609  0.00  0.00    +0.000 A 
ATOM     35  C   UNL     1      -6.932  12.509  20.112  0.00  0.00    +0.000 A 
ATOM     36  C   UNL     1      -5.703  12.231  20.718  0.00  0.00    +0.000 A 
ENDBRANCH  26  31
ENDBRANCH  21  22
ENDBRANCH   2  21
TORSDOF 8
ENDMDL
MODEL 8
REMARK VINA RESULT:      -8.4      1.671      2.213
REMARK  Name = 
REMARK  9 active torsions:
REMARK  status: ('A' for Active; 'I' for Inactive)
REMARK    1  A    between atoms: C_1  and  C_2
REMARK    2  A    between atoms: C_2  and  O_3
REMARK    3  A    between atoms: C_2  and  C_4
REMARK    4  A    between atoms: C_2  and  C_20
REMARK    5  A    between atoms: C_4  and  N_5
REMARK    6  A    between atoms: C_9  and  C_10
REMARK    7  A    between atoms: N_22  and  C_23
REMARK    8  A    between atoms: C_26  and  C_27
REMARK    9  A    between atoms: C_29  and  C_30
REMARK                            x       y       z     vdW  Elec       q    Type
REMARK                         _______ _______ _______ _____ _____    ______ ____
ROOT
ATOM      1  C   UNL     1      -0.658   8.934  21.469  0.00  0.00    +0.000 C 
ATOM      2  C   UNL     1       0.563   9.517  20.757  0.00  0.00    +0.000 C 
ENDROOT
BRANCH   2   3
ATOM      3  C   UNL     1       1.501   8.348  20.379  0.00  0.00    +0.000 C 
ATOM      4  O   UNL     1       1.949   7.590  21.241  0.00  0.00    +0.000 OA
ATOM      5  N   UNL     1       1.818   8.304  19.027  0.00  0.00    +0.000 N 
ATOM      6  H   UNL     1       1.506   9.100  18.474  0.00  0.00    +0.000 HD
BRANCH   5   7
ATOM      7  C   UNL     1       2.680   7.364  18.426  0.00  0.00    +0.000 A 
ATOM      8  C   UNL     1       3.788   7.746  17.671  0.00  0.00    +0.000 A 
ATOM      9  C   UNL     1       4.543   6.801  16.984  0.00  0.00    +0.000 A 
ATOM     10  C   UNL     1       4.202   5.442  17.037  0.00  0.00    +0.000 A 
ATOM     11  C   UNL     1       3.115   5.034  17.823  0.00  0.00    +0.000 A 
ATOM     12  C   UNL     1       2.391   6.002  18.556  0.00  0.00    +0.000 A 
BRANCH  11  13
ATOM     13  C   UNL     1       2.644   3.595  17.885  0.00  0.00    +0.000 C 
ATOM     14  F   UNL     1       3.514   2.724  18.451  0.00  0.00    +0.000 F 
ATOM     15  F   UNL     1       1.479   3.466  18.578  0.00  0.00    +0.000 F 
ATOM     16  F   UNL     1       2.391   3.101  16.640  0.00  0.00    +0.000 F 
ENDBRANCH  11  13
BRANCH  10  17
ATOM     17  C   UNL     1       4.996   4.535  16.259  0.00  0.00    +0.000 C 
ATOM     18  N   UNL     1       5.629   3.823  15.600  0.00  0.00    +0.000 NA
ENDBRANCH  10  17
ENDBRANCH   5   7
ENDBRANCH   2   3
BRANCH   2  19
ATOM     19  O   UNL     1       1.267  10.362  21.679  0.00  0.00    +0.000 OA
ATOM     20  H   UNL     1       2.219  10.179  21.582  0.00  0.00    +0.000 HD
ENDBRANCH   2  19
BRANCH   2  21
ATOM     21  C   UNL     1       0.208  10.248  19.442  0.00  0.00    +0.000 C 
BRANCH  21  22
ATOM     22  N   UNL     1      -1.146  10.772  19.341  0.00  0.00    +0.000 N 
ATOM     23  C   UNL     1      -1.650  11.699  20.214  0.00  0.00    +0.000 A 
ATOM     24  C   UNL     1      -2.835  12.159  19.699  0.00  0.00    +0.000 A 
ATOM     25  C   UNL     1      -3.109  11.460  18.482  0.00  0.00    +0.000 A 
ATOM     26  C   UNL     1      -4.171  11.498  17.525  0.00  0.00    +0.000 A 
ATOM     27  C   UNL     1      -4.036  10.680  16.381  0.00  0.00    +0.000 A 
ATOM     28  C   UNL     1      -2.957   9.818  16.210  0.00  0.00    +0.000 A 
ATOM     29  C   UNL     1      -1.946   9.745  17.164  0.00  0.00    +0.000 A 
ATOM     30  C   UNL     1      -2.022  10.590  18.283  0.00  0.00    +0.000 A 
BRANCH  26  31
ATOM     31  C   UNL     1      -5.377  12.338  17.729  0.00  0.00    +0.000 A 
ATOM     32  C   UNL     1      -5.908  12.565  19.014  0.00  0.00    +0.000 A 
ATOM     33  C   UNL     1      -7.016  13.397  19.215  0.00  0.00    +0.000 A 
ATOM     34  C   UNL     1      -7.639  14.004  18.130  0.00  0.00    +0.000 A 
ATOM     35  C   UNL     1      -7.139  13.800  16.850  0.00  0.00    +0.000 A 
ATOM     36  C   UNL     1      -6.009  12.999  16.660  0.00  0.00    +0.000 A 
ENDBRANCH  26  31
ENDBRANCH  21  22
ENDBRANCH   2  21
TORSDOF 8
ENDMDL
MODEL 9
REMARK VINA RESULT:      -8.4      4.721      7.456
REMARK  Name = 
REMARK  9 active torsions:
REMARK  status: ('A' for Active; 'I' for Inactive)
REMARK    1  A    between atoms: C_1  and  C_2
REMARK    2  A    between atoms: C_2  and  O_3
REMARK    3  A    between atoms: C_2  and  C_4
REMARK    4  A    between atoms: C_2  and  C_20
REMARK    5  A    between atoms: C_4  and  N_5
REMARK    6  A    between atoms: C_9  and  C_10
REMARK    7  A    between atoms: N_22  and  C_23
REMARK    8  A    between atoms: C_26  and  C_27
REMARK    9  A    between atoms: C_29  and  C_30
REMARK                            x       y       z     vdW  Elec       q    Type
REMARK                         _______ _______ _______ _____ _____    ______ ____
ROOT
ATOM      1  C   UNL     1       1.323   2.636  18.331  0.00  0.00    +0.000 C 
ATOM      2  C   UNL     1       2.842   2.572  18.506  0.00  0.00    +0.000 C 
ENDROOT
BRANCH   2   3
ATOM      3  C   UNL     1       3.496   3.126  17.219  0.00  0.00    +0.000 C 
ATOM      4  O   UNL     1       2.842   3.265  16.185  0.00  0.00    +0.000 OA
ATOM      5  N   UNL     1       4.858   3.367  17.348  0.00  0.00    +0.000 N 
ATOM      6  H   UNL     1       5.285   3.041  18.213  0.00  0.00    +0.000 HD
BRANCH   5   7
ATOM      7  C   UNL     1       5.699   3.837  16.318  0.00  0.00    +0.000 A 
ATOM      8  C   UNL     1       6.697   4.783  16.546  0.00  0.00    +0.000 A 
ATOM      9  C   UNL     1       7.423   5.322  15.488  0.00  0.00    +0.000 A 
ATOM     10  C   UNL     1       7.162   4.925  14.169  0.00  0.00    +0.000 A 
ATOM     11  C   UNL     1       6.190   3.944  13.924  0.00  0.00    +0.000 A 
ATOM     12  C   UNL     1       5.498   3.369  15.015  0.00  0.00    +0.000 A 
BRANCH  11  13
ATOM     13  C   UNL     1       5.805   3.504  12.526  0.00  0.00    +0.000 C 
ATOM     14  F   UNL     1       6.374   4.211  11.519  0.00  0.00    +0.000 F 
ATOM     15  F   UNL     1       6.119   2.200  12.294  0.00  0.00    +0.000 F 
ATOM     16  F   UNL     1       4.459   3.603  12.327  0.00  0.00    +0.000 F 
ENDBRANCH  11  13
BRANCH  10  17
ATOM     17  C   UNL     1       7.915   5.565  13.129  0.00  0.00    +0.000 C 
ATOM     18  N   UNL     1       8.550   6.089  12.315  0.00  0.00    +0.000 NA
ENDBRANCH  10  17
ENDBRANCH   5   7
ENDBRANCH   2   3
BRANCH   2  19
ATOM     19  O   UNL     1       3.227   1.197  18.636  0.00  0.00    +0.000 OA
ATOM     20  H   UNL     1       2.424   0.653  18.550  0.00  0.00    +0.000 HD
ENDBRANCH   2  19
BRANCH   2  21
ATOM     21  C   UNL     1       3.355   3.441  19.677  0.00  0.00    +0.000 C 
BRANCH  21  22
ATOM     22  N   UNL     1       2.570   4.625  19.995  0.00  0.00    +0.000 N 
ATOM     23  C   UNL     1       1.834   4.740  21.144  0.00  0.00    +0.000 A 
ATOM     24  C   UNL     1       1.431   6.047  21.253  0.00  0.00    +0.000 A 
ATOM     25  C   UNL     1       1.890   6.767  20.106  0.00  0.00    +0.000 A 
ATOM     26  C   UNL     1       1.775   8.122  19.666  0.00  0.00    +0.000 A 
ATOM     27  C   UNL     1       2.451   8.472  18.475  0.00  0.00    +0.000 A 
ATOM     28  C   UNL     1       3.146   7.535  17.716  0.00  0.00    +0.000 A 
ATOM     29  C   UNL     1       3.219   6.205  18.119  0.00  0.00    +0.000 A 
ATOM     30  C   UNL     1       2.607   5.840  19.329  0.00  0.00    +0.000 A 
BRANCH  26  31
ATOM     31  C   UNL     1       0.964   9.120  20.406  0.00  0.00    +0.000 A 
ATOM     32  C   UNL     1       0.279  10.154  19.738  0.00  0.00    +0.000 A 
ATOM     33  C   UNL     1      -0.527  11.068  20.427  0.00  0.00    +0.000 A 
ATOM     34  C   UNL     1      -0.650  10.985  21.810  0.00  0.00    +0.000 A 
ATOM     35  C   UNL     1       0.012   9.976  22.498  0.00  0.00    +0.000 A 
ATOM     36  C   UNL     1       0.786   9.044  21.799  0.00  0.00    +0.000 A 
ENDBRANCH  26  31
ENDBRANCH  21  22
ENDBRANCH   2  21
TORSDOF 8
ENDMDL
