MODEL 1
REMARK VINA RESULT:      -8.3      0.000      0.000
REMARK  Name = 
REMARK  7 active torsions:
REMARK  status: ('A' for Active; 'I' for Inactive)
REMARK    1  A    between atoms: C_1  and  O_2
REMARK    2  A    between atoms: O_2  and  C_3
REMARK    3  A    between atoms: C_5  and  C_6
REMARK    4  A    between atoms: C_8  and  C_9
REMARK    5  A    between atoms: C_10  and  O_11
REMARK    6  A    between atoms: C_22  and  O_23
REMARK    7  A    between atoms: C_27  and  O_28
REMARK                            x       y       z     vdW  Elec       q    Type
REMARK                         _______ _______ _______ _____ _____    ______ ____
ROOT
ATOM      1  C   UNL     1       2.713   6.629  19.177  0.00  0.00    +0.000 A 
ATOM      2  C   UNL     1       3.508   6.572  18.043  0.00  0.00    +0.000 A 
ATOM      3  C   UNL     1       4.288   5.443  17.858  0.00  0.00    +0.000 A 
ATOM      4  N   UNL     1       4.238   4.394  18.716  0.00  0.00    +0.000 NA
ATOM      5  C   UNL     1       3.419   4.554  19.762  0.00  0.00    +0.000 A 
ATOM      6  N   UNL     1       2.653   5.604  20.041  0.00  0.00    +0.000 NA
ENDROOT
BRANCH   3   7
ATOM      7  C   UNL     1       5.191   5.293  16.687  0.00  0.00    +0.000 A 
ATOM      8  C   UNL     1       5.052   4.287  15.798  0.00  0.00    +0.000 A 
ATOM      9  C   UNL     1       5.854   4.281  14.578  0.00  0.00    +0.000 A 
ATOM     10  C   UNL     1       5.494   3.608  13.409  0.00  0.00    +0.000 A 
ATOM     11  C   UNL     1       6.290   3.713  12.263  0.00  0.00    +0.000 A 
ATOM     12  C   UNL     1       7.474   4.453  12.290  0.00  0.00    +0.000 A 
ATOM     13  C   UNL     1       7.851   5.113  13.455  0.00  0.00    +0.000 A 
ATOM     14  C   UNL     1       7.017   5.044  14.568  0.00  0.00    +0.000 A 
ATOM     15  O   UNL     1       7.351   5.842  15.661  0.00  0.00    +0.000 OA
ATOM     16  C   UNL     1       6.285   6.286  16.427  0.00  0.00    +0.000 A 
ATOM     17  O   UNL     1       6.314   7.398  16.936  0.00  0.00    +0.000 OA
BRANCH   8  18
ATOM     18  O   UNL     1       4.155   3.246  15.918  0.00  0.00    +0.000 OA
ATOM     19  H   UNL     1       4.591   2.445  15.563  0.00  0.00    +0.000 HD
ENDBRANCH   8  18
ENDBRANCH   3   7
BRANCH   1  22
ATOM     20  C   UNL     1       0.319   8.987  21.009  0.00  0.00    +0.000 A 
ATOM     21  C   UNL     1       1.123   7.879  20.692  0.00  0.00    +0.000 A 
ATOM     22  C   UNL     1       1.898   7.817  19.518  0.00  0.00    +0.000 A 
ATOM     23  C   UNL     1       1.844   8.926  18.659  0.00  0.00    +0.000 A 
ATOM     24  C   UNL     1       1.048  10.037  18.955  0.00  0.00    +0.000 A 
ATOM     25  C   UNL     1       0.284  10.065  20.124  0.00  0.00    +0.000 A 
BRANCH  20  27
ATOM     26  C   UNL     1       0.094   9.578  23.318  0.00  0.00    +0.000 C 
ATOM     27  O   UNL     1      -0.346   8.830  22.196  0.00  0.00    +0.000 OA
ENDBRANCH  20  27
BRANCH  25  28
ATOM     28  O   UNL     1      -0.492  11.165  20.363  0.00  0.00    +0.000 OA
ATOM     29  H   UNL     1      -1.426  10.906  20.329  0.00  0.00    +0.000 HD
ENDBRANCH  25  28
ENDBRANCH   1  22
BRANCH   5  30
ATOM     30  O   UNL     1       3.379   3.513  20.633  0.00  0.00    +0.000 OA
ATOM     31  H   UNL     1       2.487   3.616  20.998  0.00  0.00    +0.000 HD
ENDBRANCH   5  30
TORSDOF 6
ENDMDL
MODEL 2
REMARK VINA RESULT:      -8.2      0.708      1.681
REMARK  Name = 
REMARK  7 active torsions:
REMARK  status: ('A' for Active; 'I' for Inactive)
REMARK    1  A    between atoms: C_1  and  O_2
REMARK    2  A    between atoms: O_2  and  C_3
REMARK    3  A    between atoms: C_5  and  C_6
REMARK    4  A    between atoms: C_8  and  C_9
REMARK    5  A    between atoms: C_10  and  O_11
REMARK    6  A    between atoms: C_22  and  O_23
REMARK    7  A    between atoms: C_27  and  O_28
REMARK                            x       y       z     vdW  Elec       q    Type
REMARK                         _______ _______ _______ _____ _____    ______ ____
ROOT
ATOM      1  C   UNL     1       2.851   6.404  19.292  0.00  0.00    +0.000 A 
ATOM      2  C   UNL     1       3.622   6.404  18.140  0.00  0.00    +0.000 A 
ATOM      3  C   UNL     1       4.396   5.286  17.882  0.00  0.00    +0.000 A 
ATOM      4  N   UNL     1       4.363   4.194  18.687  0.00  0.00    +0.000 NA
ATOM      5  C   UNL     1       3.566   4.302  19.757  0.00  0.00    +0.000 A 
ATOM      6  N   UNL     1       2.807   5.336  20.104  0.00  0.00    +0.000 NA
ENDROOT
BRANCH   3   7
ATOM      7  C   UNL     1       5.275   5.195  16.686  0.00  0.00    +0.000 A 
ATOM      8  C   UNL     1       5.151   4.202  15.780  0.00  0.00    +0.000 A 
ATOM      9  C   UNL     1       5.922   4.252  14.541  0.00  0.00    +0.000 A 
ATOM     10  C   UNL     1       5.558   3.591  13.366  0.00  0.00    +0.000 A 
ATOM     11  C   UNL     1       6.321   3.749  12.203  0.00  0.00    +0.000 A 
ATOM     12  C   UNL     1       7.476   4.534  12.218  0.00  0.00    +0.000 A 
ATOM     13  C   UNL     1       7.857   5.183  13.388  0.00  0.00    +0.000 A 
ATOM     14  C   UNL     1       7.055   5.059  14.519  0.00  0.00    +0.000 A 
ATOM     15  O   UNL     1       7.386   5.846  15.621  0.00  0.00    +0.000 OA
ATOM     16  C   UNL     1       6.324   6.233  16.422  0.00  0.00    +0.000 A 
ATOM     17  O   UNL     1       6.323   7.334  16.954  0.00  0.00    +0.000 OA
BRANCH   8  18
ATOM     18  O   UNL     1       4.297   3.126  15.899  0.00  0.00    +0.000 OA
ATOM     19  H   UNL     1       4.063   3.045  16.845  0.00  0.00    +0.000 HD
ENDBRANCH   8  18
ENDBRANCH   3   7
BRANCH   1  22
ATOM     20  C   UNL     1       1.134   9.825  19.278  0.00  0.00    +0.000 A 
ATOM     21  C   UNL     1       1.869   8.696  18.878  0.00  0.00    +0.000 A 
ATOM     22  C   UNL     1       2.045   7.573  19.709  0.00  0.00    +0.000 A 
ATOM     23  C   UNL     1       1.444   7.619  20.978  0.00  0.00    +0.000 A 
ATOM     24  C   UNL     1       0.712   8.735  21.395  0.00  0.00    +0.000 A 
ATOM     25  C   UNL     1       0.562   9.836  20.550  0.00  0.00    +0.000 A 
BRANCH  20  27
ATOM     26  C   UNL     1       1.940  11.925  18.458  0.00  0.00    +0.000 C 
ATOM     27  O   UNL     1       1.096  10.794  18.311  0.00  0.00    +0.000 OA
ENDBRANCH  20  27
BRANCH  25  28
ATOM     28  O   UNL     1      -0.148  10.911  21.008  0.00  0.00    +0.000 OA
ATOM     29  H   UNL     1       0.300  11.727  20.732  0.00  0.00    +0.000 HD
ENDBRANCH  25  28
ENDBRANCH   1  22
BRANCH   5  30
ATOM     30  O   UNL     1       3.542   3.218  20.575  0.00  0.00    +0.000 OA
ATOM     31  H   UNL     1       3.957   3.582  21.371  0.00  0.00    +0.000 HD
ENDBRANCH   5  30
TORSDOF 6
ENDMDL
MODEL 3
REMARK VINA RESULT:      -8.0      1.848      8.275
REMARK  Name = 
REMARK  7 active torsions:
REMARK  status: ('A' for Active; 'I' for Inactive)
REMARK    1  A    between atoms: C_1  and  O_2
REMARK    2  A    between atoms: O_2  and  C_3
REMARK    3  A    between atoms: C_5  and  C_6
REMARK    4  A    between atoms: C_8  and  C_9
REMARK    5  A    between atoms: C_10  and  O_11
REMARK    6  A    between atoms: C_22  and  O_23
REMARK    7  A    between atoms: C_27  and  O_28
REMARK                            x       y       z     vdW  Elec       q    Type
REMARK                         _______ _______ _______ _____ _____    ______ ____
ROOT
ATOM      1  C   UNL     1       3.549   5.970  18.796  0.00  0.00    +0.000 A 
ATOM      2  C   UNL     1       3.035   7.249  18.930  0.00  0.00    +0.000 A 
ATOM      3  C   UNL     1       2.009   7.440  19.841  0.00  0.00    +0.000 A 
ATOM      4  N   UNL     1       1.556   6.430  20.627  0.00  0.00    +0.000 NA
ATOM      5  C   UNL     1       2.143   5.246  20.423  0.00  0.00    +0.000 A 
ATOM      6  N   UNL     1       3.113   4.956  19.561  0.00  0.00    +0.000 NA
ENDROOT
BRANCH   3   7
ATOM      7  C   UNL     1       1.372   8.768  20.044  0.00  0.00    +0.000 A 
ATOM      8  C   UNL     1       0.849   9.476  19.021  0.00  0.00    +0.000 A 
ATOM      9  C   UNL     1       0.087  10.691  19.295  0.00  0.00    +0.000 A 
ATOM     10  C   UNL     1      -0.867  11.227  18.428  0.00  0.00    +0.000 A 
ATOM     11  C   UNL     1      -1.600  12.359  18.803  0.00  0.00    +0.000 A 
ATOM     12  C   UNL     1      -1.354  12.988  20.025  0.00  0.00    +0.000 A 
ATOM     13  C   UNL     1      -0.393  12.471  20.889  0.00  0.00    +0.000 A 
ATOM     14  C   UNL     1       0.286  11.312  20.524  0.00  0.00    +0.000 A 
ATOM     15  O   UNL     1       1.125  10.741  21.480  0.00  0.00    +0.000 OA
ATOM     16  C   UNL     1       1.257   9.364  21.415  0.00  0.00    +0.000 A 
ATOM     17  O   UNL     1       1.375   8.708  22.441  0.00  0.00    +0.000 OA
BRANCH   8  18
ATOM     18  O   UNL     1       0.931   9.120  17.691  0.00  0.00    +0.000 OA
ATOM     19  H   UNL     1       0.507   9.834  17.173  0.00  0.00    +0.000 HD
ENDBRANCH   8  18
ENDBRANCH   3   7
BRANCH   1  22
ATOM     20  C   UNL     1       6.711   6.144  16.646  0.00  0.00    +0.000 A 
ATOM     21  C   UNL     1       5.732   6.436  17.611  0.00  0.00    +0.000 A 
ATOM     22  C   UNL     1       4.592   5.632  17.801  0.00  0.00    +0.000 A 
ATOM     23  C   UNL     1       4.466   4.500  16.980  0.00  0.00    +0.000 A 
ATOM     24  C   UNL     1       5.427   4.194  16.011  0.00  0.00    +0.000 A 
ATOM     25  C   UNL     1       6.544   5.016  15.842  0.00  0.00    +0.000 A 
BRANCH  20  27
ATOM     26  C   UNL     1       7.781   8.017  17.684  0.00  0.00    +0.000 C 
ATOM     27  O   UNL     1       7.729   7.060  16.638  0.00  0.00    +0.000 OA
ENDBRANCH  20  27
BRANCH  25  28
ATOM     28  O   UNL     1       7.448   4.686  14.871  0.00  0.00    +0.000 OA
ATOM     29  H   UNL     1       7.287   3.773  14.585  0.00  0.00    +0.000 HD
ENDBRANCH  25  28
ENDBRANCH   1  22
BRANCH   5  30
ATOM     30  O   UNL     1       1.683   4.228  21.195  0.00  0.00    +0.000 OA
ATOM     31  H   UNL     1       2.048   4.475  22.058  0.00  0.00    +0.000 HD
ENDBRANCH   5  30
TORSDOF 6
ENDMDL
MODEL 4
REMARK VINA RESULT:      -8.0      3.643     10.135
REMARK  Name = 
REMARK  7 active torsions:
REMARK  status: ('A' for Active; 'I' for Inactive)
REMARK    1  A    between atoms: C_1  and  O_2
REMARK    2  A    between atoms: O_2  and  C_3
REMARK    3  A    between atoms: C_5  and  C_6
REMARK    4  A    between atoms: C_8  and  C_9
REMARK    5  A    between atoms: C_10  and  O_11
REMARK    6  A    between atoms: C_22  and  O_23
REMARK    7  A    between atoms: C_27  and  O_28
REMARK                            x       y       z     vdW  Elec       q    Type
REMARK                         _______ _______ _______ _____ _____    ______ ____
ROOT
ATOM      1  C   UNL     1       1.661   9.459  18.991  0.00  0.00    +0.000 A 
ATOM      2  C   UNL     1       0.684   9.792  19.915  0.00  0.00    +0.000 A 
ATOM      3  C   UNL     1       0.299  11.120  19.996  0.00  0.00    +0.000 A 
ATOM      4  N   UNL     1       0.807  12.062  19.163  0.00  0.00    +0.000 NA
ATOM      5  C   UNL     1       1.727  11.618  18.298  0.00  0.00    +0.000 A 
ATOM      6  N   UNL     1       2.180  10.376  18.160  0.00  0.00    +0.000 NA
ENDROOT
BRANCH   3   7
ATOM      7  C   UNL     1      -0.725  11.585  20.969  0.00  0.00    +0.000 A 
ATOM      8  C   UNL     1      -1.834  12.249  20.580  0.00  0.00    +0.000 A 
ATOM      9  C   UNL     1      -2.886  12.534  21.552  0.00  0.00    +0.000 A 
ATOM     10  C   UNL     1      -4.220  12.766  21.213  0.00  0.00    +0.000 A 
ATOM     11  C   UNL     1      -5.177  12.964  22.215  0.00  0.00    +0.000 A 
ATOM     12  C   UNL     1      -4.799  12.976  23.560  0.00  0.00    +0.000 A 
ATOM     13  C   UNL     1      -3.469  12.763  23.907  0.00  0.00    +0.000 A 
ATOM     14  C   UNL     1      -2.542  12.511  22.899  0.00  0.00    +0.000 A 
ATOM     15  O   UNL     1      -1.255  12.150  23.296  0.00  0.00    +0.000 OA
ATOM     16  C   UNL     1      -0.577  11.304  22.434  0.00  0.00    +0.000 A 
ATOM     17  O   UNL     1       0.176  10.447  22.878  0.00  0.00    +0.000 OA
BRANCH   8  18
ATOM     18  O   UNL     1      -2.097  12.659  19.290  0.00  0.00    +0.000 OA
ATOM     19  H   UNL     1      -2.983  12.318  19.052  0.00  0.00    +0.000 HD
ENDBRANCH   8  18
ENDBRANCH   3   7
BRANCH   1  22
ATOM     20  C   UNL     1       2.534   5.814  19.769  0.00  0.00    +0.000 A 
ATOM     21  C   UNL     1       1.993   7.108  19.858  0.00  0.00    +0.000 A 
ATOM     22  C   UNL     1       2.206   8.088  18.869  0.00  0.00    +0.000 A 
ATOM     23  C   UNL     1       2.990   7.718  17.764  0.00  0.00    +0.000 A 
ATOM     24  C   UNL     1       3.539   6.437  17.659  0.00  0.00    +0.000 A 
ATOM     25  C   UNL     1       3.316   5.490  18.660  0.00  0.00    +0.000 A 
BRANCH  20  27
ATOM     26  C   UNL     1       1.196   4.042  20.664  0.00  0.00    +0.000 C 
ATOM     27  O   UNL     1       2.198   5.031  20.841  0.00  0.00    +0.000 OA
ENDBRANCH  20  27
BRANCH  25  28
ATOM     28  O   UNL     1       3.888   4.256  18.522  0.00  0.00    +0.000 OA
ATOM     29  H   UNL     1       3.477   3.798  17.772  0.00  0.00    +0.000 HD
ENDBRANCH  25  28
ENDBRANCH   1  22
BRANCH   5  30
ATOM     30  O   UNL     1       2.251  12.560  17.472  0.00  0.00    +0.000 OA
ATOM     31  H   UNL     1       1.486  12.756  16.912  0.00  0.00    +0.000 HD
ENDBRANCH   5  30
TORSDOF 6
ENDMDL
MODEL 5
REMARK VINA RESULT:      -7.9      1.807      8.451
REMARK  Name = 
REMARK  7 active torsions:
REMARK  status: ('A' for Active; 'I' for Inactive)
REMARK    1  A    between atoms: C_1  and  O_2
REMARK    2  A    between atoms: O_2  and  C_3
REMARK    3  A    between atoms: C_5  and  C_6
REMARK    4  A    between atoms: C_8  and  C_9
REMARK    5  A    between atoms: C_10  and  O_11
REMARK    6  A    between atoms: C_22  and  O_23
REMARK    7  A    between atoms: C_27  and  O_28
REMARK                            x       y       z     vdW  Elec       q    Type
REMARK                         _______ _______ _______ _____ _____    ______ ____
ROOT
ATOM      1  C   UNL     1       3.589   6.049  18.687  0.00  0.00    +0.000 A 
ATOM      2  C   UNL     1       2.961   7.284  18.682  0.00  0.00    +0.000 A 
ATOM      3  C   UNL     1       1.931   7.487  19.585  0.00  0.00    +0.000 A 
ATOM      4  N   UNL     1       1.580   6.540  20.491  0.00  0.00    +0.000 NA
ATOM      5  C   UNL     1       2.272   5.397  20.415  0.00  0.00    +0.000 A 
ATOM      6  N   UNL     1       3.255   5.097  19.572  0.00  0.00    +0.000 NA
ENDROOT
BRANCH   3   7
ATOM      7  C   UNL     1       1.178   8.767  19.646  0.00  0.00    +0.000 A 
ATOM      8  C   UNL     1       0.598   9.204  20.783  0.00  0.00    +0.000 A 
ATOM      9  C   UNL     1       0.017  10.543  20.834  0.00  0.00    +0.000 A 
ATOM     10  C   UNL     1      -0.171  11.270  22.011  0.00  0.00    +0.000 A 
ATOM     11  C   UNL     1      -0.672  12.576  21.959  0.00  0.00    +0.000 A 
ATOM     12  C   UNL     1      -1.030  13.147  20.736  0.00  0.00    +0.000 A 
ATOM     13  C   UNL     1      -0.863  12.425  19.559  0.00  0.00    +0.000 A 
ATOM     14  C   UNL     1      -0.310  11.149  19.625  0.00  0.00    +0.000 A 
ATOM     15  O   UNL     1      -0.016  10.521  18.415  0.00  0.00    +0.000 OA
ATOM     16  C   UNL     1       1.059   9.648  18.438  0.00  0.00    +0.000 A 
ATOM     17  O   UNL     1       1.795   9.552  17.465  0.00  0.00    +0.000 OA
BRANCH   8  18
ATOM     18  O   UNL     1       0.541   8.493  21.964  0.00  0.00    +0.000 OA
ATOM     19  H   UNL     1       1.215   7.786  21.909  0.00  0.00    +0.000 HD
ENDBRANCH   8  18
ENDBRANCH   3   7
BRANCH   1  22
ATOM     20  C   UNL     1       6.794   6.174  16.597  0.00  0.00    +0.000 A 
ATOM     21  C   UNL     1       5.799   6.485  17.539  0.00  0.00    +0.000 A 
ATOM     22  C   UNL     1       4.649   5.692  17.716  0.00  0.00    +0.000 A 
ATOM     23  C   UNL     1       4.531   4.551  16.906  0.00  0.00    +0.000 A 
ATOM     24  C   UNL     1       5.508   4.227  15.961  0.00  0.00    +0.000 A 
ATOM     25  C   UNL     1       6.634   5.038  15.803  0.00  0.00    +0.000 A 
BRANCH  20  27
ATOM     26  C   UNL     1       7.823   8.090  17.598  0.00  0.00    +0.000 C 
ATOM     27  O   UNL     1       7.818   7.083  16.598  0.00  0.00    +0.000 OA
ENDBRANCH  20  27
BRANCH  25  28
ATOM     28  O   UNL     1       7.555   4.690  14.855  0.00  0.00    +0.000 OA
ATOM     29  H   UNL     1       8.311   4.265  15.288  0.00  0.00    +0.000 HD
ENDBRANCH  25  28
ENDBRANCH   1  22
BRANCH   5  30
ATOM     30  O   UNL     1       1.913   4.440  21.309  0.00  0.00    +0.000 OA
ATOM     31  H   UNL     1       2.775   4.045  21.507  0.00  0.00    +0.000 HD
ENDBRANCH   5  30
TORSDOF 6
ENDMDL
MODEL 6
REMARK VINA RESULT:      -7.9      3.981      6.937
REMARK  Name = 
REMARK  7 active torsions:
REMARK  status: ('A' for Active; 'I' for Inactive)
REMARK    1  A    between atoms: C_1  and  O_2
REMARK    2  A    between atoms: O_2  and  C_3
REMARK    3  A    between atoms: C_5  and  C_6
REMARK    4  A    between atoms: C_8  and  C_9
REMARK    5  A    between atoms: C_10  and  O_11
REMARK    6  A    between atoms: C_22  and  O_23
REMARK    7  A    between atoms: C_27  and  O_28
REMARK                            x       y       z     vdW  Elec       q    Type
REMARK                         _______ _______ _______ _____ _____    ______ ____
ROOT
ATOM      1  C   UNL     1      -1.506  11.295  19.310  0.00  0.00    +0.000 A 
ATOM      2  C   UNL     1      -0.784  10.126  19.127  0.00  0.00    +0.000 A 
ATOM      3  C   UNL     1       0.472  10.047  19.704  0.00  0.00    +0.000 A 
ATOM      4  N   UNL     1       0.966  11.047  20.477  0.00  0.00    +0.000 NA
ATOM      5  C   UNL     1       0.171  12.116  20.599  0.00  0.00    +0.000 A 
ATOM      6  N   UNL     1      -1.033  12.298  20.067  0.00  0.00    +0.000 NA
ENDROOT
BRANCH   3   7
ATOM      7  C   UNL     1       1.336   8.846  19.550  0.00  0.00    +0.000 A 
ATOM      8  C   UNL     1       1.984   8.573  18.397  0.00  0.00    +0.000 A 
ATOM      9  C   UNL     1       2.950   7.480  18.351  0.00  0.00    +0.000 A 
ATOM     10  C   UNL     1       3.989   7.395  17.422  0.00  0.00    +0.000 A 
ATOM     11  C   UNL     1       4.912   6.345  17.493  0.00  0.00    +0.000 A 
ATOM     12  C   UNL     1       4.776   5.350  18.464  0.00  0.00    +0.000 A 
ATOM     13  C   UNL     1       3.734   5.416  19.383  0.00  0.00    +0.000 A 
ATOM     14  C   UNL     1       2.859   6.498  19.332  0.00  0.00    +0.000 A 
ATOM     15  O   UNL     1       1.926   6.609  20.361  0.00  0.00    +0.000 OA
ATOM     16  C   UNL     1       1.549   7.900  20.692  0.00  0.00    +0.000 A 
ATOM     17  O   UNL     1       1.309   8.192  21.856  0.00  0.00    +0.000 OA
BRANCH   8  18
ATOM     18  O   UNL     1       1.846   9.288  17.226  0.00  0.00    +0.000 OA
ATOM     19  H   UNL     1       1.102   8.891  16.729  0.00  0.00    +0.000 HD
ENDBRANCH   8  18
ENDBRANCH   3   7
BRANCH   1  22
ATOM     20  C   UNL     1      -4.330  11.379  16.728  0.00  0.00    +0.000 A 
ATOM     21  C   UNL     1      -3.093  11.137  17.350  0.00  0.00    +0.000 A 
ATOM     22  C   UNL     1      -2.824  11.523  18.677  0.00  0.00    +0.000 A 
ATOM     23  C   UNL     1      -3.858  12.167  19.375  0.00  0.00    +0.000 A 
ATOM     24  C   UNL     1      -5.095  12.420  18.773  0.00  0.00    +0.000 A 
ATOM     25  C   UNL     1      -5.328  12.032  17.452  0.00  0.00    +0.000 A 
BRANCH  20  27
ATOM     26  C   UNL     1      -3.179  10.378  14.883  0.00  0.00    +0.000 C 
ATOM     27  O   UNL     1      -4.367  10.919  15.438  0.00  0.00    +0.000 OA
ENDBRANCH  20  27
BRANCH  25  28
ATOM     28  O   UNL     1      -6.546  12.315  16.900  0.00  0.00    +0.000 OA
ATOM     29  H   UNL     1      -7.068  11.499  16.847  0.00  0.00    +0.000 HD
ENDBRANCH  25  28
ENDBRANCH   1  22
BRANCH   5  30
ATOM     30  O   UNL     1       0.668  13.127  21.357  0.00  0.00    +0.000 OA
ATOM     31  H   UNL     1       0.714  13.839  20.703  0.00  0.00    +0.000 HD
ENDBRANCH   5  30
TORSDOF 6
ENDMDL
MODEL 7
REMARK VINA RESULT:      -7.9      3.849      6.797
REMARK  Name = 
REMARK  7 active torsions:
REMARK  status: ('A' for Active; 'I' for Inactive)
REMARK    1  A    between atoms: C_1  and  O_2
REMARK    2  A    between atoms: O_2  and  C_3
REMARK    3  A    between atoms: C_5  and  C_6
REMARK    4  A    between atoms: C_8  and  C_9
REMARK    5  A    between atoms: C_10  and  O_11
REMARK    6  A    between atoms: C_22  and  O_23
REMARK    7  A    between atoms: C_27  and  O_28
REMARK                            x       y       z     vdW  Elec       q    Type
REMARK                         _______ _______ _______ _____ _____    ______ ____
ROOT
ATOM      1  C   UNL     1      -1.314  11.068  19.310  0.00  0.00    +0.000 A 
ATOM      2  C   UNL     1      -0.561   9.944  19.011  0.00  0.00    +0.000 A 
ATOM      3  C   UNL     1       0.685   9.826  19.603  0.00  0.00    +0.000 A 
ATOM      4  N   UNL     1       1.140  10.741  20.495  0.00  0.00    +0.000 NA
ATOM      5  C   UNL     1       0.317  11.772  20.721  0.00  0.00    +0.000 A 
ATOM      6  N   UNL     1      -0.880  11.988  20.187  0.00  0.00    +0.000 NA
ENDROOT
BRANCH   3   7
ATOM      7  C   UNL     1       1.580   8.670  19.332  0.00  0.00    +0.000 A 
ATOM      8  C   UNL     1       1.758   7.676  20.227  0.00  0.00    +0.000 A 
ATOM      9  C   UNL     1       2.511   6.484  19.847  0.00  0.00    +0.000 A 
ATOM     10  C   UNL     1       2.372   5.241  20.467  0.00  0.00    +0.000 A 
ATOM     11  C   UNL     1       3.084   4.134  19.992  0.00  0.00    +0.000 A 
ATOM     12  C   UNL     1       3.974   4.271  18.924  0.00  0.00    +0.000 A 
ATOM     13  C   UNL     1       4.133   5.510  18.310  0.00  0.00    +0.000 A 
ATOM     14  C   UNL     1       3.373   6.586  18.760  0.00  0.00    +0.000 A 
ATOM     15  O   UNL     1       3.446   7.767  18.022  0.00  0.00    +0.000 OA
ATOM     16  C   UNL     1       2.301   8.547  18.023  0.00  0.00    +0.000 A 
ATOM     17  O   UNL     1       1.981   9.172  17.021  0.00  0.00    +0.000 OA
BRANCH   8  18
ATOM     18  O   UNL     1       1.237   7.661  21.504  0.00  0.00    +0.000 OA
ATOM     19  H   UNL     1       0.890   6.760  21.665  0.00  0.00    +0.000 HD
ENDBRANCH   8  18
ENDBRANCH   3   7
BRANCH   1  22
ATOM     20  C   UNL     1      -4.160  11.182  16.753  0.00  0.00    +0.000 A 
ATOM     21  C   UNL     1      -2.932  10.901  17.375  0.00  0.00    +0.000 A 
ATOM     22  C   UNL     1      -2.625  11.339  18.678  0.00  0.00    +0.000 A 
ATOM     23  C   UNL     1      -3.612  12.077  19.351  0.00  0.00    +0.000 A 
ATOM     24  C   UNL     1      -4.839  12.370  18.748  0.00  0.00    +0.000 A 
ATOM     25  C   UNL     1      -5.110  11.928  17.451  0.00  0.00    +0.000 A 
BRANCH  20  27
ATOM     26  C   UNL     1      -3.030  10.374  14.803  0.00  0.00    +0.000 C 
ATOM     27  O   UNL     1      -4.239  10.659  15.490  0.00  0.00    +0.000 OA
ENDBRANCH  20  27
BRANCH  25  28
ATOM     28  O   UNL     1      -6.316  12.252  16.896  0.00  0.00    +0.000 OA
ATOM     29  H   UNL     1      -6.219  13.070  16.383  0.00  0.00    +0.000 HD
ENDBRANCH  25  28
ENDBRANCH   1  22
BRANCH   5  30
ATOM     30  O   UNL     1       0.775  12.699  21.601  0.00  0.00    +0.000 OA
ATOM     31  H   UNL     1       0.857  12.163  22.404  0.00  0.00    +0.000 HD
ENDBRANCH   5  30
TORSDOF 6
ENDMDL
MODEL 8
REMARK VINA RESULT:      -7.8      3.722      7.123
REMARK  Name = 
REMARK  7 active torsions:
REMARK  status: ('A' for Active; 'I' for Inactive)
REMARK    1  A    between atoms: C_1  and  O_2
REMARK    2  A    between atoms: O_2  and  C_3
REMARK    3  A    between atoms: C_5  and  C_6
REMARK    4  A    between atoms: C_8  and  C_9
REMARK    5  A    between atoms: C_10  and  O_11
REMARK    6  A    between atoms: C_22  and  O_23
REMARK    7  A    between atoms: C_27  and  O_28
REMARK                            x       y       z     vdW  Elec       q    Type
REMARK                         _______ _______ _______ _____ _____    ______ ____
ROOT
ATOM      1  C   UNL     1       7.291   7.645  17.540  0.00  0.00    +0.000 A 
ATOM      2  C   UNL     1       6.194   7.119  18.202  0.00  0.00    +0.000 A 
ATOM      3  C   UNL     1       5.619   5.970  17.687  0.00  0.00    +0.000 A 
ATOM      4  N   UNL     1       6.139   5.335  16.607  0.00  0.00    +0.000 NA
ATOM      5  C   UNL     1       7.211   5.923  16.064  0.00  0.00    +0.000 A 
ATOM      6  N   UNL     1       7.820   7.035  16.467  0.00  0.00    +0.000 NA
ENDROOT
BRANCH   3   7
ATOM      7  C   UNL     1       4.425   5.339  18.309  0.00  0.00    +0.000 A 
ATOM      8  C   UNL     1       4.503   4.180  18.996  0.00  0.00    +0.000 A 
ATOM      9  C   UNL     1       3.339   3.692  19.729  0.00  0.00    +0.000 A 
ATOM     10  C   UNL     1       3.409   2.816  20.815  0.00  0.00    +0.000 A 
ATOM     11  C   UNL     1       2.245   2.453  21.502  0.00  0.00    +0.000 A 
ATOM     12  C   UNL     1       1.000   2.926  21.083  0.00  0.00    +0.000 A 
ATOM     13  C   UNL     1       0.917   3.785  19.991  0.00  0.00    +0.000 A 
ATOM     14  C   UNL     1       2.091   4.180  19.355  0.00  0.00    +0.000 A 
ATOM     15  O   UNL     1       1.979   5.159  18.369  0.00  0.00    +0.000 OA
ATOM     16  C   UNL     1       3.077   5.991  18.223  0.00  0.00    +0.000 A 
ATOM     17  O   UNL     1       2.922   7.170  17.937  0.00  0.00    +0.000 OA
BRANCH   8  18
ATOM     18  O   UNL     1       5.639   3.406  19.113  0.00  0.00    +0.000 OA
ATOM     19  H   UNL     1       5.587   2.943  19.974  0.00  0.00    +0.000 HD
ENDBRANCH   8  18
ENDBRANCH   3   7
BRANCH   1  22
ATOM     20  C   UNL     1       8.278  11.340  17.696  0.00  0.00    +0.000 A 
ATOM     21  C   UNL     1       7.644  10.139  17.334  0.00  0.00    +0.000 A 
ATOM     22  C   UNL     1       7.940   8.910  17.954  0.00  0.00    +0.000 A 
ATOM     23  C   UNL     1       8.907   8.925  18.972  0.00  0.00    +0.000 A 
ATOM     24  C   UNL     1       9.552  10.109  19.344  0.00  0.00    +0.000 A 
ATOM     25  C   UNL     1       9.242  11.311  18.705  0.00  0.00    +0.000 A 
BRANCH  20  27
ATOM     26  C   UNL     1       7.362  13.551  17.657  0.00  0.00    +0.000 C 
ATOM     27  O   UNL     1       7.835  12.408  16.962  0.00  0.00    +0.000 OA
ENDBRANCH  20  27
BRANCH  25  28
ATOM     28  O   UNL     1       9.910  12.440  19.090  0.00  0.00    +0.000 OA
ATOM     29  H   UNL     1       9.325  13.206  18.985  0.00  0.00    +0.000 HD
ENDBRANCH  25  28
ENDBRANCH   1  22
BRANCH   5  30
ATOM     30  O   UNL     1       7.727   5.301  14.973  0.00  0.00    +0.000 OA
ATOM     31  H   UNL     1       7.774   6.039  14.348  0.00  0.00    +0.000 HD
ENDBRANCH   5  30
TORSDOF 6
ENDMDL
MODEL 9
REMARK VINA RESULT:      -7.8      4.051      6.833
REMARK  Name = 
REMARK  7 active torsions:
REMARK  status: ('A' for Active; 'I' for Inactive)
REMARK    1  A    between atoms: C_1  and  O_2
REMARK    2  A    between atoms: O_2  and  C_3
REMARK    3  A    between atoms: C_5  and  C_6
REMARK    4  A    between atoms: C_8  and  C_9
REMARK    5  A    between atoms: C_10  and  O_11
REMARK    6  A    between atoms: C_22  and  O_23
REMARK    7  A    between atoms: C_27  and  O_28
REMARK                            x       y       z     vdW  Elec       q    Type
REMARK                         _______ _______ _______ _____ _____    ______ ____
ROOT
ATOM      1  C   UNL     1      -1.392  11.493  18.950  0.00  0.00    +0.000 A 
ATOM      2  C   UNL     1      -0.745  10.267  18.946  0.00  0.00    +0.000 A 
ATOM      3  C   UNL     1       0.585  10.238  19.330  0.00  0.00    +0.000 A 
ATOM      4  N   UNL     1       1.228  11.353  19.757  0.00  0.00    +0.000 NA
ATOM      5  C   UNL     1       0.497  12.473  19.738  0.00  0.00    +0.000 A 
ATOM      6  N   UNL     1      -0.772  12.609  19.365  0.00  0.00    +0.000 NA
ENDROOT
BRANCH   3   7
ATOM      7  C   UNL     1       1.375   8.978  19.339  0.00  0.00    +0.000 A 
ATOM      8  C   UNL     1       2.047   8.546  18.251  0.00  0.00    +0.000 A 
ATOM      9  C   UNL     1       2.942   7.398  18.360  0.00  0.00    +0.000 A 
ATOM     10  C   UNL     1       4.008   7.153  17.493  0.00  0.00    +0.000 A 
ATOM     11  C   UNL     1       4.858   6.063  17.713  0.00  0.00    +0.000 A 
ATOM     12  C   UNL     1       4.622   5.186  18.774  0.00  0.00    +0.000 A 
ATOM     13  C   UNL     1       3.552   5.412  19.634  0.00  0.00    +0.000 A 
ATOM     14  C   UNL     1       2.752   6.533  19.433  0.00  0.00    +0.000 A 
ATOM     15  O   UNL     1       1.789   6.808  20.403  0.00  0.00    +0.000 OA
ATOM     16  C   UNL     1       1.483   8.147  20.582  0.00  0.00    +0.000 A 
ATOM     17  O   UNL     1       1.220   8.575  21.697  0.00  0.00    +0.000 OA
BRANCH   8  18
ATOM     18  O   UNL     1       2.000   9.139  17.006  0.00  0.00    +0.000 OA
ATOM     19  H   UNL     1       1.136   9.594  16.934  0.00  0.00    +0.000 HD
ENDBRANCH   8  18
ENDBRANCH   3   7
BRANCH   1  22
ATOM     20  C   UNL     1      -5.152  12.209  18.928  0.00  0.00    +0.000 A 
ATOM     21  C   UNL     1      -3.817  12.082  19.349  0.00  0.00    +0.000 A 
ATOM     22  C   UNL     1      -2.788  11.657  18.487  0.00  0.00    +0.000 A 
ATOM     23  C   UNL     1      -3.148  11.362  17.162  0.00  0.00    +0.000 A 
ATOM     24  C   UNL     1      -4.471  11.479  16.725  0.00  0.00    +0.000 A 
ATOM     25  C   UNL     1      -5.471  11.896  17.607  0.00  0.00    +0.000 A 
BRANCH  20  27
ATOM     26  C   UNL     1      -5.404  12.942  21.193  0.00  0.00    +0.000 C 
ATOM     27  O   UNL     1      -5.979  12.636  19.933  0.00  0.00    +0.000 OA
ENDBRANCH  20  27
BRANCH  25  28
ATOM     28  O   UNL     1      -6.752  11.978  17.139  0.00  0.00    +0.000 OA
ATOM     29  H   UNL     1      -6.800  12.676  16.467  0.00  0.00    +0.000 HD
ENDBRANCH  25  28
ENDBRANCH   1  22
BRANCH   5  30
ATOM     30  O   UNL     1       1.141  13.596  20.149  0.00  0.00    +0.000 OA
ATOM     31  H   UNL     1       1.656  13.248  20.891  0.00  0.00    +0.000 HD
ENDBRANCH   5  30
TORSDOF 6
ENDMDL
