MODEL 1
REMARK VINA RESULT:      -8.3      0.000      0.000
REMARK  Name = 
REMARK  11 active torsions:
REMARK  status: ('A' for Active; 'I' for Inactive)
REMARK    1  A    between atoms: C_1  and  O_2
REMARK    2  A    between atoms: O_2  and  C_3
REMARK    3  A    between atoms: C_3  and  C_4
REMARK    4  A    between atoms: C_3  and  C_23
REMARK    5  A    between atoms: N_6  and  C_7
REMARK    6  A    between atoms: C_7  and  C_8
REMARK    7  A    between atoms: C_7  and  C_13
REMARK    8  A    between atoms: C_8  and  C_9
REMARK    9  A    between atoms: C_9  and  N_10
REMARK   10  A    between atoms: N_10  and  C_11
REMARK   11  A    between atoms: N_10  and  C_12
REMARK                            x       y       z     vdW  Elec       q    Type
REMARK                         _______ _______ _______ _____ _____    ______ ____
ROOT
ATOM      1  C   UNL     1       3.666   5.637  18.605  0.00  0.00    +0.000 C 
ENDROOT
BRANCH   1   2
ATOM      2  C   UNL     1       2.765   6.842  18.817  0.00  0.00    +0.000 A 
ATOM      3  C   UNL     1       2.566   7.781  17.785  0.00  0.00    +0.000 A 
ATOM      4  C   UNL     1       1.841   8.954  18.024  0.00  0.00    +0.000 A 
ATOM      5  C   UNL     1       1.293   9.202  19.293  0.00  0.00    +0.000 A 
ATOM      6  C   UNL     1       0.606  10.395  19.572  0.00  0.00    +0.000 A 
ATOM      7  C   UNL     1       0.084  10.620  20.853  0.00  0.00    +0.000 A 
ATOM      8  C   UNL     1       0.232   9.656  21.854  0.00  0.00    +0.000 A 
ATOM      9  C   UNL     1       0.912   8.469  21.586  0.00  0.00    +0.000 A 
ATOM     10  C   UNL     1       1.456   8.240  20.317  0.00  0.00    +0.000 A 
ATOM     11  C   UNL     1       2.183   7.074  20.072  0.00  0.00    +0.000 A 
ENDBRANCH   1   2
BRANCH   1  14
ATOM     12  C   UNL     1       5.944   5.288  17.661  0.00  0.00    +0.000 C 
ATOM     13  O   UNL     1       6.202   4.506  18.566  0.00  0.00    +0.000 OA
ATOM     14  N   UNL     1       4.711   5.887  17.607  0.00  0.00    +0.000 N 
ATOM     15  H   UNL     1       4.512   6.542  16.845  0.00  0.00    +0.000 HD
BRANCH  12  16
ATOM     16  C   UNL     1       7.051   5.587  16.655  0.00  0.00    +0.000 C 
BRANCH  16  17
ATOM     17  C   UNL     1       6.816   4.970  15.284  0.00  0.00    +0.000 A 
ATOM     18  C   UNL     1       7.635   5.339  14.194  0.00  0.00    +0.000 A 
ATOM     19  C   UNL     1       7.418   4.797  12.922  0.00  0.00    +0.000 A 
ATOM     20  C   UNL     1       6.378   3.890  12.716  0.00  0.00    +0.000 A 
ATOM     21  C   UNL     1       5.553   3.523  13.780  0.00  0.00    +0.000 A 
ATOM     22  C   UNL     1       5.768   4.056  15.055  0.00  0.00    +0.000 A 
ENDBRANCH  16  17
BRANCH  16  24
ATOM     23  C   UNL     1       7.764   7.551  17.689  0.00  0.00    +0.000 C 
ATOM     24  O   UNL     1       7.235   6.986  16.506  0.00  0.00    +0.000 OA
ENDBRANCH  16  24
ENDBRANCH  12  16
ENDBRANCH   1  14
BRANCH   1  25
ATOM     25  C   UNL     1       2.815   4.374  18.300  0.00  0.00    +0.000 C 
BRANCH  25  26
ATOM     26  C   UNL     1       3.011   3.057  19.102  0.00  0.00    +0.000 C 
BRANCH  26  27
ATOM     27  N   UNL     1       1.816   2.508  19.786  0.00  0.00    +0.000 NA
ATOM     28  C   UNL     1       1.372   3.379  20.890  0.00  0.00    +0.000 C 
ATOM     29  C   UNL     1       0.718   2.416  18.800  0.00  0.00    +0.000 C 
ENDBRANCH  26  27
ENDBRANCH  25  26
ENDBRANCH   1  25
TORSDOF 8
ENDMDL
MODEL 2
REMARK VINA RESULT:      -8.3      0.610      1.258
REMARK  Name = 
REMARK  11 active torsions:
REMARK  status: ('A' for Active; 'I' for Inactive)
REMARK    1  A    between atoms: C_1  and  O_2
REMARK    2  A    between atoms: O_2  and  C_3
REMARK    3  A    between atoms: C_3  and  C_4
REMARK    4  A    between atoms: C_3  and  C_23
REMARK    5  A    between atoms: N_6  and  C_7
REMARK    6  A    between atoms: C_7  and  C_8
REMARK    7  A    between atoms: C_7  and  C_13
REMARK    8  A    between atoms: C_8  and  C_9
REMARK    9  A    between atoms: C_9  and  N_10
REMARK   10  A    between atoms: N_10  and  C_11
REMARK   11  A    between atoms: N_10  and  C_12
REMARK                            x       y       z     vdW  Elec       q    Type
REMARK                         _______ _______ _______ _____ _____    ______ ____
ROOT
ATOM      1  C   UNL     1       3.719   5.469  18.285  0.00  0.00    +0.000 C 
ENDROOT
BRANCH   1   2
ATOM      2  C   UNL     1       2.867   6.701  18.536  0.00  0.00    +0.000 A 
ATOM      3  C   UNL     1       2.711   7.683  17.537  0.00  0.00    +0.000 A 
ATOM      4  C   UNL     1       2.033   8.875  17.814  0.00  0.00    +0.000 A 
ATOM      5  C   UNL     1       1.489   9.101  19.089  0.00  0.00    +0.000 A 
ATOM      6  C   UNL     1       0.849  10.311  19.407  0.00  0.00    +0.000 A 
ATOM      7  C   UNL     1       0.331  10.512  20.692  0.00  0.00    +0.000 A 
ATOM      8  C   UNL     1       0.434   9.509  21.659  0.00  0.00    +0.000 A 
ATOM      9  C   UNL     1       1.066   8.305  21.353  0.00  0.00    +0.000 A 
ATOM     10  C   UNL     1       1.607   8.098  20.079  0.00  0.00    +0.000 A 
ATOM     11  C   UNL     1       2.287   6.913  19.796  0.00  0.00    +0.000 A 
ENDBRANCH   1   2
BRANCH   1  14
ATOM     12  C   UNL     1       6.009   5.074  17.392  0.00  0.00    +0.000 C 
ATOM     13  O   UNL     1       6.212   4.246  18.270  0.00  0.00    +0.000 OA
ATOM     14  N   UNL     1       4.802   5.720  17.329  0.00  0.00    +0.000 N 
ATOM     15  H   UNL     1       4.649   6.413  16.591  0.00  0.00    +0.000 HD
BRANCH  12  16
ATOM     16  C   UNL     1       7.156   5.373  16.431  0.00  0.00    +0.000 C 
BRANCH  16  17
ATOM     17  C   UNL     1       6.917   4.867  15.017  0.00  0.00    +0.000 A 
ATOM     18  C   UNL     1       5.951   3.865  14.779  0.00  0.00    +0.000 A 
ATOM     19  C   UNL     1       5.733   3.373  13.487  0.00  0.00    +0.000 A 
ATOM     20  C   UNL     1       6.483   3.864  12.417  0.00  0.00    +0.000 A 
ATOM     21  C   UNL     1       7.450   4.846  12.636  0.00  0.00    +0.000 A 
ATOM     22  C   UNL     1       7.667   5.346  13.924  0.00  0.00    +0.000 A 
ENDBRANCH  16  17
BRANCH  16  24
ATOM     23  C   UNL     1       7.736   7.259  17.672  0.00  0.00    +0.000 C 
ATOM     24  O   UNL     1       7.428   6.765  16.385  0.00  0.00    +0.000 OA
ENDBRANCH  16  24
ENDBRANCH  12  16
ENDBRANCH   1  14
BRANCH   1  25
ATOM     25  C   UNL     1       2.821   4.262  17.894  0.00  0.00    +0.000 C 
BRANCH  25  26
ATOM     26  C   UNL     1       2.362   3.222  18.954  0.00  0.00    +0.000 C 
BRANCH  26  27
ATOM     27  N   UNL     1       3.151   3.154  20.207  0.00  0.00    +0.000 NA
ATOM     28  C   UNL     1       2.330   2.701  21.345  0.00  0.00    +0.000 C 
ATOM     29  C   UNL     1       4.248   2.182  20.013  0.00  0.00    +0.000 C 
ENDBRANCH  26  27
ENDBRANCH  25  26
ENDBRANCH   1  25
TORSDOF 8
ENDMDL
MODEL 3
REMARK VINA RESULT:      -8.3      0.842      1.984
REMARK  Name = 
REMARK  11 active torsions:
REMARK  status: ('A' for Active; 'I' for Inactive)
REMARK    1  A    between atoms: C_1  and  O_2
REMARK    2  A    between atoms: O_2  and  C_3
REMARK    3  A    between atoms: C_3  and  C_4
REMARK    4  A    between atoms: C_3  and  C_23
REMARK    5  A    between atoms: N_6  and  C_7
REMARK    6  A    between atoms: C_7  and  C_8
REMARK    7  A    between atoms: C_7  and  C_13
REMARK    8  A    between atoms: C_8  and  C_9
REMARK    9  A    between atoms: C_9  and  N_10
REMARK   10  A    between atoms: N_10  and  C_11
REMARK   11  A    between atoms: N_10  and  C_12
REMARK                            x       y       z     vdW  Elec       q    Type
REMARK                         _______ _______ _______ _____ _____    ______ ____
ROOT
ATOM      1  C   UNL     1       3.554   4.973  18.118  0.00  0.00    +0.000 C 
ENDROOT
BRANCH   1   2
ATOM      2  C   UNL     1       2.899   6.163  18.798  0.00  0.00    +0.000 A 
ATOM      3  C   UNL     1       2.416   6.061  20.118  0.00  0.00    +0.000 A 
ATOM      4  C   UNL     1       1.699   7.116  20.693  0.00  0.00    +0.000 A 
ATOM      5  C   UNL     1       1.465   8.294  19.966  0.00  0.00    +0.000 A 
ATOM      6  C   UNL     1       0.704   9.346  20.504  0.00  0.00    +0.000 A 
ATOM      7  C   UNL     1       0.475  10.502  19.747  0.00  0.00    +0.000 A 
ATOM      8  C   UNL     1       1.010  10.621  18.461  0.00  0.00    +0.000 A 
ATOM      9  C   UNL     1       1.766   9.583  17.920  0.00  0.00    +0.000 A 
ATOM     10  C   UNL     1       1.987   8.414  18.657  0.00  0.00    +0.000 A 
ATOM     11  C   UNL     1       2.697   7.357  18.088  0.00  0.00    +0.000 A 
ENDBRANCH   1   2
BRANCH   1  14
ATOM     12  C   UNL     1       5.918   4.926  17.336  0.00  0.00    +0.000 C 
ATOM     13  O   UNL     1       6.208   4.162  18.248  0.00  0.00    +0.000 OA
ATOM     14  N   UNL     1       4.628   5.370  17.202  0.00  0.00    +0.000 N 
ATOM     15  H   UNL     1       4.403   6.013  16.437  0.00  0.00    +0.000 HD
BRANCH  12  16
ATOM     16  C   UNL     1       7.048   5.380  16.417  0.00  0.00    +0.000 C 
BRANCH  16  17
ATOM     17  C   UNL     1       6.896   4.905  14.980  0.00  0.00    +0.000 A 
ATOM     18  C   UNL     1       5.976   3.879  14.669  0.00  0.00    +0.000 A 
ATOM     19  C   UNL     1       5.839   3.415  13.356  0.00  0.00    +0.000 A 
ATOM     20  C   UNL     1       6.623   3.958  12.337  0.00  0.00    +0.000 A 
ATOM     21  C   UNL     1       7.544   4.965  12.629  0.00  0.00    +0.000 A 
ATOM     22  C   UNL     1       7.681   5.437  13.938  0.00  0.00    +0.000 A 
ENDBRANCH  16  17
BRANCH  16  24
ATOM     23  C   UNL     1       7.665   7.247  17.669  0.00  0.00    +0.000 C 
ATOM     24  O   UNL     1       7.170   6.794  16.426  0.00  0.00    +0.000 OA
ENDBRANCH  16  24
ENDBRANCH  12  16
ENDBRANCH   1  14
BRANCH   1  25
ATOM     25  C   UNL     1       2.478   4.073  17.450  0.00  0.00    +0.000 C 
BRANCH  25  26
ATOM     26  C   UNL     1       1.549   3.161  18.300  0.00  0.00    +0.000 C 
BRANCH  26  27
ATOM     27  N   UNL     1       2.189   2.016  18.989  0.00  0.00    +0.000 NA
ATOM     28  C   UNL     1       3.449   1.620  18.335  0.00  0.00    +0.000 C 
ATOM     29  C   UNL     1       2.497   2.423  20.377  0.00  0.00    +0.000 C 
ENDBRANCH  26  27
ENDBRANCH  25  26
ENDBRANCH   1  25
TORSDOF 8
ENDMDL
MODEL 4
REMARK VINA RESULT:      -8.2      0.678      1.115
REMARK  Name = 
REMARK  11 active torsions:
REMARK  status: ('A' for Active; 'I' for Inactive)
REMARK    1  A    between atoms: C_1  and  O_2
REMARK    2  A    between atoms: O_2  and  C_3
REMARK    3  A    between atoms: C_3  and  C_4
REMARK    4  A    between atoms: C_3  and  C_23
REMARK    5  A    between atoms: N_6  and  C_7
REMARK    6  A    between atoms: C_7  and  C_8
REMARK    7  A    between atoms: C_7  and  C_13
REMARK    8  A    between atoms: C_8  and  C_9
REMARK    9  A    between atoms: C_9  and  N_10
REMARK   10  A    between atoms: N_10  and  C_11
REMARK   11  A    between atoms: N_10  and  C_12
REMARK                            x       y       z     vdW  Elec       q    Type
REMARK                         _______ _______ _______ _____ _____    ______ ____
ROOT
ATOM      1  C   UNL     1       3.391   5.904  18.686  0.00  0.00    +0.000 C 
ENDROOT
BRANCH   1   2
ATOM      2  C   UNL     1       2.525   7.135  18.892  0.00  0.00    +0.000 A 
ATOM      3  C   UNL     1       2.337   8.065  17.850  0.00  0.00    +0.000 A 
ATOM      4  C   UNL     1       1.647   9.259  18.081  0.00  0.00    +0.000 A 
ATOM      5  C   UNL     1       1.122   9.539  19.353  0.00  0.00    +0.000 A 
ATOM      6  C   UNL     1       0.470  10.754  19.624  0.00  0.00    +0.000 A 
ATOM      7  C   UNL     1      -0.028  11.011  20.908  0.00  0.00    +0.000 A 
ATOM      8  C   UNL     1       0.107  10.058  21.920  0.00  0.00    +0.000 A 
ATOM      9  C   UNL     1       0.752   8.849  21.661  0.00  0.00    +0.000 A 
ATOM     10  C   UNL     1       1.273   8.588  20.389  0.00  0.00    +0.000 A 
ATOM     11  C   UNL     1       1.965   7.400  20.151  0.00  0.00    +0.000 A 
ENDBRANCH   1   2
BRANCH   1  14
ATOM     12  C   UNL     1       5.687   5.540  17.795  0.00  0.00    +0.000 C 
ATOM     13  O   UNL     1       5.939   4.800  18.738  0.00  0.00    +0.000 OA
ATOM     14  N   UNL     1       4.450   6.122  17.696  0.00  0.00    +0.000 N 
ATOM     15  H   UNL     1       4.257   6.742  16.904  0.00  0.00    +0.000 HD
BRANCH  12  16
ATOM     16  C   UNL     1       6.808   5.808  16.796  0.00  0.00    +0.000 C 
BRANCH  16  17
ATOM     17  C   UNL     1       6.617   5.108  15.459  0.00  0.00    +0.000 A 
ATOM     18  C   UNL     1       7.507   5.366  14.393  0.00  0.00    +0.000 A 
ATOM     19  C   UNL     1       7.332   4.747  13.150  0.00  0.00    +0.000 A 
ATOM     20  C   UNL     1       6.265   3.872  12.949  0.00  0.00    +0.000 A 
ATOM     21  C   UNL     1       5.370   3.613  13.988  0.00  0.00    +0.000 A 
ATOM     22  C   UNL     1       5.543   4.224  15.235  0.00  0.00    +0.000 A 
ENDBRANCH  16  17
BRANCH  16  24
ATOM     23  C   UNL     1       7.685   7.802  17.625  0.00  0.00    +0.000 C 
ATOM     24  O   UNL     1       6.963   7.200  16.571  0.00  0.00    +0.000 OA
ENDBRANCH  16  24
ENDBRANCH  12  16
ENDBRANCH   1  14
BRANCH   1  25
ATOM     25  C   UNL     1       2.504   4.667  18.374  0.00  0.00    +0.000 C 
BRANCH  25  26
ATOM     26  C   UNL     1       2.262   3.560  19.439  0.00  0.00    +0.000 C 
BRANCH  26  27
ATOM     27  N   UNL     1       3.009   2.292  19.263  0.00  0.00    +0.000 NA
ATOM     28  C   UNL     1       3.529   2.150  17.891  0.00  0.00    +0.000 C 
ATOM     29  C   UNL     1       4.158   2.297  20.194  0.00  0.00    +0.000 C 
ENDBRANCH  26  27
ENDBRANCH  25  26
ENDBRANCH   1  25
TORSDOF 8
ENDMDL
MODEL 5
REMARK VINA RESULT:      -8.0      0.723      1.311
REMARK  Name = 
REMARK  11 active torsions:
REMARK  status: ('A' for Active; 'I' for Inactive)
REMARK    1  A    between atoms: C_1  and  O_2
REMARK    2  A    between atoms: O_2  and  C_3
REMARK    3  A    between atoms: C_3  and  C_4
REMARK    4  A    between atoms: C_3  and  C_23
REMARK    5  A    between atoms: N_6  and  C_7
REMARK    6  A    between atoms: C_7  and  C_8
REMARK    7  A    between atoms: C_7  and  C_13
REMARK    8  A    between atoms: C_8  and  C_9
REMARK    9  A    between atoms: C_9  and  N_10
REMARK   10  A    between atoms: N_10  and  C_11
REMARK   11  A    between atoms: N_10  and  C_12
REMARK                            x       y       z     vdW  Elec       q    Type
REMARK                         _______ _______ _______ _____ _____    ______ ____
ROOT
ATOM      1  C   UNL     1       3.460   5.989  19.145  0.00  0.00    +0.000 C 
ENDROOT
BRANCH   1   2
ATOM      2  C   UNL     1       2.520   7.176  19.260  0.00  0.00    +0.000 A 
ATOM      3  C   UNL     1       2.325   8.047  18.169  0.00  0.00    +0.000 A 
ATOM      4  C   UNL     1       1.562   9.210  18.317  0.00  0.00    +0.000 A 
ATOM      5  C   UNL     1       0.969   9.516  19.553  0.00  0.00    +0.000 A 
ATOM      6  C   UNL     1       0.241  10.703  19.741  0.00  0.00    +0.000 A 
ATOM      7  C   UNL     1      -0.324  10.987  20.991  0.00  0.00    +0.000 A 
ATOM      8  C   UNL     1      -0.179  10.089  22.051  0.00  0.00    +0.000 A 
ATOM      9  C   UNL     1       0.541   8.908  21.874  0.00  0.00    +0.000 A 
ATOM     10  C   UNL     1       1.128   8.621  20.637  0.00  0.00    +0.000 A 
ATOM     11  C   UNL     1       1.894   7.465  20.482  0.00  0.00    +0.000 A 
ENDBRANCH   1   2
BRANCH   1  14
ATOM     12  C   UNL     1       5.757   5.665  18.242  0.00  0.00    +0.000 C 
ATOM     13  O   UNL     1       6.052   4.995  19.224  0.00  0.00    +0.000 OA
ATOM     14  N   UNL     1       4.496   6.189  18.127  0.00  0.00    +0.000 N 
ATOM     15  H   UNL     1       4.266   6.750  17.302  0.00  0.00    +0.000 HD
BRANCH  12  16
ATOM     16  C   UNL     1       6.853   5.916  17.210  0.00  0.00    +0.000 C 
BRANCH  16  17
ATOM     17  C   UNL     1       6.624   5.201  15.887  0.00  0.00    +0.000 A 
ATOM     18  C   UNL     1       5.626   4.206  15.786  0.00  0.00    +0.000 A 
ATOM     19  C   UNL     1       5.417   3.523  14.583  0.00  0.00    +0.000 A 
ATOM     20  C   UNL     1       6.204   3.814  13.468  0.00  0.00    +0.000 A 
ATOM     21  C   UNL     1       7.201   4.787  13.554  0.00  0.00    +0.000 A 
ATOM     22  C   UNL     1       7.411   5.477  14.752  0.00  0.00    +0.000 A 
ENDBRANCH  16  17
BRANCH  16  24
ATOM     23  C   UNL     1       7.941   7.873  17.859  0.00  0.00    +0.000 C 
ATOM     24  O   UNL     1       7.007   7.305  16.965  0.00  0.00    +0.000 OA
ENDBRANCH  16  24
ENDBRANCH  12  16
ENDBRANCH   1  14
BRANCH   1  25
ATOM     25  C   UNL     1       2.650   4.677  18.949  0.00  0.00    +0.000 C 
BRANCH  25  26
ATOM     26  C   UNL     1       2.812   3.476  19.923  0.00  0.00    +0.000 C 
BRANCH  26  27
ATOM     27  N   UNL     1       2.402   2.146  19.414  0.00  0.00    +0.000 NA
ATOM     28  C   UNL     1       1.040   2.173  18.851  0.00  0.00    +0.000 C 
ATOM     29  C   UNL     1       3.338   1.751  18.339  0.00  0.00    +0.000 C 
ENDBRANCH  26  27
ENDBRANCH  25  26
ENDBRANCH   1  25
TORSDOF 8
ENDMDL
MODEL 6
REMARK VINA RESULT:      -7.8      0.641      1.502
REMARK  Name = 
REMARK  11 active torsions:
REMARK  status: ('A' for Active; 'I' for Inactive)
REMARK    1  A    between atoms: C_1  and  O_2
REMARK    2  A    between atoms: O_2  and  C_3
REMARK    3  A    between atoms: C_3  and  C_4
REMARK    4  A    between atoms: C_3  and  C_23
REMARK    5  A    between atoms: N_6  and  C_7
REMARK    6  A    between atoms: C_7  and  C_8
REMARK    7  A    between atoms: C_7  and  C_13
REMARK    8  A    between atoms: C_8  and  C_9
REMARK    9  A    between atoms: C_9  and  N_10
REMARK   10  A    between atoms: N_10  and  C_11
REMARK   11  A    between atoms: N_10  and  C_12
REMARK                            x       y       z     vdW  Elec       q    Type
REMARK                         _______ _______ _______ _____ _____    ______ ____
ROOT
ATOM      1  C   UNL     1       3.480   5.602  19.056  0.00  0.00    +0.000 C 
ENDROOT
BRANCH   1   2
ATOM      2  C   UNL     1       2.628   6.779  19.496  0.00  0.00    +0.000 A 
ATOM      3  C   UNL     1       1.999   6.780  20.757  0.00  0.00    +0.000 A 
ATOM      4  C   UNL     1       1.113   7.805  21.106  0.00  0.00    +0.000 A 
ATOM      5  C   UNL     1       0.850   8.852  20.208  0.00  0.00    +0.000 A 
ATOM      6  C   UNL     1      -0.075   9.864  20.515  0.00  0.00    +0.000 A 
ATOM      7  C   UNL     1      -0.327  10.886  19.591  0.00  0.00    +0.000 A 
ATOM      8  C   UNL     1       0.348  10.913  18.368  0.00  0.00    +0.000 A 
ATOM      9  C   UNL     1       1.268   9.913  18.054  0.00  0.00    +0.000 A 
ATOM     10  C   UNL     1       1.514   8.875  18.959  0.00  0.00    +0.000 A 
ATOM     11  C   UNL     1       2.394   7.847  18.617  0.00  0.00    +0.000 A 
ENDBRANCH   1   2
BRANCH   1  14
ATOM     12  C   UNL     1       5.714   5.423  17.970  0.00  0.00    +0.000 C 
ATOM     13  O   UNL     1       6.054   4.589  18.800  0.00  0.00    +0.000 OA
ATOM     14  N   UNL     1       4.458   5.969  18.027  0.00  0.00    +0.000 N 
ATOM     15  H   UNL     1       4.190   6.669  17.328  0.00  0.00    +0.000 HD
BRANCH  12  16
ATOM     16  C   UNL     1       6.751   5.844  16.933  0.00  0.00    +0.000 C 
BRANCH  16  17
ATOM     17  C   UNL     1       6.585   5.154  15.587  0.00  0.00    +0.000 A 
ATOM     18  C   UNL     1       7.529   5.374  14.560  0.00  0.00    +0.000 A 
ATOM     19  C   UNL     1       7.379   4.765  13.309  0.00  0.00    +0.000 A 
ATOM     20  C   UNL     1       6.283   3.938  13.061  0.00  0.00    +0.000 A 
ATOM     21  C   UNL     1       5.335   3.719  14.061  0.00  0.00    +0.000 A 
ATOM     22  C   UNL     1       5.482   4.320  15.315  0.00  0.00    +0.000 A 
ENDBRANCH  16  17
BRANCH  16  24
ATOM     23  C   UNL     1       7.671   7.886  17.578  0.00  0.00    +0.000 C 
ATOM     24  O   UNL     1       6.730   7.249  16.738  0.00  0.00    +0.000 OA
ENDBRANCH  16  24
ENDBRANCH  12  16
ENDBRANCH   1  14
BRANCH   1  25
ATOM     25  C   UNL     1       2.578   4.405  18.647  0.00  0.00    +0.000 C 
BRANCH  25  26
ATOM     26  C   UNL     1       2.866   2.966  19.158  0.00  0.00    +0.000 C 
BRANCH  26  27
ATOM     27  N   UNL     1       1.733   2.238  19.777  0.00  0.00    +0.000 NA
ATOM     28  C   UNL     1       1.334   2.841  21.062  0.00  0.00    +0.000 C 
ATOM     29  C   UNL     1       0.577   2.309  18.856  0.00  0.00    +0.000 C 
ENDBRANCH  26  27
ENDBRANCH  25  26
ENDBRANCH   1  25
TORSDOF 8
ENDMDL
MODEL 7
REMARK VINA RESULT:      -7.7      0.948      1.775
REMARK  Name = 
REMARK  11 active torsions:
REMARK  status: ('A' for Active; 'I' for Inactive)
REMARK    1  A    between atoms: C_1  and  O_2
REMARK    2  A    between atoms: O_2  and  C_3
REMARK    3  A    between atoms: C_3  and  C_4
REMARK    4  A    between atoms: C_3  and  C_23
REMARK    5  A    between atoms: N_6  and  C_7
REMARK    6  A    between atoms: C_7  and  C_8
REMARK    7  A    between atoms: C_7  and  C_13
REMARK    8  A    between atoms: C_8  and  C_9
REMARK    9  A    between atoms: C_9  and  N_10
REMARK   10  A    between atoms: N_10  and  C_11
REMARK   11  A    between atoms: N_10  and  C_12
REMARK                            x       y       z     vdW  Elec       q    Type
REMARK                         _______ _______ _______ _____ _____    ______ ____
ROOT
ATOM      1  C   UNL     1       3.664   4.648  17.892  0.00  0.00    +0.000 C 
ENDROOT
BRANCH   1   2
ATOM      2  C   UNL     1       3.060   5.855  18.587  0.00  0.00    +0.000 A 
ATOM      3  C   UNL     1       2.586   5.761  19.911  0.00  0.00    +0.000 A 
ATOM      4  C   UNL     1       1.915   6.836  20.502  0.00  0.00    +0.000 A 
ATOM      5  C   UNL     1       1.716   8.028  19.786  0.00  0.00    +0.000 A 
ATOM      6  C   UNL     1       1.000   9.102  20.340  0.00  0.00    +0.000 A 
ATOM      7  C   UNL     1       0.804  10.272  19.594  0.00  0.00    +0.000 A 
ATOM      8  C   UNL     1       1.331  10.382  18.304  0.00  0.00    +0.000 A 
ATOM      9  C   UNL     1       2.043   9.321  17.747  0.00  0.00    +0.000 A 
ATOM     10  C   UNL     1       2.228   8.139  18.473  0.00  0.00    +0.000 A 
ATOM     11  C   UNL     1       2.894   7.061  17.889  0.00  0.00    +0.000 A 
ENDBRANCH   1   2
BRANCH   1  14
ATOM     12  C   UNL     1       6.058   4.684  17.207  0.00  0.00    +0.000 C 
ATOM     13  O   UNL     1       6.359   4.057  18.214  0.00  0.00    +0.000 OA
ATOM     14  N   UNL     1       4.747   5.012  16.974  0.00  0.00    +0.000 N 
ATOM     15  H   UNL     1       4.513   5.541  16.128  0.00  0.00    +0.000 HD
BRANCH  12  16
ATOM     16  C   UNL     1       7.193   5.108  16.280  0.00  0.00    +0.000 C 
BRANCH  16  17
ATOM     17  C   UNL     1       6.981   4.706  14.828  0.00  0.00    +0.000 A 
ATOM     18  C   UNL     1       7.671   5.385  13.800  0.00  0.00    +0.000 A 
ATOM     19  C   UNL     1       7.472   5.041  12.458  0.00  0.00    +0.000 A 
ATOM     20  C   UNL     1       6.576   4.025  12.122  0.00  0.00    +0.000 A 
ATOM     21  C   UNL     1       5.878   3.352  13.125  0.00  0.00    +0.000 A 
ATOM     22  C   UNL     1       6.078   3.686  14.469  0.00  0.00    +0.000 A 
ENDBRANCH  16  17
BRANCH  16  24
ATOM     23  C   UNL     1       6.905   7.036  17.559  0.00  0.00    +0.000 C 
ATOM     24  O   UNL     1       7.401   6.510  16.345  0.00  0.00    +0.000 OA
ENDBRANCH  16  24
ENDBRANCH  12  16
ENDBRANCH   1  14
BRANCH   1  25
ATOM     25  C   UNL     1       2.550   3.798  17.221  0.00  0.00    +0.000 C 
BRANCH  25  26
ATOM     26  C   UNL     1       2.452   2.264  17.459  0.00  0.00    +0.000 C 
BRANCH  26  27
ATOM     27  N   UNL     1       2.143   1.822  18.840  0.00  0.00    +0.000 NA
ATOM     28  C   UNL     1       3.259   2.097  19.763  0.00  0.00    +0.000 C 
ATOM     29  C   UNL     1       0.958   2.570  19.312  0.00  0.00    +0.000 C 
ENDBRANCH  26  27
ENDBRANCH  25  26
ENDBRANCH   1  25
TORSDOF 8
ENDMDL
MODEL 8
REMARK VINA RESULT:      -7.7      0.884      1.867
REMARK  Name = 
REMARK  11 active torsions:
REMARK  status: ('A' for Active; 'I' for Inactive)
REMARK    1  A    between atoms: C_1  and  O_2
REMARK    2  A    between atoms: O_2  and  C_3
REMARK    3  A    between atoms: C_3  and  C_4
REMARK    4  A    between atoms: C_3  and  C_23
REMARK    5  A    between atoms: N_6  and  C_7
REMARK    6  A    between atoms: C_7  and  C_8
REMARK    7  A    between atoms: C_7  and  C_13
REMARK    8  A    between atoms: C_8  and  C_9
REMARK    9  A    between atoms: C_9  and  N_10
REMARK   10  A    between atoms: N_10  and  C_11
REMARK   11  A    between atoms: N_10  and  C_12
REMARK                            x       y       z     vdW  Elec       q    Type
REMARK                         _______ _______ _______ _____ _____    ______ ____
ROOT
ATOM      1  C   UNL     1       3.386   5.719  19.092  0.00  0.00    +0.000 C 
ENDROOT
BRANCH   1   2
ATOM      2  C   UNL     1       2.558   6.916  19.527  0.00  0.00    +0.000 A 
ATOM      3  C   UNL     1       1.944   6.944  20.795  0.00  0.00    +0.000 A 
ATOM      4  C   UNL     1       1.078   7.987  21.141  0.00  0.00    +0.000 A 
ATOM      5  C   UNL     1       0.822   9.026  20.232  0.00  0.00    +0.000 A 
ATOM      6  C   UNL     1      -0.083  10.057  20.537  0.00  0.00    +0.000 A 
ATOM      7  C   UNL     1      -0.330  11.071  19.602  0.00  0.00    +0.000 A 
ATOM      8  C   UNL     1       0.330  11.070  18.370  0.00  0.00    +0.000 A 
ATOM      9  C   UNL     1       1.230  10.052  18.059  0.00  0.00    +0.000 A 
ATOM     10  C   UNL     1       1.470   9.022  18.975  0.00  0.00    +0.000 A 
ATOM     11  C   UNL     1       2.330   7.976  18.636  0.00  0.00    +0.000 A 
ENDBRANCH   1   2
BRANCH   1  14
ATOM     12  C   UNL     1       5.619   5.481  18.016  0.00  0.00    +0.000 C 
ATOM     13  O   UNL     1       5.929   4.632  18.841  0.00  0.00    +0.000 OA
ATOM     14  N   UNL     1       4.379   6.064  18.071  0.00  0.00    +0.000 N 
ATOM     15  H   UNL     1       4.136   6.777  17.376  0.00  0.00    +0.000 HD
BRANCH  12  16
ATOM     16  C   UNL     1       6.673   5.878  16.987  0.00  0.00    +0.000 C 
BRANCH  16  17
ATOM     17  C   UNL     1       6.527   5.161  15.653  0.00  0.00    +0.000 A 
ATOM     18  C   UNL     1       7.500   5.340  14.645  0.00  0.00    +0.000 A 
ATOM     19  C   UNL     1       7.369   4.705  13.405  0.00  0.00    +0.000 A 
ATOM     20  C   UNL     1       6.264   3.892  13.148  0.00  0.00    +0.000 A 
ATOM     21  C   UNL     1       5.288   3.713  14.130  0.00  0.00    +0.000 A 
ATOM     22  C   UNL     1       5.416   4.340  15.373  0.00  0.00    +0.000 A 
ENDBRANCH  16  17
BRANCH  16  24
ATOM     23  C   UNL     1       7.667   7.918  17.519  0.00  0.00    +0.000 C 
ATOM     24  O   UNL     1       6.659   7.279  16.763  0.00  0.00    +0.000 OA
ENDBRANCH  16  24
ENDBRANCH  12  16
ENDBRANCH   1  14
BRANCH   1  25
ATOM     25  C   UNL     1       2.458   4.544  18.675  0.00  0.00    +0.000 C 
BRANCH  25  26
ATOM     26  C   UNL     1       2.271   3.302  19.590  0.00  0.00    +0.000 C 
BRANCH  26  27
ATOM     27  N   UNL     1       3.069   2.099  19.254  0.00  0.00    +0.000 NA
ATOM     28  C   UNL     1       3.541   2.131  17.857  0.00  0.00    +0.000 C 
ATOM     29  C   UNL     1       4.253   2.064  20.141  0.00  0.00    +0.000 C 
ENDBRANCH  26  27
ENDBRANCH  25  26
ENDBRANCH   1  25
TORSDOF 8
ENDMDL
MODEL 9
REMARK VINA RESULT:      -7.6      0.886      1.007
REMARK  Name = 
REMARK  11 active torsions:
REMARK  status: ('A' for Active; 'I' for Inactive)
REMARK    1  A    between atoms: C_1  and  O_2
REMARK    2  A    between atoms: O_2  and  C_3
REMARK    3  A    between atoms: C_3  and  C_4
REMARK    4  A    between atoms: C_3  and  C_23
REMARK    5  A    between atoms: N_6  and  C_7
REMARK    6  A    between atoms: C_7  and  C_8
REMARK    7  A    between atoms: C_7  and  C_13
REMARK    8  A    between atoms: C_8  and  C_9
REMARK    9  A    between atoms: C_9  and  N_10
REMARK   10  A    between atoms: N_10  and  C_11
REMARK   11  A    between atoms: N_10  and  C_12
REMARK                            x       y       z     vdW  Elec       q    Type
REMARK                         _______ _______ _______ _____ _____    ______ ____
ROOT
ATOM      1  C   UNL     1       3.951   5.891  19.287  0.00  0.00    +0.000 C 
ENDROOT
BRANCH   1   2
ATOM      2  C   UNL     1       2.886   6.972  19.216  0.00  0.00    +0.000 A 
ATOM      3  C   UNL     1       2.693   7.716  18.034  0.00  0.00    +0.000 A 
ATOM      4  C   UNL     1       1.802   8.794  18.012  0.00  0.00    +0.000 A 
ATOM      5  C   UNL     1       1.080   9.140  19.166  0.00  0.00    +0.000 A 
ATOM      6  C   UNL     1       0.219  10.250  19.183  0.00  0.00    +0.000 A 
ATOM      7  C   UNL     1      -0.476  10.579  20.355  0.00  0.00    +0.000 A 
ATOM      8  C   UNL     1      -0.327   9.799  21.505  0.00  0.00    +0.000 A 
ATOM      9  C   UNL     1       0.525   8.696  21.497  0.00  0.00    +0.000 A 
ATOM     10  C   UNL     1       1.240   8.368  20.340  0.00  0.00    +0.000 A 
ATOM     11  C   UNL     1       2.133   7.296  20.355  0.00  0.00    +0.000 A 
ENDBRANCH   1   2
BRANCH   1  14
ATOM     12  C   UNL     1       6.228   5.614  18.318  0.00  0.00    +0.000 C 
ATOM     13  O   UNL     1       6.637   5.192  19.392  0.00  0.00    +0.000 OA
ATOM     14  N   UNL     1       4.913   5.978  18.184  0.00  0.00    +0.000 N 
ATOM     15  H   UNL     1       4.587   6.333  17.279  0.00  0.00    +0.000 HD
BRANCH  12  16
ATOM     16  C   UNL     1       7.243   5.754  17.187  0.00  0.00    +0.000 C 
BRANCH  16  17
ATOM     17  C   UNL     1       6.844   5.024  15.913  0.00  0.00    +0.000 A 
ATOM     18  C   UNL     1       7.429   5.386  14.680  0.00  0.00    +0.000 A 
ATOM     19  C   UNL     1       7.059   4.740  13.495  0.00  0.00    +0.000 A 
ATOM     20  C   UNL     1       6.094   3.732  13.521  0.00  0.00    +0.000 A 
ATOM     21  C   UNL     1       5.498   3.369  14.730  0.00  0.00    +0.000 A 
ATOM     22  C   UNL     1       5.869   4.007  15.918  0.00  0.00    +0.000 A 
ENDBRANCH  16  17
BRANCH  16  24
ATOM     23  C   UNL     1       8.034   7.793  17.993  0.00  0.00    +0.000 C 
ATOM     24  O   UNL     1       7.476   7.120  16.884  0.00  0.00    +0.000 OA
ENDBRANCH  16  24
ENDBRANCH  12  16
ENDBRANCH   1  14
BRANCH   1  25
ATOM     25  C   UNL     1       3.290   4.491  19.417  0.00  0.00    +0.000 C 
BRANCH  25  26
ATOM     26  C   UNL     1       3.290   3.486  18.231  0.00  0.00    +0.000 C 
BRANCH  26  27
ATOM     27  N   UNL     1       1.966   3.075  17.706  0.00  0.00    +0.000 NA
ATOM     28  C   UNL     1       1.222   2.257  18.681  0.00  0.00    +0.000 C 
ATOM     29  C   UNL     1       1.178   4.295  17.430  0.00  0.00    +0.000 C 
ENDBRANCH  26  27
ENDBRANCH  25  26
ENDBRANCH   1  25
TORSDOF 8
ENDMDL
