MODEL 1
REMARK VINA RESULT:      -7.1      0.000      0.000
REMARK  Name = 
REMARK  7 active torsions:
REMARK  status: ('A' for Active; 'I' for Inactive)
REMARK    1  A    between atoms: C_1  and  C_2
REMARK    2  A    between atoms: C_2  and  O_3
REMARK    3  A    between atoms: O_3  and  C_4
REMARK    4  A    between atoms: N_10  and  C_11
REMARK    5  A    between atoms: C_11  and  C_12
REMARK    6  A    between atoms: C_15  and  C_16
REMARK    7  A    between atoms: C_17  and  C_18
REMARK                            x       y       z     vdW  Elec       q    Type
REMARK                         _______ _______ _______ _____ _____    ______ ____
ROOT
ATOM      1  C   UNL     1       6.605   4.588  13.173  0.00  0.00    +0.000 C 
ATOM      2  C   UNL     1       7.644   4.612  14.277  0.00  0.00    +0.000 C 
ATOM      3  O   UNL     1       7.090   5.433  15.312  0.00  0.00    +0.000 OA
ATOM      4  C   UNL     1       5.654   5.274  15.285  0.00  0.00    +0.000 C 
ATOM      5  C   UNL     1       5.016   6.668  15.371  0.00  0.00    +0.000 C 
ATOM      6  C   UNL     1       5.168   7.272  16.767  0.00  0.00    +0.000 C 
ATOM      7  N   UNL     1       4.636   6.413  17.837  0.00  0.00    +0.000 NA
ATOM      8  C   UNL     1       5.351   5.125  17.813  0.00  0.00    +0.000 C 
ATOM      9  C   UNL     1       5.244   4.389  16.474  0.00  0.00    +0.000 C 
ATOM     10  C   UNL     1       5.312   4.584  13.959  0.00  0.00    +0.000 C 
ENDROOT
BRANCH   1  11
ATOM     11  O   UNL     1       6.760   3.435  12.355  0.00  0.00    +0.000 OA
BRANCH  11  13
ATOM     12  C   UNL     1       5.807   1.544  11.260  0.00  0.00    +0.000 C 
ATOM     13  C   UNL     1       5.517   2.847  11.979  0.00  0.00    +0.000 C 
ENDBRANCH  11  13
ENDBRANCH   1  11
BRANCH   7  14
ATOM     14  C   UNL     1       3.174   6.215  17.791  0.00  0.00    +0.000 C 
BRANCH  14  15
ATOM     15  C   UNL     1       2.629   5.256  18.829  0.00  0.00    +0.000 A 
ATOM     16  C   UNL     1       2.797   5.518  20.193  0.00  0.00    +0.000 A 
ATOM     17  C   UNL     1       2.322   4.620  21.150  0.00  0.00    +0.000 A 
ATOM     18  C   UNL     1       1.654   3.447  20.769  0.00  0.00    +0.000 A 
ATOM     19  C   UNL     1       1.218   2.483  21.837  0.00  0.00    +0.000 C 
ATOM     20  C   UNL     1       1.421   3.206  19.402  0.00  0.00    +0.000 A 
ATOM     21  C   UNL     1       0.617   2.038  18.897  0.00  0.00    +0.000 C 
ATOM     22  C   UNL     1       1.930   4.106  18.445  0.00  0.00    +0.000 A 
ENDBRANCH  14  15
ENDBRANCH   7  14
TORSDOF 4
ENDMDL
MODEL 2
REMARK VINA RESULT:      -6.7      1.819      2.826
REMARK  Name = 
REMARK  7 active torsions:
REMARK  status: ('A' for Active; 'I' for Inactive)
REMARK    1  A    between atoms: C_1  and  C_2
REMARK    2  A    between atoms: C_2  and  O_3
REMARK    3  A    between atoms: O_3  and  C_4
REMARK    4  A    between atoms: N_10  and  C_11
REMARK    5  A    between atoms: C_11  and  C_12
REMARK    6  A    between atoms: C_15  and  C_16
REMARK    7  A    between atoms: C_17  and  C_18
REMARK                            x       y       z     vdW  Elec       q    Type
REMARK                         _______ _______ _______ _____ _____    ______ ____
ROOT
ATOM      1  C   UNL     1       6.683   4.494  12.641  0.00  0.00    +0.000 C 
ATOM      2  C   UNL     1       7.898   4.720  13.520  0.00  0.00    +0.000 C 
ATOM      3  O   UNL     1       7.412   5.394  14.686  0.00  0.00    +0.000 OA
ATOM      4  C   UNL     1       6.063   4.940  14.933  0.00  0.00    +0.000 C 
ATOM      5  C   UNL     1       5.189   6.169  15.219  0.00  0.00    +0.000 C 
ATOM      6  C   UNL     1       5.497   6.774  16.590  0.00  0.00    +0.000 C 
ATOM      7  N   UNL     1       5.377   5.809  17.694  0.00  0.00    +0.000 NA
ATOM      8  C   UNL     1       6.317   4.698  17.460  0.00  0.00    +0.000 C 
ATOM      9  C   UNL     1       6.090   3.974  16.130  0.00  0.00    +0.000 C 
ATOM     10  C   UNL     1       5.605   4.211  13.665  0.00  0.00    +0.000 C 
ENDROOT
BRANCH   1  11
ATOM     11  O   UNL     1       6.897   3.410  11.747  0.00  0.00    +0.000 OA
BRANCH  11  13
ATOM     12  C   UNL     1       6.358   1.170  11.134  0.00  0.00    +0.000 C 
ATOM     13  C   UNL     1       5.851   2.442  11.784  0.00  0.00    +0.000 C 
ENDBRANCH  11  13
ENDBRANCH   1  11
BRANCH   7  14
ATOM     14  C   UNL     1       4.007   5.312  17.925  0.00  0.00    +0.000 C 
BRANCH  14  15
ATOM     15  C   UNL     1       3.119   6.242  18.724  0.00  0.00    +0.000 A 
ATOM     16  C   UNL     1       2.693   5.886  20.008  0.00  0.00    +0.000 A 
ATOM     17  C   UNL     1       1.849   6.728  20.734  0.00  0.00    +0.000 A 
ATOM     18  C   UNL     1       1.423   7.955  20.201  0.00  0.00    +0.000 A 
ATOM     19  C   UNL     1       0.465   8.796  20.997  0.00  0.00    +0.000 C 
ATOM     20  C   UNL     1       1.899   8.354  18.938  0.00  0.00    +0.000 A 
ATOM     21  C   UNL     1       1.595   9.696  18.329  0.00  0.00    +0.000 C 
ATOM     22  C   UNL     1       2.728   7.481  18.205  0.00  0.00    +0.000 A 
ENDBRANCH  14  15
ENDBRANCH   7  14
TORSDOF 4
ENDMDL
MODEL 3
REMARK VINA RESULT:      -6.6      1.423      2.143
REMARK  Name = 
REMARK  7 active torsions:
REMARK  status: ('A' for Active; 'I' for Inactive)
REMARK    1  A    between atoms: C_1  and  C_2
REMARK    2  A    between atoms: C_2  and  O_3
REMARK    3  A    between atoms: O_3  and  C_4
REMARK    4  A    between atoms: N_10  and  C_11
REMARK    5  A    between atoms: C_11  and  C_12
REMARK    6  A    between atoms: C_15  and  C_16
REMARK    7  A    between atoms: C_17  and  C_18
REMARK                            x       y       z     vdW  Elec       q    Type
REMARK                         _______ _______ _______ _____ _____    ______ ____
ROOT
ATOM      1  C   UNL     1       5.975   3.993  13.399  0.00  0.00    +0.000 C 
ATOM      2  C   UNL     1       6.763   5.283  13.511  0.00  0.00    +0.000 C 
ATOM      3  O   UNL     1       6.433   5.828  14.793  0.00  0.00    +0.000 OA
ATOM      4  C   UNL     1       6.172   4.727  15.692  0.00  0.00    +0.000 C 
ATOM      5  C   UNL     1       4.883   5.034  16.465  0.00  0.00    +0.000 C 
ATOM      6  C   UNL     1       5.094   6.144  17.496  0.00  0.00    +0.000 C 
ATOM      7  N   UNL     1       6.188   5.864  18.440  0.00  0.00    +0.000 NA
ATOM      8  C   UNL     1       7.440   5.696  17.682  0.00  0.00    +0.000 C 
ATOM      9  C   UNL     1       7.377   4.579  16.636  0.00  0.00    +0.000 C 
ATOM     10  C   UNL     1       6.016   3.475  14.821  0.00  0.00    +0.000 C 
ENDROOT
BRANCH   1  11
ATOM     11  O   UNL     1       6.582   3.106  12.468  0.00  0.00    +0.000 OA
BRANCH  11  13
ATOM     12  C   UNL     1       4.425   3.233  11.461  0.00  0.00    +0.000 C 
ATOM     13  C   UNL     1       5.633   2.354  11.715  0.00  0.00    +0.000 C 
ENDBRANCH  11  13
ENDBRANCH   1  11
BRANCH   7  14
ATOM     14  C   UNL     1       5.944   4.715  19.333  0.00  0.00    +0.000 C 
BRANCH  14  15
ATOM     15  C   UNL     1       4.535   4.161  19.287  0.00  0.00    +0.000 A 
ATOM     16  C   UNL     1       4.282   2.915  18.707  0.00  0.00    +0.000 A 
ATOM     17  C   UNL     1       2.980   2.417  18.635  0.00  0.00    +0.000 A 
ATOM     18  C   UNL     1       1.900   3.145  19.157  0.00  0.00    +0.000 A 
ATOM     19  C   UNL     1       0.511   2.594  18.999  0.00  0.00    +0.000 C 
ATOM     20  C   UNL     1       2.151   4.371  19.803  0.00  0.00    +0.000 A 
ATOM     21  C   UNL     1       1.080   5.172  20.494  0.00  0.00    +0.000 C 
ATOM     22  C   UNL     1       3.466   4.875  19.843  0.00  0.00    +0.000 A 
ENDBRANCH  14  15
ENDBRANCH   7  14
TORSDOF 4
ENDMDL
MODEL 4
REMARK VINA RESULT:      -6.6      2.324      3.611
REMARK  Name = 
REMARK  7 active torsions:
REMARK  status: ('A' for Active; 'I' for Inactive)
REMARK    1  A    between atoms: C_1  and  C_2
REMARK    2  A    between atoms: C_2  and  O_3
REMARK    3  A    between atoms: O_3  and  C_4
REMARK    4  A    between atoms: N_10  and  C_11
REMARK    5  A    between atoms: C_11  and  C_12
REMARK    6  A    between atoms: C_15  and  C_16
REMARK    7  A    between atoms: C_17  and  C_18
REMARK                            x       y       z     vdW  Elec       q    Type
REMARK                         _______ _______ _______ _____ _____    ______ ____
ROOT
ATOM      1  C   UNL     1       6.743   5.397  15.086  0.00  0.00    +0.000 C 
ATOM      2  C   UNL     1       7.298   4.335  16.014  0.00  0.00    +0.000 C 
ATOM      3  O   UNL     1       6.573   4.476  17.242  0.00  0.00    +0.000 OA
ATOM      4  C   UNL     1       5.242   4.937  16.922  0.00  0.00    +0.000 C 
ATOM      5  C   UNL     1       4.891   6.088  17.874  0.00  0.00    +0.000 C 
ATOM      6  C   UNL     1       4.639   5.587  19.296  0.00  0.00    +0.000 C 
ATOM      7  N   UNL     1       3.605   4.543  19.374  0.00  0.00    +0.000 NA
ATOM      8  C   UNL     1       4.024   3.396  18.550  0.00  0.00    +0.000 C 
ATOM      9  C   UNL     1       4.271   3.754  17.081  0.00  0.00    +0.000 C 
ATOM     10  C   UNL     1       5.277   5.409  15.463  0.00  0.00    +0.000 C 
ENDROOT
BRANCH   1  11
ATOM     11  O   UNL     1       6.962   5.048  13.725  0.00  0.00    +0.000 OA
BRANCH  11  13
ATOM     12  C   UNL     1       5.644   3.616  12.348  0.00  0.00    +0.000 C 
ATOM     13  C   UNL     1       6.683   3.677  13.450  0.00  0.00    +0.000 C 
ENDBRANCH  11  13
ENDBRANCH   1  11
BRANCH   7  14
ATOM     14  C   UNL     1       2.250   4.998  19.010  0.00  0.00    +0.000 C 
BRANCH  14  15
ATOM     15  C   UNL     1       1.912   6.408  19.449  0.00  0.00    +0.000 A 
ATOM     16  C   UNL     1       1.536   6.667  20.770  0.00  0.00    +0.000 A 
ATOM     17  C   UNL     1       1.194   7.961  21.169  0.00  0.00    +0.000 A 
ATOM     18  C   UNL     1       1.236   9.029  20.261  0.00  0.00    +0.000 A 
ATOM     19  C   UNL     1       0.799  10.391  20.724  0.00  0.00    +0.000 C 
ATOM     20  C   UNL     1       1.678   8.792  18.945  0.00  0.00    +0.000 A 
ATOM     21  C   UNL     1       1.867   9.886  17.930  0.00  0.00    +0.000 C 
ATOM     22  C   UNL     1       1.993   7.477  18.549  0.00  0.00    +0.000 A 
ENDBRANCH  14  15
ENDBRANCH   7  14
TORSDOF 4
ENDMDL
MODEL 5
REMARK VINA RESULT:      -6.6      1.414      1.774
REMARK  Name = 
REMARK  7 active torsions:
REMARK  status: ('A' for Active; 'I' for Inactive)
REMARK    1  A    between atoms: C_1  and  C_2
REMARK    2  A    between atoms: C_2  and  O_3
REMARK    3  A    between atoms: O_3  and  C_4
REMARK    4  A    between atoms: N_10  and  C_11
REMARK    5  A    between atoms: C_11  and  C_12
REMARK    6  A    between atoms: C_15  and  C_16
REMARK    7  A    between atoms: C_17  and  C_18
REMARK                            x       y       z     vdW  Elec       q    Type
REMARK                         _______ _______ _______ _____ _____    ______ ____
ROOT
ATOM      1  C   UNL     1       5.973   3.856  13.455  0.00  0.00    +0.000 C 
ATOM      2  C   UNL     1       6.793   5.131  13.423  0.00  0.00    +0.000 C 
ATOM      3  O   UNL     1       6.491   5.816  14.644  0.00  0.00    +0.000 OA
ATOM      4  C   UNL     1       6.214   4.823  15.656  0.00  0.00    +0.000 C 
ATOM      5  C   UNL     1       4.941   5.241  16.404  0.00  0.00    +0.000 C 
ATOM      6  C   UNL     1       5.191   6.448  17.310  0.00  0.00    +0.000 C 
ATOM      7  N   UNL     1       6.289   6.242  18.268  0.00  0.00    +0.000 NA
ATOM      8  C   UNL     1       7.528   5.964  17.521  0.00  0.00    +0.000 C 
ATOM      9  C   UNL     1       7.427   4.745  16.599  0.00  0.00    +0.000 C 
ATOM     10  C   UNL     1       6.019   3.490  14.923  0.00  0.00    +0.000 C 
ENDROOT
BRANCH   1  11
ATOM     11  O   UNL     1       6.548   2.861  12.617  0.00  0.00    +0.000 OA
BRANCH  11  13
ATOM     12  C   UNL     1       4.438   3.275  11.587  0.00  0.00    +0.000 C 
ATOM     13  C   UNL     1       5.629   2.340  11.660  0.00  0.00    +0.000 C 
ENDBRANCH  11  13
ENDBRANCH   1  11
BRANCH   7  14
ATOM     14  C   UNL     1       6.028   5.200  19.280  0.00  0.00    +0.000 C 
BRANCH  14  15
ATOM     15  C   UNL     1       4.592   4.724  19.347  0.00  0.00    +0.000 A 
ATOM     16  C   UNL     1       3.582   5.579  19.800  0.00  0.00    +0.000 A 
ATOM     17  C   UNL     1       2.263   5.132  19.892  0.00  0.00    +0.000 A 
ATOM     18  C   UNL     1       1.918   3.824  19.520  0.00  0.00    +0.000 A 
ATOM     19  C   UNL     1       0.495   3.373  19.697  0.00  0.00    +0.000 C 
ATOM     20  C   UNL     1       2.914   2.975  19.001  0.00  0.00    +0.000 A 
ATOM     21  C   UNL     1       2.626   1.598  18.468  0.00  0.00    +0.000 C 
ATOM     22  C   UNL     1       4.246   3.431  18.939  0.00  0.00    +0.000 A 
ENDBRANCH  14  15
ENDBRANCH   7  14
TORSDOF 4
ENDMDL
MODEL 6
REMARK VINA RESULT:      -6.5      2.271      3.752
REMARK  Name = 
REMARK  7 active torsions:
REMARK  status: ('A' for Active; 'I' for Inactive)
REMARK    1  A    between atoms: C_1  and  C_2
REMARK    2  A    between atoms: C_2  and  O_3
REMARK    3  A    between atoms: O_3  and  C_4
REMARK    4  A    between atoms: N_10  and  C_11
REMARK    5  A    between atoms: C_11  and  C_12
REMARK    6  A    between atoms: C_15  and  C_16
REMARK    7  A    between atoms: C_17  and  C_18
REMARK                            x       y       z     vdW  Elec       q    Type
REMARK                         _______ _______ _______ _____ _____    ______ ____
ROOT
ATOM      1  C   UNL     1       6.822   5.404  15.332  0.00  0.00    +0.000 C 
ATOM      2  C   UNL     1       7.432   4.382  16.271  0.00  0.00    +0.000 C 
ATOM      3  O   UNL     1       6.691   4.487  17.492  0.00  0.00    +0.000 OA
ATOM      4  C   UNL     1       5.337   4.867  17.160  0.00  0.00    +0.000 C 
ATOM      5  C   UNL     1       4.913   6.001  18.103  0.00  0.00    +0.000 C 
ATOM      6  C   UNL     1       4.681   5.493  19.527  0.00  0.00    +0.000 C 
ATOM      7  N   UNL     1       3.709   4.391  19.603  0.00  0.00    +0.000 NA
ATOM      8  C   UNL     1       4.200   3.266  18.789  0.00  0.00    +0.000 C 
ATOM      9  C   UNL     1       4.437   3.630  17.320  0.00  0.00    +0.000 C 
ATOM     10  C   UNL     1       5.356   5.331  15.699  0.00  0.00    +0.000 C 
ENDROOT
BRANCH   1  11
ATOM     11  O   UNL     1       7.071   5.060  13.975  0.00  0.00    +0.000 OA
BRANCH  11  13
ATOM     12  C   UNL     1       6.741   3.594  12.124  0.00  0.00    +0.000 C 
ATOM     13  C   UNL     1       6.299   3.947  13.531  0.00  0.00    +0.000 C 
ENDBRANCH  11  13
ENDBRANCH   1  11
BRANCH   7  14
ATOM     14  C   UNL     1       2.332   4.763  19.227  0.00  0.00    +0.000 C 
BRANCH  14  15
ATOM     15  C   UNL     1       2.049   6.251  19.241  0.00  0.00    +0.000 A 
ATOM     16  C   UNL     1       2.063   6.987  18.052  0.00  0.00    +0.000 A 
ATOM     17  C   UNL     1       1.833   8.364  18.068  0.00  0.00    +0.000 A 
ATOM     18  C   UNL     1       1.567   9.036  19.270  0.00  0.00    +0.000 A 
ATOM     19  C   UNL     1       1.388  10.528  19.240  0.00  0.00    +0.000 C 
ATOM     20  C   UNL     1       1.485   8.295  20.465  0.00  0.00    +0.000 A 
ATOM     21  C   UNL     1       1.095   8.902  21.785  0.00  0.00    +0.000 C 
ATOM     22  C   UNL     1       1.747   6.911  20.438  0.00  0.00    +0.000 A 
ENDBRANCH  14  15
ENDBRANCH   7  14
TORSDOF 4
ENDMDL
MODEL 7
REMARK VINA RESULT:      -6.5      2.641      3.944
REMARK  Name = 
REMARK  7 active torsions:
REMARK  status: ('A' for Active; 'I' for Inactive)
REMARK    1  A    between atoms: C_1  and  C_2
REMARK    2  A    between atoms: C_2  and  O_3
REMARK    3  A    between atoms: O_3  and  C_4
REMARK    4  A    between atoms: N_10  and  C_11
REMARK    5  A    between atoms: C_11  and  C_12
REMARK    6  A    between atoms: C_15  and  C_16
REMARK    7  A    between atoms: C_17  and  C_18
REMARK                            x       y       z     vdW  Elec       q    Type
REMARK                         _______ _______ _______ _____ _____    ______ ____
ROOT
ATOM      1  C   UNL     1       6.434   4.534  14.301  0.00  0.00    +0.000 C 
ATOM      2  C   UNL     1       7.174   4.054  15.535  0.00  0.00    +0.000 C 
ATOM      3  O   UNL     1       6.608   4.780  16.632  0.00  0.00    +0.000 OA
ATOM      4  C   UNL     1       5.219   5.035  16.328  0.00  0.00    +0.000 C 
ATOM      5  C   UNL     1       4.921   6.506  16.647  0.00  0.00    +0.000 C 
ATOM      6  C   UNL     1       4.891   6.762  18.154  0.00  0.00    +0.000 C 
ATOM      7  N   UNL     1       3.946   5.894  18.875  0.00  0.00    +0.000 NA
ATOM      8  C   UNL     1       4.328   4.489  18.656  0.00  0.00    +0.000 C 
ATOM      9  C   UNL     1       4.357   4.085  17.178  0.00  0.00    +0.000 C 
ATOM     10  C   UNL     1       5.033   4.737  14.836  0.00  0.00    +0.000 C 
ENDROOT
BRANCH   1  11
ATOM     11  O   UNL     1       6.496   3.565  13.263  0.00  0.00    +0.000 OA
BRANCH  11  13
ATOM     12  C   UNL     1       7.815   5.352  12.396  0.00  0.00    +0.000 C 
ATOM     13  C   UNL     1       7.076   4.070  12.063  0.00  0.00    +0.000 C 
ENDBRANCH  11  13
ENDBRANCH   1  11
BRANCH   7  14
ATOM     14  C   UNL     1       2.528   6.123  18.539  0.00  0.00    +0.000 C 
BRANCH  14  15
ATOM     15  C   UNL     1       1.994   7.486  18.927  0.00  0.00    +0.000 A 
ATOM     16  C   UNL     1       1.780   8.467  17.954  0.00  0.00    +0.000 A 
ATOM     17  C   UNL     1       1.317   9.734  18.314  0.00  0.00    +0.000 A 
ATOM     18  C   UNL     1       1.042  10.047  19.653  0.00  0.00    +0.000 A 
ATOM     19  C   UNL     1       0.606  11.444  19.995  0.00  0.00    +0.000 C 
ATOM     20  C   UNL     1       1.191   9.047  20.634  0.00  0.00    +0.000 A 
ATOM     21  C   UNL     1       0.815   9.247  22.077  0.00  0.00    +0.000 C 
ATOM     22  C   UNL     1       1.685   7.781  20.260  0.00  0.00    +0.000 A 
ENDBRANCH  14  15
ENDBRANCH   7  14
TORSDOF 4
ENDMDL
MODEL 8
REMARK VINA RESULT:      -6.4      2.684      3.702
REMARK  Name = 
REMARK  7 active torsions:
REMARK  status: ('A' for Active; 'I' for Inactive)
REMARK    1  A    between atoms: C_1  and  C_2
REMARK    2  A    between atoms: C_2  and  O_3
REMARK    3  A    between atoms: O_3  and  C_4
REMARK    4  A    between atoms: N_10  and  C_11
REMARK    5  A    between atoms: C_11  and  C_12
REMARK    6  A    between atoms: C_15  and  C_16
REMARK    7  A    between atoms: C_17  and  C_18
REMARK                            x       y       z     vdW  Elec       q    Type
REMARK                         _______ _______ _______ _____ _____    ______ ____
ROOT
ATOM      1  C   UNL     1       6.482   4.427  14.184  0.00  0.00    +0.000 C 
ATOM      2  C   UNL     1       7.073   3.868  15.464  0.00  0.00    +0.000 C 
ATOM      3  O   UNL     1       6.563   4.693  16.518  0.00  0.00    +0.000 OA
ATOM      4  C   UNL     1       5.247   5.147  16.131  0.00  0.00    +0.000 C 
ATOM      5  C   UNL     1       5.157   6.653  16.413  0.00  0.00    +0.000 C 
ATOM      6  C   UNL     1       5.084   6.943  17.913  0.00  0.00    +0.000 C 
ATOM      7  N   UNL     1       3.981   6.242  18.590  0.00  0.00    +0.000 NA
ATOM      8  C   UNL     1       4.158   4.790  18.410  0.00  0.00    +0.000 C 
ATOM      9  C   UNL     1       4.207   4.356  16.942  0.00  0.00    +0.000 C 
ATOM     10  C   UNL     1       5.100   4.849  14.635  0.00  0.00    +0.000 C 
ENDROOT
BRANCH   1  11
ATOM     11  O   UNL     1       6.454   3.437  13.163  0.00  0.00    +0.000 OA
BRANCH  11  13
ATOM     12  C   UNL     1       5.281   2.304  11.424  0.00  0.00    +0.000 C 
ATOM     13  C   UNL     1       5.274   3.493  12.365  0.00  0.00    +0.000 C 
ENDBRANCH  11  13
ENDBRANCH   1  11
BRANCH   7  14
ATOM     14  C   UNL     1       2.634   6.673  18.170  0.00  0.00    +0.000 C 
BRANCH  14  15
ATOM     15  C   UNL     1       1.986   7.703  19.071  0.00  0.00    +0.000 A 
ATOM     16  C   UNL     1       1.825   7.449  20.437  0.00  0.00    +0.000 A 
ATOM     17  C   UNL     1       1.200   8.384  21.264  0.00  0.00    +0.000 A 
ATOM     18  C   UNL     1       0.734   9.603  20.749  0.00  0.00    +0.000 A 
ATOM     19  C   UNL     1       0.012  10.548  21.668  0.00  0.00    +0.000 C 
ATOM     20  C   UNL     1       0.949   9.898  19.389  0.00  0.00    +0.000 A 
ATOM     21  C   UNL     1       0.591  11.221  18.767  0.00  0.00    +0.000 C 
ATOM     22  C   UNL     1       1.557   8.934  18.561  0.00  0.00    +0.000 A 
ENDBRANCH  14  15
ENDBRANCH   7  14
TORSDOF 4
ENDMDL
MODEL 9
REMARK VINA RESULT:      -6.3      3.016      4.570
REMARK  Name = 
REMARK  7 active torsions:
REMARK  status: ('A' for Active; 'I' for Inactive)
REMARK    1  A    between atoms: C_1  and  C_2
REMARK    2  A    between atoms: C_2  and  O_3
REMARK    3  A    between atoms: O_3  and  C_4
REMARK    4  A    between atoms: N_10  and  C_11
REMARK    5  A    between atoms: C_11  and  C_12
REMARK    6  A    between atoms: C_15  and  C_16
REMARK    7  A    between atoms: C_17  and  C_18
REMARK                            x       y       z     vdW  Elec       q    Type
REMARK                         _______ _______ _______ _____ _____    ______ ____
ROOT
ATOM      1  C   UNL     1       6.862   4.331  16.247  0.00  0.00    +0.000 C 
ATOM      2  C   UNL     1       5.570   3.792  15.664  0.00  0.00    +0.000 C 
ATOM      3  O   UNL     1       4.610   3.855  16.726  0.00  0.00    +0.000 OA
ATOM      4  C   UNL     1       4.943   4.987  17.561  0.00  0.00    +0.000 C 
ATOM      5  C   UNL     1       4.884   4.536  19.026  0.00  0.00    +0.000 C 
ATOM      6  C   UNL     1       3.444   4.309  19.488  0.00  0.00    +0.000 C 
ATOM      7  N   UNL     1       2.575   5.480  19.290  0.00  0.00    +0.000 NA
ATOM      8  C   UNL     1       2.550   5.818  17.857  0.00  0.00    +0.000 C 
ATOM      9  C   UNL     1       3.935   6.112  17.272  0.00  0.00    +0.000 C 
ATOM     10  C   UNL     1       6.360   5.422  17.167  0.00  0.00    +0.000 C 
ENDROOT
BRANCH   1  11
ATOM     11  O   UNL     1       7.716   4.820  15.221  0.00  0.00    +0.000 OA
BRANCH  11  13
ATOM     12  C   UNL     1       8.100   5.251  12.908  0.00  0.00    +0.000 C 
ATOM     13  C   UNL     1       7.052   4.975  13.970  0.00  0.00    +0.000 C 
ENDBRANCH  11  13
ENDBRANCH   1  11
BRANCH   7  14
ATOM     14  C   UNL     1       2.935   6.652  20.111  0.00  0.00    +0.000 C 
BRANCH  14  15
ATOM     15  C   UNL     1       1.911   7.768  20.110  0.00  0.00    +0.000 A 
ATOM     16  C   UNL     1       1.701   8.537  18.961  0.00  0.00    +0.000 A 
ATOM     17  C   UNL     1       0.780   9.586  18.968  0.00  0.00    +0.000 A 
ATOM     18  C   UNL     1       0.034   9.882  20.118  0.00  0.00    +0.000 A 
ATOM     19  C   UNL     1      -0.899  11.060  20.093  0.00  0.00    +0.000 C 
ATOM     20  C   UNL     1       0.188   9.073  21.260  0.00  0.00    +0.000 A 
ATOM     21  C   UNL     1      -0.645   9.235  22.503  0.00  0.00    +0.000 C 
ATOM     22  C   UNL     1       1.141   8.035  21.248  0.00  0.00    +0.000 A 
ENDBRANCH  14  15
ENDBRANCH   7  14
TORSDOF 4
ENDMDL
