MODEL 1
REMARK VINA RESULT:      -7.4      0.000      0.000
REMARK  Name = 
REMARK  4 active torsions:
REMARK  status: ('A' for Active; 'I' for Inactive)
REMARK    1  A    between atoms: C_5  and  N_6
REMARK    2  A    between atoms: C_9  and  C_10
REMARK    3  A    between atoms: C_10  and  C_11
REMARK    4  A    between atoms: N_20  and  C_21
REMARK                            x       y       z     vdW  Elec       q    Type
REMARK                         _______ _______ _______ _____ _____    ______ ____
ROOT
ATOM      1  N   UNL     1       4.128   3.509  17.685  0.00  0.00    +0.000 NA
ATOM      2  C   UNL     1       4.413   3.831  19.105  0.00  0.00    +0.000 C 
ATOM      3  C   UNL     1       3.169   4.110  19.954  0.00  0.00    +0.000 C 
ATOM      4  C   UNL     1       2.321   5.246  19.380  0.00  0.00    +0.000 C 
ATOM      5  C   UNL     1       1.955   4.836  17.949  0.00  0.00    +0.000 C 
ATOM      6  C   UNL     1       3.179   4.479  17.094  0.00  0.00    +0.000 C 
ENDROOT
BRANCH   1  11
ATOM      7  O   UNL     1       7.045   5.627  14.346  0.00  0.00    +0.000 OA
ATOM      8  S   UNL     1       6.047   5.591  15.392  0.00  0.00    +0.000 S 
ATOM      9  O   UNL     1       4.993   6.577  15.488  0.00  0.00    +0.000 OA
ATOM     10  C   UNL     1       5.323   3.972  15.434  0.00  0.00    +0.000 C 
ATOM     11  C   UNL     1       5.405   3.462  16.882  0.00  0.00    +0.000 C 
ATOM     12  C   UNL     1       6.670   4.150  17.490  0.00  0.00    +0.000 C 
ATOM     13  N   UNL     1       6.853   5.477  16.867  0.00  0.00    +0.000 NA
BRANCH  13  14
ATOM     14  C   UNL     1       7.057   6.624  17.767  0.00  0.00    +0.000 C 
ATOM     15  C   UNL     1       8.190   6.466  18.778  0.00  0.00    +0.000 C 
ATOM     16  C   UNL     1       8.504   7.900  19.189  0.00  0.00    +0.000 C 
ATOM     17  C   UNL     1       8.272   8.736  17.937  0.00  0.00    +0.000 C 
ATOM     18  C   UNL     1       7.369   7.917  17.018  0.00  0.00    +0.000 C 
ENDBRANCH  13  14
ENDBRANCH   1  11
BRANCH   4  19
ATOM     19  C   UNL     1       3.012   6.628  19.406  0.00  0.00    +0.000 C 
BRANCH  19  20
ATOM     20  C   UNL     1       2.091   7.826  19.297  0.00  0.00    +0.000 A 
ATOM     21  C   UNL     1       1.416   8.302  20.433  0.00  0.00    +0.000 A 
ATOM     22  C   UNL     1       0.601   9.432  20.355  0.00  0.00    +0.000 A 
ATOM     23  C   UNL     1       0.451  10.103  19.144  0.00  0.00    +0.000 A 
ATOM     24  C   UNL     1       1.119   9.642  18.010  0.00  0.00    +0.000 A 
ATOM     25  C   UNL     1       1.937   8.513  18.086  0.00  0.00    +0.000 A 
ENDBRANCH  19  20
ENDBRANCH   4  19
TORSDOF 4
ENDMDL
MODEL 2
REMARK VINA RESULT:      -7.3      0.554      1.119
REMARK  Name = 
REMARK  4 active torsions:
REMARK  status: ('A' for Active; 'I' for Inactive)
REMARK    1  A    between atoms: C_5  and  N_6
REMARK    2  A    between atoms: C_9  and  C_10
REMARK    3  A    between atoms: C_10  and  C_11
REMARK    4  A    between atoms: N_20  and  C_21
REMARK                            x       y       z     vdW  Elec       q    Type
REMARK                         _______ _______ _______ _____ _____    ______ ____
ROOT
ATOM      1  N   UNL     1       4.211   3.730  18.126  0.00  0.00    +0.000 NA
ATOM      2  C   UNL     1       4.419   4.682  19.244  0.00  0.00    +0.000 C 
ATOM      3  C   UNL     1       3.152   5.014  20.039  0.00  0.00    +0.000 C 
ATOM      4  C   UNL     1       2.043   5.578  19.149  0.00  0.00    +0.000 C 
ATOM      5  C   UNL     1       1.778   4.527  18.066  0.00  0.00    +0.000 C 
ATOM      6  C   UNL     1       3.045   4.119  17.299  0.00  0.00    +0.000 C 
ENDROOT
BRANCH   1  11
ATOM      7  O   UNL     1       6.968   5.609  14.519  0.00  0.00    +0.000 OA
ATOM      8  S   UNL     1       6.017   5.647  15.607  0.00  0.00    +0.000 S 
ATOM      9  O   UNL     1       4.963   6.634  15.677  0.00  0.00    +0.000 OA
ATOM     10  C   UNL     1       5.304   4.033  15.797  0.00  0.00    +0.000 C 
ATOM     11  C   UNL     1       5.452   3.629  17.273  0.00  0.00    +0.000 C 
ATOM     12  C   UNL     1       6.738   4.363  17.774  0.00  0.00    +0.000 C 
ATOM     13  N   UNL     1       6.887   5.641  17.049  0.00  0.00    +0.000 NA
BRANCH  13  14
ATOM     14  C   UNL     1       7.123   6.851  17.854  0.00  0.00    +0.000 C 
ATOM     15  C   UNL     1       8.318   6.780  18.801  0.00  0.00    +0.000 C 
ATOM     16  C   UNL     1       8.629   8.244  19.093  0.00  0.00    +0.000 C 
ATOM     17  C   UNL     1       8.304   8.988  17.804  0.00  0.00    +0.000 C 
ATOM     18  C   UNL     1       7.363   8.094  17.001  0.00  0.00    +0.000 C 
ENDBRANCH  13  14
ENDBRANCH   1  11
BRANCH   4  19
ATOM     19  C   UNL     1       2.369   6.953  18.525  0.00  0.00    +0.000 C 
BRANCH  19  20
ATOM     20  C   UNL     1       1.765   8.153  19.224  0.00  0.00    +0.000 A 
ATOM     21  C   UNL     1       1.492   9.327  18.503  0.00  0.00    +0.000 A 
ATOM     22  C   UNL     1       0.894  10.423  19.126  0.00  0.00    +0.000 A 
ATOM     23  C   UNL     1       0.556  10.360  20.475  0.00  0.00    +0.000 A 
ATOM     24  C   UNL     1       0.818   9.199  21.202  0.00  0.00    +0.000 A 
ATOM     25  C   UNL     1       1.415   8.101  20.580  0.00  0.00    +0.000 A 
ENDBRANCH  19  20
ENDBRANCH   4  19
TORSDOF 4
ENDMDL
MODEL 3
REMARK VINA RESULT:      -7.2      4.904      7.816
REMARK  Name = 
REMARK  4 active torsions:
REMARK  status: ('A' for Active; 'I' for Inactive)
REMARK    1  A    between atoms: C_5  and  N_6
REMARK    2  A    between atoms: C_9  and  C_10
REMARK    3  A    between atoms: C_10  and  C_11
REMARK    4  A    between atoms: N_20  and  C_21
REMARK                            x       y       z     vdW  Elec       q    Type
REMARK                         _______ _______ _______ _____ _____    ______ ____
ROOT
ATOM      1  N   UNL     1       1.483   9.185  19.435  0.00  0.00    +0.000 NA
ATOM      2  C   UNL     1       1.535   7.905  20.181  0.00  0.00    +0.000 C 
ATOM      3  C   UNL     1       2.758   7.037  19.867  0.00  0.00    +0.000 C 
ATOM      4  C   UNL     1       2.868   6.712  18.376  0.00  0.00    +0.000 C 
ATOM      5  C   UNL     1       2.917   8.055  17.641  0.00  0.00    +0.000 C 
ATOM      6  C   UNL     1       1.741   8.978  17.992  0.00  0.00    +0.000 C 
ENDROOT
BRANCH   1  11
ATOM      7  O   UNL     1      -1.066  12.821  21.539  0.00  0.00    +0.000 OA
ATOM      8  S   UNL     1       0.108  12.180  20.990  0.00  0.00    +0.000 S 
ATOM      9  O   UNL     1       1.443  12.491  21.450  0.00  0.00    +0.000 OA
ATOM     10  C   UNL     1      -0.123  10.422  21.048  0.00  0.00    +0.000 C 
ATOM     11  C   UNL     1       0.153   9.869  19.641  0.00  0.00    +0.000 C 
ATOM     12  C   UNL     1      -0.226  11.027  18.662  0.00  0.00    +0.000 C 
ATOM     13  N   UNL     1       0.037  12.326  19.314  0.00  0.00    +0.000 NA
BRANCH  13  14
ATOM     14  C   UNL     1       0.817  13.318  18.555  0.00  0.00    +0.000 C 
ATOM     15  C   UNL     1       0.949  14.687  19.218  0.00  0.00    +0.000 C 
ATOM     16  C   UNL     1       2.162  15.301  18.527  0.00  0.00    +0.000 C 
ATOM     17  C   UNL     1       3.098  14.133  18.246  0.00  0.00    +0.000 C 
ATOM     18  C   UNL     1       2.250  12.865  18.286  0.00  0.00    +0.000 C 
ENDBRANCH  13  14
ENDBRANCH   1  11
BRANCH   4  19
ATOM     19  C   UNL     1       1.727   5.821  17.836  0.00  0.00    +0.000 C 
BRANCH  19  20
ATOM     20  C   UNL     1       1.792   4.359  18.226  0.00  0.00    +0.000 A 
ATOM     21  C   UNL     1       2.506   3.448  17.431  0.00  0.00    +0.000 A 
ATOM     22  C   UNL     1       2.611   2.107  17.804  0.00  0.00    +0.000 A 
ATOM     23  C   UNL     1       2.008   1.660  18.977  0.00  0.00    +0.000 A 
ATOM     24  C   UNL     1       1.299   2.555  19.776  0.00  0.00    +0.000 A 
ATOM     25  C   UNL     1       1.195   3.897  19.406  0.00  0.00    +0.000 A 
ENDBRANCH  19  20
ENDBRANCH   4  19
TORSDOF 4
ENDMDL
MODEL 4
REMARK VINA RESULT:      -7.1      2.753      5.534
REMARK  Name = 
REMARK  4 active torsions:
REMARK  status: ('A' for Active; 'I' for Inactive)
REMARK    1  A    between atoms: C_5  and  N_6
REMARK    2  A    between atoms: C_9  and  C_10
REMARK    3  A    between atoms: C_10  and  C_11
REMARK    4  A    between atoms: N_20  and  C_21
REMARK                            x       y       z     vdW  Elec       q    Type
REMARK                         _______ _______ _______ _____ _____    ______ ____
ROOT
ATOM      1  N   UNL     1       2.637   8.091  18.517  0.00  0.00    +0.000 NA
ATOM      2  C   UNL     1       1.883   9.107  17.742  0.00  0.00    +0.000 C 
ATOM      3  C   UNL     1       1.438  10.325  18.557  0.00  0.00    +0.000 C 
ATOM      4  C   UNL     1       0.583   9.931  19.763  0.00  0.00    +0.000 C 
ATOM      5  C   UNL     1       1.428   8.963  20.598  0.00  0.00    +0.000 C 
ATOM      6  C   UNL     1       1.951   7.768  19.789  0.00  0.00    +0.000 C 
ENDROOT
BRANCH   1  11
ATOM      7  O   UNL     1       5.295   4.047  17.664  0.00  0.00    +0.000 OA
ATOM      8  S   UNL     1       4.750   5.123  18.462  0.00  0.00    +0.000 S 
ATOM      9  O   UNL     1       5.445   5.660  19.610  0.00  0.00    +0.000 OA
ATOM     10  C   UNL     1       4.302   6.461  17.386  0.00  0.00    +0.000 C 
ATOM     11  C   UNL     1       2.845   6.841  17.696  0.00  0.00    +0.000 C 
ATOM     12  C   UNL     1       2.174   5.523  18.200  0.00  0.00    +0.000 C 
ATOM     13  N   UNL     1       3.180   4.696  18.897  0.00  0.00    +0.000 NA
BRANCH  13  14
ATOM     14  C   UNL     1       2.824   4.176  20.228  0.00  0.00    +0.000 C 
ATOM     15  C   UNL     1       1.329   3.989  20.475  0.00  0.00    +0.000 C 
ATOM     16  C   UNL     1       1.281   3.009  21.643  0.00  0.00    +0.000 C 
ATOM     17  C   UNL     1       2.475   2.084  21.440  0.00  0.00    +0.000 C 
ATOM     18  C   UNL     1       3.450   2.815  20.520  0.00  0.00    +0.000 C 
ENDBRANCH  13  14
ENDBRANCH   1  11
BRANCH   4  19
ATOM     19  C   UNL     1      -0.782   9.307  19.396  0.00  0.00    +0.000 C 
BRANCH  19  20
ATOM     20  C   UNL     1      -1.628  10.100  18.422  0.00  0.00    +0.000 A 
ATOM     21  C   UNL     1      -1.738   9.688  17.084  0.00  0.00    +0.000 A 
ATOM     22  C   UNL     1      -2.551  10.385  16.189  0.00  0.00    +0.000 A 
ATOM     23  C   UNL     1      -3.266  11.500  16.618  0.00  0.00    +0.000 A 
ATOM     24  C   UNL     1      -3.168  11.917  17.944  0.00  0.00    +0.000 A 
ATOM     25  C   UNL     1      -2.357  11.220  18.842  0.00  0.00    +0.000 A 
ENDBRANCH  19  20
ENDBRANCH   4  19
TORSDOF 4
ENDMDL
MODEL 5
REMARK VINA RESULT:      -7.1      2.637      5.243
REMARK  Name = 
REMARK  4 active torsions:
REMARK  status: ('A' for Active; 'I' for Inactive)
REMARK    1  A    between atoms: C_5  and  N_6
REMARK    2  A    between atoms: C_9  and  C_10
REMARK    3  A    between atoms: C_10  and  C_11
REMARK    4  A    between atoms: N_20  and  C_21
REMARK                            x       y       z     vdW  Elec       q    Type
REMARK                         _______ _______ _______ _____ _____    ______ ____
ROOT
ATOM      1  N   UNL     1       3.091   7.852  18.325  0.00  0.00    +0.000 NA
ATOM      2  C   UNL     1       2.809   9.056  17.506  0.00  0.00    +0.000 C 
ATOM      3  C   UNL     1       2.162  10.210  18.278  0.00  0.00    +0.000 C 
ATOM      4  C   UNL     1       0.855   9.792  18.955  0.00  0.00    +0.000 C 
ATOM      5  C   UNL     1       1.200   8.614  19.873  0.00  0.00    +0.000 C 
ATOM      6  C   UNL     1       1.917   7.470  19.141  0.00  0.00    +0.000 C 
ENDROOT
BRANCH   1  11
ATOM      7  O   UNL     1       6.220   4.147  17.536  0.00  0.00    +0.000 OA
ATOM      8  S   UNL     1       5.476   5.097  18.332  0.00  0.00    +0.000 S 
ATOM      9  O   UNL     1       5.965   5.592  19.600  0.00  0.00    +0.000 OA
ATOM     10  C   UNL     1       5.038   6.479  17.308  0.00  0.00    +0.000 C 
ATOM     11  C   UNL     1       3.524   6.701  17.449  0.00  0.00    +0.000 C 
ATOM     12  C   UNL     1       2.927   5.290  17.760  0.00  0.00    +0.000 C 
ATOM     13  N   UNL     1       3.914   4.497  18.521  0.00  0.00    +0.000 NA
BRANCH  13  14
ATOM     14  C   UNL     1       3.446   3.835  19.751  0.00  0.00    +0.000 C 
ATOM     15  C   UNL     1       2.572   4.695  20.660  0.00  0.00    +0.000 C 
ATOM     16  C   UNL     1       1.843   3.671  21.523  0.00  0.00    +0.000 C 
ATOM     17  C   UNL     1       1.616   2.469  20.616  0.00  0.00    +0.000 C 
ATOM     18  C   UNL     1       2.621   2.582  19.472  0.00  0.00    +0.000 C 
ENDBRANCH  13  14
ENDBRANCH   1  11
BRANCH   4  19
ATOM     19  C   UNL     1      -0.278   9.421  17.972  0.00  0.00    +0.000 C 
BRANCH  19  20
ATOM     20  C   UNL     1      -1.556  10.220  18.111  0.00  0.00    +0.000 A 
ATOM     21  C   UNL     1      -2.696   9.864  17.371  0.00  0.00    +0.000 A 
ATOM     22  C   UNL     1      -3.892  10.566  17.523  0.00  0.00    +0.000 A 
ATOM     23  C   UNL     1      -3.969  11.629  18.419  0.00  0.00    +0.000 A 
ATOM     24  C   UNL     1      -2.846  11.990  19.163  0.00  0.00    +0.000 A 
ATOM     25  C   UNL     1      -1.648  11.289  19.013  0.00  0.00    +0.000 A 
ENDBRANCH  19  20
ENDBRANCH   4  19
TORSDOF 4
ENDMDL
MODEL 6
REMARK VINA RESULT:      -7.0      2.743      5.472
REMARK  Name = 
REMARK  4 active torsions:
REMARK  status: ('A' for Active; 'I' for Inactive)
REMARK    1  A    between atoms: C_5  and  N_6
REMARK    2  A    between atoms: C_9  and  C_10
REMARK    3  A    between atoms: C_10  and  C_11
REMARK    4  A    between atoms: N_20  and  C_21
REMARK                            x       y       z     vdW  Elec       q    Type
REMARK                         _______ _______ _______ _____ _____    ______ ____
ROOT
ATOM      1  N   UNL     1       2.866   7.995  18.377  0.00  0.00    +0.000 NA
ATOM      2  C   UNL     1       2.507   9.102  17.458  0.00  0.00    +0.000 C 
ATOM      3  C   UNL     1       2.017  10.373  18.158  0.00  0.00    +0.000 C 
ATOM      4  C   UNL     1       0.810  10.107  19.060  0.00  0.00    +0.000 C 
ATOM      5  C   UNL     1       1.246   9.034  20.064  0.00  0.00    +0.000 C 
ATOM      6  C   UNL     1       1.811   7.775  19.392  0.00  0.00    +0.000 C 
ENDROOT
BRANCH   1  11
ATOM      7  O   UNL     1       5.596   3.952  17.784  0.00  0.00    +0.000 OA
ATOM      8  S   UNL     1       5.000   5.045  18.521  0.00  0.00    +0.000 S 
ATOM      9  O   UNL     1       5.627   5.619  19.691  0.00  0.00    +0.000 OA
ATOM     10  C   UNL     1       4.603   6.349  17.385  0.00  0.00    +0.000 C 
ATOM     11  C   UNL     1       3.129   6.725  17.604  0.00  0.00    +0.000 C 
ATOM     12  C   UNL     1       2.440   5.415  18.107  0.00  0.00    +0.000 C 
ATOM     13  N   UNL     1       3.412   4.616  18.880  0.00  0.00    +0.000 NA
BRANCH  13  14
ATOM     14  C   UNL     1       2.987   4.129  20.204  0.00  0.00    +0.000 C 
ATOM     15  C   UNL     1       1.479   4.129  20.443  0.00  0.00    +0.000 C 
ATOM     16  C   UNL     1       1.302   3.150  21.598  0.00  0.00    +0.000 C 
ATOM     17  C   UNL     1       2.371   2.084  21.389  0.00  0.00    +0.000 C 
ATOM     18  C   UNL     1       3.435   2.697  20.481  0.00  0.00    +0.000 C 
ENDBRANCH  13  14
ENDBRANCH   1  11
BRANCH   4  19
ATOM     19  C   UNL     1      -0.466   9.677  18.302  0.00  0.00    +0.000 C 
BRANCH  19  20
ATOM     20  C   UNL     1      -1.699  10.517  18.559  0.00  0.00    +0.000 A 
ATOM     21  C   UNL     1      -1.671  11.533  19.528  0.00  0.00    +0.000 A 
ATOM     22  C   UNL     1      -2.787  12.344  19.742  0.00  0.00    +0.000 A 
ATOM     23  C   UNL     1      -3.943  12.153  18.990  0.00  0.00    +0.000 A 
ATOM     24  C   UNL     1      -3.982  11.151  18.022  0.00  0.00    +0.000 A 
ATOM     25  C   UNL     1      -2.866  10.340  17.805  0.00  0.00    +0.000 A 
ENDBRANCH  19  20
ENDBRANCH   4  19
TORSDOF 4
ENDMDL
MODEL 7
REMARK VINA RESULT:      -7.0      5.039      7.949
REMARK  Name = 
REMARK  4 active torsions:
REMARK  status: ('A' for Active; 'I' for Inactive)
REMARK    1  A    between atoms: C_5  and  N_6
REMARK    2  A    between atoms: C_9  and  C_10
REMARK    3  A    between atoms: C_10  and  C_11
REMARK    4  A    between atoms: N_20  and  C_21
REMARK                            x       y       z     vdW  Elec       q    Type
REMARK                         _______ _______ _______ _____ _____    ______ ____
ROOT
ATOM      1  N   UNL     1       1.345   9.473  19.118  0.00  0.00    +0.000 NA
ATOM      2  C   UNL     1       1.211   8.285  19.996  0.00  0.00    +0.000 C 
ATOM      3  C   UNL     1       2.427   7.354  19.992  0.00  0.00    +0.000 C 
ATOM      4  C   UNL     1       2.770   6.857  18.586  0.00  0.00    +0.000 C 
ATOM      5  C   UNL     1       3.005   8.106  17.730  0.00  0.00    +0.000 C 
ATOM      6  C   UNL     1       1.832   9.095  17.772  0.00  0.00    +0.000 C 
ENDROOT
BRANCH   1  11
ATOM      7  O   UNL     1      -2.051  12.278  21.297  0.00  0.00    +0.000 OA
ATOM      8  S   UNL     1      -0.725  11.743  21.079  0.00  0.00    +0.000 S 
ATOM      9  O   UNL     1       0.244  11.623  22.144  0.00  0.00    +0.000 OA
ATOM     10  C   UNL     1      -0.872  10.175  20.259  0.00  0.00    +0.000 C 
ATOM     11  C   UNL     1       0.033  10.213  19.017  0.00  0.00    +0.000 C 
ATOM     12  C   UNL     1       0.078  11.714  18.585  0.00  0.00    +0.000 C 
ATOM     13  N   UNL     1      -0.044  12.572  19.781  0.00  0.00    +0.000 NA
BRANCH  13  14
ATOM     14  C   UNL     1       0.945  13.651  19.942  0.00  0.00    +0.000 C 
ATOM     15  C   UNL     1       2.400  13.237  19.738  0.00  0.00    +0.000 C 
ATOM     16  C   UNL     1       3.110  14.556  19.455  0.00  0.00    +0.000 C 
ATOM     17  C   UNL     1       2.100  15.399  18.686  0.00  0.00    +0.000 C 
ATOM     18  C   UNL     1       0.721  14.811  18.976  0.00  0.00    +0.000 C 
ENDBRANCH  13  14
ENDBRANCH   1  11
BRANCH   4  19
ATOM     19  C   UNL     1       1.696   5.943  17.957  0.00  0.00    +0.000 C 
BRANCH  19  20
ATOM     20  C   UNL     1       1.788   4.475  18.317  0.00  0.00    +0.000 A 
ATOM     21  C   UNL     1       2.489   3.586  17.486  0.00  0.00    +0.000 A 
ATOM     22  C   UNL     1       2.618   2.240  17.831  0.00  0.00    +0.000 A 
ATOM     23  C   UNL     1       2.054   1.765  19.012  0.00  0.00    +0.000 A 
ATOM     24  C   UNL     1       1.358   2.637  19.848  0.00  0.00    +0.000 A 
ATOM     25  C   UNL     1       1.229   3.985  19.505  0.00  0.00    +0.000 A 
ENDBRANCH  19  20
ENDBRANCH   4  19
TORSDOF 4
ENDMDL
MODEL 8
REMARK VINA RESULT:      -6.9      2.100      3.909
REMARK  Name = 
REMARK  4 active torsions:
REMARK  status: ('A' for Active; 'I' for Inactive)
REMARK    1  A    between atoms: C_5  and  N_6
REMARK    2  A    between atoms: C_9  and  C_10
REMARK    3  A    between atoms: C_10  and  C_11
REMARK    4  A    between atoms: N_20  and  C_21
REMARK                            x       y       z     vdW  Elec       q    Type
REMARK                         _______ _______ _______ _____ _____    ______ ____
ROOT
ATOM      1  N   UNL     1       4.460   3.817  17.902  0.00  0.00    +0.000 NA
ATOM      2  C   UNL     1       4.153   3.876  19.352  0.00  0.00    +0.000 C 
ATOM      3  C   UNL     1       3.567   2.584  19.929  0.00  0.00    +0.000 C 
ATOM      4  C   UNL     1       2.294   2.151  19.201  0.00  0.00    +0.000 C 
ATOM      5  C   UNL     1       2.669   1.997  17.723  0.00  0.00    +0.000 C 
ATOM      6  C   UNL     1       3.326   3.254  17.134  0.00  0.00    +0.000 C 
ENDROOT
BRANCH   1  11
ATOM      7  O   UNL     1       7.973   6.967  16.530  0.00  0.00    +0.000 OA
ATOM      8  S   UNL     1       7.384   5.666  16.756  0.00  0.00    +0.000 S 
ATOM      9  O   UNL     1       8.180   4.503  17.077  0.00  0.00    +0.000 OA
ATOM     10  C   UNL     1       6.093   5.827  17.963  0.00  0.00    +0.000 C 
ATOM     11  C   UNL     1       4.825   5.185  17.378  0.00  0.00    +0.000 C 
ATOM     12  C   UNL     1       4.952   5.358  15.829  0.00  0.00    +0.000 C 
ATOM     13  N   UNL     1       6.379   5.323  15.448  0.00  0.00    +0.000 NA
BRANCH  13  14
ATOM     14  C   UNL     1       6.764   4.422  14.349  0.00  0.00    +0.000 C 
ATOM     15  C   UNL     1       5.601   3.799  13.581  0.00  0.00    +0.000 C 
ATOM     16  C   UNL     1       6.234   3.370  12.262  0.00  0.00    +0.000 C 
ATOM     17  C   UNL     1       7.296   4.422  11.966  0.00  0.00    +0.000 C 
ATOM     18  C   UNL     1       7.619   5.111  13.289  0.00  0.00    +0.000 C 
ENDBRANCH  13  14
ENDBRANCH   1  11
BRANCH   4  19
ATOM     19  C   UNL     1       1.102   3.119  19.376  0.00  0.00    +0.000 C 
BRANCH  19  20
ATOM     20  C   UNL     1       1.460   4.582  19.524  0.00  0.00    +0.000 A 
ATOM     21  C   UNL     1       1.586   5.396  18.386  0.00  0.00    +0.000 A 
ATOM     22  C   UNL     1       1.872   6.757  18.512  0.00  0.00    +0.000 A 
ATOM     23  C   UNL     1       2.031   7.323  19.774  0.00  0.00    +0.000 A 
ATOM     24  C   UNL     1       1.904   6.527  20.911  0.00  0.00    +0.000 A 
ATOM     25  C   UNL     1       1.617   5.166  20.788  0.00  0.00    +0.000 A 
ENDBRANCH  19  20
ENDBRANCH   4  19
TORSDOF 4
ENDMDL
MODEL 9
REMARK VINA RESULT:      -6.9      2.680      6.049
REMARK  Name = 
REMARK  4 active torsions:
REMARK  status: ('A' for Active; 'I' for Inactive)
REMARK    1  A    between atoms: C_5  and  N_6
REMARK    2  A    between atoms: C_9  and  C_10
REMARK    3  A    between atoms: C_10  and  C_11
REMARK    4  A    between atoms: N_20  and  C_21
REMARK                            x       y       z     vdW  Elec       q    Type
REMARK                         _______ _______ _______ _____ _____    ______ ____
ROOT
ATOM      1  N   UNL     1       5.284   4.143  18.176  0.00  0.00    +0.000 NA
ATOM      2  C   UNL     1       6.022   4.445  16.925  0.00  0.00    +0.000 C 
ATOM      3  C   UNL     1       7.493   4.819  17.131  0.00  0.00    +0.000 C 
ATOM      4  C   UNL     1       7.659   6.015  18.069  0.00  0.00    +0.000 C 
ATOM      5  C   UNL     1       6.978   5.632  19.387  0.00  0.00    +0.000 C 
ATOM      6  C   UNL     1       5.521   5.182  19.204  0.00  0.00    +0.000 C 
ENDROOT
BRANCH   1  11
ATOM      7  O   UNL     1       0.717   3.807  19.957  0.00  0.00    +0.000 OA
ATOM      8  S   UNL     1       2.108   4.203  19.960  0.00  0.00    +0.000 S 
ATOM      9  O   UNL     1       2.858   4.376  21.184  0.00  0.00    +0.000 OA
ATOM     10  C   UNL     1       3.011   3.121  18.882  0.00  0.00    +0.000 C 
ATOM     11  C   UNL     1       3.807   3.998  17.902  0.00  0.00    +0.000 C 
ATOM     12  C   UNL     1       2.967   5.307  17.745  0.00  0.00    +0.000 C 
ATOM     13  N   UNL     1       2.251   5.584  19.007  0.00  0.00    +0.000 NA
BRANCH  13  14
ATOM     14  C   UNL     1       2.364   6.943  19.564  0.00  0.00    +0.000 C 
ATOM     15  C   UNL     1       2.101   8.076  18.576  0.00  0.00    +0.000 C 
ATOM     16  C   UNL     1       1.780   9.265  19.475  0.00  0.00    +0.000 C 
ATOM     17  C   UNL     1       1.049   8.676  20.675  0.00  0.00    +0.000 C 
ATOM     18  C   UNL     1       1.400   7.191  20.722  0.00  0.00    +0.000 C 
ENDBRANCH  13  14
ENDBRANCH   1  11
BRANCH   4  19
ATOM     19  C   UNL     1       7.093   7.341  17.513  0.00  0.00    +0.000 C 
BRANCH  19  20
ATOM     20  C   UNL     1       7.843   8.595  17.909  0.00  0.00    +0.000 A 
ATOM     21  C   UNL     1       7.548   9.820  17.290  0.00  0.00    +0.000 A 
ATOM     22  C   UNL     1       8.201  10.991  17.679  0.00  0.00    +0.000 A 
ATOM     23  C   UNL     1       9.155  10.953  18.693  0.00  0.00    +0.000 A 
ATOM     24  C   UNL     1       9.455   9.744  19.318  0.00  0.00    +0.000 A 
ATOM     25  C   UNL     1       8.801   8.573  18.932  0.00  0.00    +0.000 A 
ENDBRANCH  19  20
ENDBRANCH   4  19
TORSDOF 4
ENDMDL
