MODEL 1
REMARK VINA RESULT:      -7.6      0.000      0.000
REMARK  Name = 
REMARK  10 active torsions:
REMARK  status: ('A' for Active; 'I' for Inactive)
REMARK    1  A    between atoms: C_1  and  C_2
REMARK    2  A    between atoms: C_4  and  C_5
REMARK    3  A    between atoms: C_5  and  C_6
REMARK    4  A    between atoms: C_6  and  C_7
REMARK    5  A    between atoms: C_7  and  C_8
REMARK    6  A    between atoms: C_8  and  C_9
REMARK    7  A    between atoms: C_9  and  O_10
REMARK    8  A    between atoms: O_10  and  C_11
REMARK    9  A    between atoms: C_15  and  C_16
REMARK   10  A    between atoms: C_22  and  C_23
REMARK                            x       y       z     vdW  Elec       q    Type
REMARK                         _______ _______ _______ _____ _____    ______ ____
ROOT
ATOM      1  C   UNL     1       6.482   5.354  17.363  0.00  0.00    +0.000 A 
ATOM      2  C   UNL     1       6.236   5.016  18.712  0.00  0.00    +0.000 A 
ATOM      3 CL   UNL     1       7.202   5.437  20.087  0.00  0.00    +0.000 Cl
ATOM      4  C   UNL     1       5.086   4.316  19.067  0.00  0.00    +0.000 A 
ATOM      5  C   UNL     1       4.141   3.946  18.117  0.00  0.00    +0.000 A 
ATOM      6  C   UNL     1       4.363   4.270  16.780  0.00  0.00    +0.000 A 
ATOM      7  C   UNL     1       5.526   4.980  16.387  0.00  0.00    +0.000 A 
ENDROOT
BRANCH   5   8
ATOM      8  C   UNL     1       2.932   3.269  18.604  0.00  0.00    +0.000 C 
ATOM      9  N   UNL     1       1.991   2.811  17.842  0.00  0.00    +0.000 NA
ATOM     10  C   UNL     1       1.017   2.257  18.778  0.00  0.00    +0.000 C 
ATOM     11  C   UNL     1       1.678   2.333  20.136  0.00  0.00    +0.000 C 
ATOM     12  O   UNL     1       2.843   3.125  19.942  0.00  0.00    +0.000 OA
ENDBRANCH   5   8
BRANCH   7  13
ATOM     13  C   UNL     1       5.662   5.292  14.910  0.00  0.00    +0.000 C 
ATOM     14  F   UNL     1       6.919   5.304  14.395  0.00  0.00    +0.000 F 
ATOM     15  F   UNL     1       4.964   4.399  14.146  0.00  0.00    +0.000 F 
ATOM     16  F   UNL     1       5.130   6.513  14.605  0.00  0.00    +0.000 F 
ENDBRANCH   7  13
BRANCH   1  17
ATOM     17  O   UNL     1       7.535   6.092  16.877  0.00  0.00    +0.000 OA
BRANCH  17  18
ATOM     18  C   UNL     1       7.472   7.512  16.981  0.00  0.00    +0.000 C 
BRANCH  18  19
ATOM     19  C   UNL     1       8.226   8.000  18.212  0.00  0.00    +0.000 C 
BRANCH  19  20
ATOM     20  C   UNL     1       8.402   9.519  18.130  0.00  0.00    +0.000 C 
BRANCH  20  21
ATOM     21  C   UNL     1       9.488  10.003  19.079  0.00  0.00    +0.000 C 
BRANCH  21  22
ATOM     22  C   UNL     1       9.110  11.328  19.743  0.00  0.00    +0.000 C 
BRANCH  22  26
ATOM     23  C   UNL     1      11.278  15.007  16.959  0.00  0.00    +0.000 C 
ATOM     24  C   UNL     1      10.877  14.016  17.981  0.00  0.00    +0.000 A 
ATOM     25  C   UNL     1       9.759  13.152  17.971  0.00  0.00    +0.000 A 
ATOM     26  C   UNL     1       9.879  12.436  19.136  0.00  0.00    +0.000 A 
ATOM     27  O   UNL     1      10.985  12.851  19.808  0.00  0.00    +0.000 OA
ATOM     28  N   UNL     1      11.616  13.846  19.083  0.00  0.00    +0.000 NA
ENDBRANCH  22  26
ENDBRANCH  21  22
ENDBRANCH  20  21
ENDBRANCH  19  20
ENDBRANCH  18  19
ENDBRANCH  17  18
ENDBRANCH   1  17
TORSDOF 9
ENDMDL
MODEL 2
REMARK VINA RESULT:      -7.6      5.482      7.599
REMARK  Name = 
REMARK  10 active torsions:
REMARK  status: ('A' for Active; 'I' for Inactive)
REMARK    1  A    between atoms: C_1  and  C_2
REMARK    2  A    between atoms: C_4  and  C_5
REMARK    3  A    between atoms: C_5  and  C_6
REMARK    4  A    between atoms: C_6  and  C_7
REMARK    5  A    between atoms: C_7  and  C_8
REMARK    6  A    between atoms: C_8  and  C_9
REMARK    7  A    between atoms: C_9  and  O_10
REMARK    8  A    between atoms: O_10  and  C_11
REMARK    9  A    between atoms: C_15  and  C_16
REMARK   10  A    between atoms: C_22  and  C_23
REMARK                            x       y       z     vdW  Elec       q    Type
REMARK                         _______ _______ _______ _____ _____    ______ ____
ROOT
ATOM      1  C   UNL     1       5.280   4.533  18.083  0.00  0.00    +0.000 A 
ATOM      2  C   UNL     1       4.494   4.023  17.027  0.00  0.00    +0.000 A 
ATOM      3 CL   UNL     1       2.861   3.452  17.120  0.00  0.00    +0.000 Cl
ATOM      4  C   UNL     1       4.992   3.993  15.726  0.00  0.00    +0.000 A 
ATOM      5  C   UNL     1       6.259   4.476  15.425  0.00  0.00    +0.000 A 
ATOM      6  C   UNL     1       7.053   4.984  16.453  0.00  0.00    +0.000 A 
ATOM      7  C   UNL     1       6.575   5.026  17.787  0.00  0.00    +0.000 A 
ENDROOT
BRANCH   5   8
ATOM      8  C   UNL     1       6.665   4.459  14.013  0.00  0.00    +0.000 C 
ATOM      9  N   UNL     1       7.524   5.272  13.487  0.00  0.00    +0.000 NA
ATOM     10  C   UNL     1       7.570   4.876  12.082  0.00  0.00    +0.000 C 
ATOM     11  C   UNL     1       6.740   3.615  11.993  0.00  0.00    +0.000 C 
ATOM     12  O   UNL     1       6.087   3.508  13.252  0.00  0.00    +0.000 OA
ENDBRANCH   5   8
BRANCH   7  13
ATOM     13  C   UNL     1       7.512   5.609  18.824  0.00  0.00    +0.000 C 
ATOM     14  F   UNL     1       7.921   6.891  18.635  0.00  0.00    +0.000 F 
ATOM     15  F   UNL     1       6.951   5.587  20.071  0.00  0.00    +0.000 F 
ATOM     16  F   UNL     1       8.657   4.872  18.936  0.00  0.00    +0.000 F 
ENDBRANCH   7  13
BRANCH   1  17
ATOM     17  O   UNL     1       4.899   4.682  19.395  0.00  0.00    +0.000 OA
BRANCH  17  18
ATOM     18  C   UNL     1       3.834   5.581  19.694  0.00  0.00    +0.000 C 
BRANCH  18  19
ATOM     19  C   UNL     1       2.739   4.881  20.489  0.00  0.00    +0.000 C 
BRANCH  19  20
ATOM     20  C   UNL     1       1.549   5.830  20.657  0.00  0.00    +0.000 C 
BRANCH  20  21
ATOM     21  C   UNL     1       1.920   7.257  20.282  0.00  0.00    +0.000 C 
BRANCH  21  22
ATOM     22  C   UNL     1       1.266   8.276  21.216  0.00  0.00    +0.000 C 
BRANCH  22  26
ATOM     23  C   UNL     1      -1.648  11.915  19.153  0.00  0.00    +0.000 C 
ATOM     24  C   UNL     1      -0.655  10.864  19.464  0.00  0.00    +0.000 A 
ATOM     25  C   UNL     1      -0.431  10.210  20.696  0.00  0.00    +0.000 A 
ATOM     26  C   UNL     1       0.577   9.319  20.424  0.00  0.00    +0.000 A 
ATOM     27  O   UNL     1       0.944   9.438  19.121  0.00  0.00    +0.000 OA
ATOM     28  N   UNL     1       0.169  10.410  18.514  0.00  0.00    +0.000 NA
ENDBRANCH  22  26
ENDBRANCH  21  22
ENDBRANCH  20  21
ENDBRANCH  19  20
ENDBRANCH  18  19
ENDBRANCH  17  18
ENDBRANCH   1  17
TORSDOF 9
ENDMDL
MODEL 3
REMARK VINA RESULT:      -7.6      5.563      7.254
REMARK  Name = 
REMARK  10 active torsions:
REMARK  status: ('A' for Active; 'I' for Inactive)
REMARK    1  A    between atoms: C_1  and  C_2
REMARK    2  A    between atoms: C_4  and  C_5
REMARK    3  A    between atoms: C_5  and  C_6
REMARK    4  A    between atoms: C_6  and  C_7
REMARK    5  A    between atoms: C_7  and  C_8
REMARK    6  A    between atoms: C_8  and  C_9
REMARK    7  A    between atoms: C_9  and  O_10
REMARK    8  A    between atoms: O_10  and  C_11
REMARK    9  A    between atoms: C_15  and  C_16
REMARK   10  A    between atoms: C_22  and  C_23
REMARK                            x       y       z     vdW  Elec       q    Type
REMARK                         _______ _______ _______ _____ _____    ______ ____
ROOT
ATOM      1  C   UNL     1       5.181   4.475  18.145  0.00  0.00    +0.000 A 
ATOM      2  C   UNL     1       6.473   4.959  17.846  0.00  0.00    +0.000 A 
ATOM      3 CL   UNL     1       7.680   5.486  18.973  0.00  0.00    +0.000 Cl
ATOM      4  C   UNL     1       6.925   4.999  16.529  0.00  0.00    +0.000 A 
ATOM      5  C   UNL     1       6.135   4.551  15.478  0.00  0.00    +0.000 A 
ATOM      6  C   UNL     1       4.856   4.068  15.751  0.00  0.00    +0.000 A 
ATOM      7  C   UNL     1       4.366   4.017  17.081  0.00  0.00    +0.000 A 
ENDROOT
BRANCH   5   8
ATOM      8  C   UNL     1       6.729   4.575  14.135  0.00  0.00    +0.000 C 
ATOM      9  N   UNL     1       6.362   3.810  13.157  0.00  0.00    +0.000 NA
ATOM     10  C   UNL     1       7.247   4.190  12.060  0.00  0.00    +0.000 C 
ATOM     11  C   UNL     1       8.011   5.396  12.561  0.00  0.00    +0.000 C 
ATOM     12  O   UNL     1       7.712   5.478  13.949  0.00  0.00    +0.000 OA
ENDBRANCH   5   8
BRANCH   7  13
ATOM     13  C   UNL     1       2.969   3.462  17.268  0.00  0.00    +0.000 C 
ATOM     14  F   UNL     1       1.987   4.351  17.573  0.00  0.00    +0.000 F 
ATOM     15  F   UNL     1       2.536   2.815  16.144  0.00  0.00    +0.000 F 
ATOM     16  F   UNL     1       2.931   2.521  18.257  0.00  0.00    +0.000 F 
ENDBRANCH   7  13
BRANCH   1  17
ATOM     17  O   UNL     1       4.629   4.319  19.395  0.00  0.00    +0.000 OA
BRANCH  17  18
ATOM     18  C   UNL     1       3.826   5.374  19.917  0.00  0.00    +0.000 C 
BRANCH  18  19
ATOM     19  C   UNL     1       2.687   4.822  20.765  0.00  0.00    +0.000 C 
BRANCH  19  20
ATOM     20  C   UNL     1       1.444   5.696  20.576  0.00  0.00    +0.000 C 
BRANCH  20  21
ATOM     21  C   UNL     1       1.821   7.118  20.189  0.00  0.00    +0.000 C 
BRANCH  21  22
ATOM     22  C   UNL     1       1.204   8.146  21.139  0.00  0.00    +0.000 C 
BRANCH  22  26
ATOM     23  C   UNL     1      -0.365  12.631  19.293  0.00  0.00    +0.000 C 
ATOM     24  C   UNL     1       0.215  11.292  19.533  0.00  0.00    +0.000 A 
ATOM     25  C   UNL     1       0.260  10.563  20.742  0.00  0.00    +0.000 A 
ATOM     26  C   UNL     1       0.880   9.387  20.401  0.00  0.00    +0.000 A 
ATOM     27  O   UNL     1       1.200   9.413  19.080  0.00  0.00    +0.000 OA
ATOM     28  N   UNL     1       0.782  10.611  18.531  0.00  0.00    +0.000 NA
ENDBRANCH  22  26
ENDBRANCH  21  22
ENDBRANCH  20  21
ENDBRANCH  19  20
ENDBRANCH  18  19
ENDBRANCH  17  18
ENDBRANCH   1  17
TORSDOF 9
ENDMDL
MODEL 4
REMARK VINA RESULT:      -7.5      4.335      5.064
REMARK  Name = 
REMARK  10 active torsions:
REMARK  status: ('A' for Active; 'I' for Inactive)
REMARK    1  A    between atoms: C_1  and  C_2
REMARK    2  A    between atoms: C_4  and  C_5
REMARK    3  A    between atoms: C_5  and  C_6
REMARK    4  A    between atoms: C_6  and  C_7
REMARK    5  A    between atoms: C_7  and  C_8
REMARK    6  A    between atoms: C_8  and  C_9
REMARK    7  A    between atoms: C_9  and  O_10
REMARK    8  A    between atoms: O_10  and  C_11
REMARK    9  A    between atoms: C_15  and  C_16
REMARK   10  A    between atoms: C_22  and  C_23
REMARK                            x       y       z     vdW  Elec       q    Type
REMARK                         _______ _______ _______ _____ _____    ______ ____
ROOT
ATOM      1  C   UNL     1       3.849   5.547  18.082  0.00  0.00    +0.000 A 
ATOM      2  C   UNL     1       3.952   6.691  17.261  0.00  0.00    +0.000 A 
ATOM      3 CL   UNL     1       4.847   6.842  15.785  0.00  0.00    +0.000 Cl
ATOM      4  C   UNL     1       3.243   7.849  17.571  0.00  0.00    +0.000 A 
ATOM      5  C   UNL     1       2.405   7.911  18.678  0.00  0.00    +0.000 A 
ATOM      6  C   UNL     1       2.289   6.792  19.502  0.00  0.00    +0.000 A 
ATOM      7  C   UNL     1       2.999   5.599  19.213  0.00  0.00    +0.000 A 
ENDROOT
BRANCH   5   8
ATOM      8  C   UNL     1       1.652   9.155  18.880  0.00  0.00    +0.000 C 
ATOM      9  N   UNL     1       1.747  10.202  18.124  0.00  0.00    +0.000 NA
ATOM     10  C   UNL     1       0.836  11.164  18.735  0.00  0.00    +0.000 C 
ATOM     11  C   UNL     1       0.113  10.398  19.821  0.00  0.00    +0.000 C 
ATOM     12  O   UNL     1       0.806   9.160  19.930  0.00  0.00    +0.000 OA
ENDBRANCH   5   8
BRANCH   7  13
ATOM     13  C   UNL     1       2.791   4.440  20.166  0.00  0.00    +0.000 C 
ATOM     14  F   UNL     1       3.874   3.669  20.447  0.00  0.00    +0.000 F 
ATOM     15  F   UNL     1       2.325   4.868  21.377  0.00  0.00    +0.000 F 
ATOM     16  F   UNL     1       1.838   3.577  19.704  0.00  0.00    +0.000 F 
ENDBRANCH   7  13
BRANCH   1  17
ATOM     17  O   UNL     1       4.436   4.323  17.866  0.00  0.00    +0.000 OA
BRANCH  17  18
ATOM     18  C   UNL     1       5.857   4.262  17.761  0.00  0.00    +0.000 C 
BRANCH  18  19
ATOM     19  C   UNL     1       6.512   5.322  18.637  0.00  0.00    +0.000 C 
BRANCH  19  20
ATOM     20  C   UNL     1       7.610   6.032  17.840  0.00  0.00    +0.000 C 
BRANCH  20  21
ATOM     21  C   UNL     1       8.084   7.291  18.549  0.00  0.00    +0.000 C 
BRANCH  21  22
ATOM     22  C   UNL     1       7.809   8.546  17.720  0.00  0.00    +0.000 C 
BRANCH  22  26
ATOM     23  C   UNL     1      10.379  12.809  18.819  0.00  0.00    +0.000 C 
ATOM     24  C   UNL     1       9.706  11.492  18.804  0.00  0.00    +0.000 A 
ATOM     25  C   UNL     1       8.918  10.924  17.778  0.00  0.00    +0.000 A 
ATOM     26  C   UNL     1       8.566   9.692  18.270  0.00  0.00    +0.000 A 
ATOM     27  O   UNL     1       9.092   9.535  19.513  0.00  0.00    +0.000 OA
ATOM     28  N   UNL     1       9.811  10.668  19.852  0.00  0.00    +0.000 NA
ENDBRANCH  22  26
ENDBRANCH  21  22
ENDBRANCH  20  21
ENDBRANCH  19  20
ENDBRANCH  18  19
ENDBRANCH  17  18
ENDBRANCH   1  17
TORSDOF 9
ENDMDL
MODEL 5
REMARK VINA RESULT:      -7.5      0.806      1.081
REMARK  Name = 
REMARK  10 active torsions:
REMARK  status: ('A' for Active; 'I' for Inactive)
REMARK    1  A    between atoms: C_1  and  C_2
REMARK    2  A    between atoms: C_4  and  C_5
REMARK    3  A    between atoms: C_5  and  C_6
REMARK    4  A    between atoms: C_6  and  C_7
REMARK    5  A    between atoms: C_7  and  C_8
REMARK    6  A    between atoms: C_8  and  C_9
REMARK    7  A    between atoms: C_9  and  O_10
REMARK    8  A    between atoms: O_10  and  C_11
REMARK    9  A    between atoms: C_15  and  C_16
REMARK   10  A    between atoms: C_22  and  C_23
REMARK                            x       y       z     vdW  Elec       q    Type
REMARK                         _______ _______ _______ _____ _____    ______ ____
ROOT
ATOM      1  C   UNL     1       6.544   5.638  17.417  0.00  0.00    +0.000 A 
ATOM      2  C   UNL     1       6.454   5.225  18.764  0.00  0.00    +0.000 A 
ATOM      3 CL   UNL     1       7.513   5.660  20.065  0.00  0.00    +0.000 Cl
ATOM      4  C   UNL     1       5.397   4.422  19.188  0.00  0.00    +0.000 A 
ATOM      5  C   UNL     1       4.397   4.021  18.311  0.00  0.00    +0.000 A 
ATOM      6  C   UNL     1       4.466   4.419  16.977  0.00  0.00    +0.000 A 
ATOM      7  C   UNL     1       5.531   5.234  16.515  0.00  0.00    +0.000 A 
ENDROOT
BRANCH   5   8
ATOM      8  C   UNL     1       3.293   3.231  18.871  0.00  0.00    +0.000 C 
ATOM      9  N   UNL     1       2.881   2.101  18.391  0.00  0.00    +0.000 NA
ATOM     10  C   UNL     1       1.772   1.729  19.265  0.00  0.00    +0.000 C 
ATOM     11  C   UNL     1       1.785   2.746  20.384  0.00  0.00    +0.000 C 
ATOM     12  O   UNL     1       2.704   3.748  19.969  0.00  0.00    +0.000 OA
ENDBRANCH   5   8
BRANCH   7  13
ATOM     13  C   UNL     1       5.502   5.619  15.050  0.00  0.00    +0.000 C 
ATOM     14  F   UNL     1       5.029   6.856  14.746  0.00  0.00    +0.000 F 
ATOM     15  F   UNL     1       6.751   5.562  14.497  0.00  0.00    +0.000 F 
ATOM     16  F   UNL     1       4.748   4.748  14.317  0.00  0.00    +0.000 F 
ENDBRANCH   7  13
BRANCH   1  17
ATOM     17  O   UNL     1       7.489   6.477  16.875  0.00  0.00    +0.000 OA
BRANCH  17  18
ATOM     18  C   UNL     1       7.363   7.878  17.104  0.00  0.00    +0.000 C 
BRANCH  18  19
ATOM     19  C   UNL     1       8.403   8.360  18.109  0.00  0.00    +0.000 C 
BRANCH  19  20
ATOM     20  C   UNL     1       8.410   9.891  18.136  0.00  0.00    +0.000 C 
BRANCH  20  21
ATOM     21  C   UNL     1       9.243  10.421  19.293  0.00  0.00    +0.000 C 
BRANCH  21  22
ATOM     22  C   UNL     1      10.534  11.080  18.806  0.00  0.00    +0.000 C 
BRANCH  22  26
ATOM     23  C   UNL     1      10.255  15.957  17.350  0.00  0.00    +0.000 C 
ATOM     24  C   UNL     1      10.179  14.648  18.033  0.00  0.00    +0.000 A 
ATOM     25  C   UNL     1      10.583  13.383  17.549  0.00  0.00    +0.000 A 
ATOM     26  C   UNL     1      10.313  12.526  18.586  0.00  0.00    +0.000 A 
ATOM     27  O   UNL     1       9.770  13.223  19.618  0.00  0.00    +0.000 OA
ATOM     28  N   UNL     1       9.684  14.560  19.273  0.00  0.00    +0.000 NA
ENDBRANCH  22  26
ENDBRANCH  21  22
ENDBRANCH  20  21
ENDBRANCH  19  20
ENDBRANCH  18  19
ENDBRANCH  17  18
ENDBRANCH   1  17
TORSDOF 9
ENDMDL
MODEL 6
REMARK VINA RESULT:      -7.4      5.324      7.161
REMARK  Name = 
REMARK  10 active torsions:
REMARK  status: ('A' for Active; 'I' for Inactive)
REMARK    1  A    between atoms: C_1  and  C_2
REMARK    2  A    between atoms: C_4  and  C_5
REMARK    3  A    between atoms: C_5  and  C_6
REMARK    4  A    between atoms: C_6  and  C_7
REMARK    5  A    between atoms: C_7  and  C_8
REMARK    6  A    between atoms: C_8  and  C_9
REMARK    7  A    between atoms: C_9  and  O_10
REMARK    8  A    between atoms: O_10  and  C_11
REMARK    9  A    between atoms: C_15  and  C_16
REMARK   10  A    between atoms: C_22  and  C_23
REMARK                            x       y       z     vdW  Elec       q    Type
REMARK                         _______ _______ _______ _____ _____    ______ ____
ROOT
ATOM      1  C   UNL     1       5.179   4.508  18.026  0.00  0.00    +0.000 A 
ATOM      2  C   UNL     1       4.429   4.005  16.941  0.00  0.00    +0.000 A 
ATOM      3 CL   UNL     1       2.792   3.438  16.975  0.00  0.00    +0.000 Cl
ATOM      4  C   UNL     1       4.973   3.978  15.658  0.00  0.00    +0.000 A 
ATOM      5  C   UNL     1       6.251   4.458  15.404  0.00  0.00    +0.000 A 
ATOM      6  C   UNL     1       7.009   4.960  16.461  0.00  0.00    +0.000 A 
ATOM      7  C   UNL     1       6.485   4.999  17.778  0.00  0.00    +0.000 A 
ENDROOT
BRANCH   5   8
ATOM      8  C   UNL     1       6.706   4.446  14.007  0.00  0.00    +0.000 C 
ATOM      9  N   UNL     1       6.318   3.590  13.117  0.00  0.00    +0.000 NA
ATOM     10  C   UNL     1       7.052   3.974  11.915  0.00  0.00    +0.000 C 
ATOM     11  C   UNL     1       7.745   5.272  12.265  0.00  0.00    +0.000 C 
ATOM     12  O   UNL     1       7.577   5.418  13.670  0.00  0.00    +0.000 OA
ENDBRANCH   5   8
BRANCH   7  13
ATOM     13  C   UNL     1       7.387   5.576  18.850  0.00  0.00    +0.000 C 
ATOM     14  F   UNL     1       8.565   4.938  19.074  0.00  0.00    +0.000 F 
ATOM     15  F   UNL     1       7.722   6.872  18.573  0.00  0.00    +0.000 F 
ATOM     16  F   UNL     1       6.758   5.622  20.062  0.00  0.00    +0.000 F 
ENDBRANCH   7  13
BRANCH   1  17
ATOM     17  O   UNL     1       4.753   4.654  19.325  0.00  0.00    +0.000 OA
BRANCH  17  18
ATOM     18  C   UNL     1       3.895   3.656  19.872  0.00  0.00    +0.000 C 
BRANCH  18  19
ATOM     19  C   UNL     1       2.979   4.251  20.935  0.00  0.00    +0.000 C 
BRANCH  19  20
ATOM     20  C   UNL     1       1.779   4.917  20.256  0.00  0.00    +0.000 C 
BRANCH  20  21
ATOM     21  C   UNL     1       1.941   6.428  20.202  0.00  0.00    +0.000 C 
BRANCH  21  22
ATOM     22  C   UNL     1       2.339   6.905  18.804  0.00  0.00    +0.000 C 
BRANCH  22  26
ATOM     23  C   UNL     1       0.621  11.704  18.879  0.00  0.00    +0.000 C 
ATOM     24  C   UNL     1       1.288  10.413  18.602  0.00  0.00    +0.000 A 
ATOM     25  C   UNL     1       1.232   9.220  19.356  0.00  0.00    +0.000 A 
ATOM     26  C   UNL     1       2.004   8.337  18.644  0.00  0.00    +0.000 A 
ATOM     27  O   UNL     1       2.504   8.960  17.544  0.00  0.00    +0.000 OA
ATOM     28  N   UNL     1       2.054  10.269  17.515  0.00  0.00    +0.000 NA
ENDBRANCH  22  26
ENDBRANCH  21  22
ENDBRANCH  20  21
ENDBRANCH  19  20
ENDBRANCH  18  19
ENDBRANCH  17  18
ENDBRANCH   1  17
TORSDOF 9
ENDMDL
MODEL 7
REMARK VINA RESULT:      -7.4      6.184      7.739
REMARK  Name = 
REMARK  10 active torsions:
REMARK  status: ('A' for Active; 'I' for Inactive)
REMARK    1  A    between atoms: C_1  and  C_2
REMARK    2  A    between atoms: C_4  and  C_5
REMARK    3  A    between atoms: C_5  and  C_6
REMARK    4  A    between atoms: C_6  and  C_7
REMARK    5  A    between atoms: C_7  and  C_8
REMARK    6  A    between atoms: C_8  and  C_9
REMARK    7  A    between atoms: C_9  and  O_10
REMARK    8  A    between atoms: O_10  and  C_11
REMARK    9  A    between atoms: C_15  and  C_16
REMARK   10  A    between atoms: C_22  and  C_23
REMARK                            x       y       z     vdW  Elec       q    Type
REMARK                         _______ _______ _______ _____ _____    ______ ____
ROOT
ATOM      1  C   UNL     1       2.115   6.449  19.642  0.00  0.00    +0.000 A 
ATOM      2  C   UNL     1       2.582   7.307  18.623  0.00  0.00    +0.000 A 
ATOM      3 CL   UNL     1       2.112   8.951  18.343  0.00  0.00    +0.000 Cl
ATOM      4  C   UNL     1       3.570   6.881  17.738  0.00  0.00    +0.000 A 
ATOM      5  C   UNL     1       4.135   5.616  17.839  0.00  0.00    +0.000 A 
ATOM      6  C   UNL     1       3.688   4.752  18.838  0.00  0.00    +0.000 A 
ATOM      7  C   UNL     1       2.683   5.157  19.753  0.00  0.00    +0.000 A 
ENDROOT
BRANCH   5   8
ATOM      8  C   UNL     1       5.214   5.287  16.898  0.00  0.00    +0.000 C 
ATOM      9  N   UNL     1       5.278   5.710  15.677  0.00  0.00    +0.000 NA
ATOM     10  C   UNL     1       6.500   5.106  15.156  0.00  0.00    +0.000 C 
ATOM     11  C   UNL     1       7.161   4.449  16.347  0.00  0.00    +0.000 C 
ATOM     12  O   UNL     1       6.192   4.498  17.387  0.00  0.00    +0.000 OA
ENDBRANCH   5   8
BRANCH   7  13
ATOM     13  C   UNL     1       2.281   4.146  20.808  0.00  0.00    +0.000 C 
ATOM     14  F   UNL     1       2.476   4.498  22.106  0.00  0.00    +0.000 F 
ATOM     15  F   UNL     1       0.955   3.828  20.712  0.00  0.00    +0.000 F 
ATOM     16  F   UNL     1       2.943   2.962  20.646  0.00  0.00    +0.000 F 
ENDBRANCH   7  13
BRANCH   1  17
ATOM     17  O   UNL     1       1.197   6.754  20.619  0.00  0.00    +0.000 OA
BRANCH  17  18
ATOM     18  C   UNL     1       1.352   7.976  21.336  0.00  0.00    +0.000 C 
BRANCH  18  19
ATOM     19  C   UNL     1      -0.004   8.598  21.649  0.00  0.00    +0.000 C 
BRANCH  19  20
ATOM     20  C   UNL     1       0.163   9.652  22.748  0.00  0.00    +0.000 C 
BRANCH  20  21
ATOM     21  C   UNL     1      -1.040  10.580  22.813  0.00  0.00    +0.000 C 
BRANCH  21  22
ATOM     22  C   UNL     1      -0.661  12.023  22.479  0.00  0.00    +0.000 C 
BRANCH  22  26
ATOM     23  C   UNL     1       2.233  12.650  18.329  0.00  0.00    +0.000 C 
ATOM     24  C   UNL     1       1.183  12.341  19.324  0.00  0.00    +0.000 A 
ATOM     25  C   UNL     1       1.241  12.480  20.729  0.00  0.00    +0.000 A 
ATOM     26  C   UNL     1       0.000  12.079  21.156  0.00  0.00    +0.000 A 
ATOM     27  O   UNL     1      -0.749  11.709  20.084  0.00  0.00    +0.000 OA
ATOM     28  N   UNL     1      -0.006  11.874  18.928  0.00  0.00    +0.000 NA
ENDBRANCH  22  26
ENDBRANCH  21  22
ENDBRANCH  20  21
ENDBRANCH  19  20
ENDBRANCH  18  19
ENDBRANCH  17  18
ENDBRANCH   1  17
TORSDOF 9
ENDMDL
MODEL 8
REMARK VINA RESULT:      -7.4      5.507      7.296
REMARK  Name = 
REMARK  10 active torsions:
REMARK  status: ('A' for Active; 'I' for Inactive)
REMARK    1  A    between atoms: C_1  and  C_2
REMARK    2  A    between atoms: C_4  and  C_5
REMARK    3  A    between atoms: C_5  and  C_6
REMARK    4  A    between atoms: C_6  and  C_7
REMARK    5  A    between atoms: C_7  and  C_8
REMARK    6  A    between atoms: C_8  and  C_9
REMARK    7  A    between atoms: C_9  and  O_10
REMARK    8  A    between atoms: O_10  and  C_11
REMARK    9  A    between atoms: C_15  and  C_16
REMARK   10  A    between atoms: C_22  and  C_23
REMARK                            x       y       z     vdW  Elec       q    Type
REMARK                         _______ _______ _______ _____ _____    ______ ____
ROOT
ATOM      1  C   UNL     1       4.647   5.221  17.852  0.00  0.00    +0.000 A 
ATOM      2  C   UNL     1       5.655   6.012  17.258  0.00  0.00    +0.000 A 
ATOM      3 CL   UNL     1       6.483   7.359  17.968  0.00  0.00    +0.000 Cl
ATOM      4  C   UNL     1       6.131   5.710  15.984  0.00  0.00    +0.000 A 
ATOM      5  C   UNL     1       5.648   4.620  15.270  0.00  0.00    +0.000 A 
ATOM      6  C   UNL     1       4.653   3.826  15.839  0.00  0.00    +0.000 A 
ATOM      7  C   UNL     1       4.146   4.109  17.132  0.00  0.00    +0.000 A 
ENDROOT
BRANCH   5   8
ATOM      8  C   UNL     1       6.262   4.349  13.964  0.00  0.00    +0.000 C 
ATOM      9  N   UNL     1       5.897   3.399  13.164  0.00  0.00    +0.000 NA
ATOM     10  C   UNL     1       6.805   3.525  12.028  0.00  0.00    +0.000 C 
ATOM     11  C   UNL     1       7.581   4.799  12.275  0.00  0.00    +0.000 C 
ATOM     12  O   UNL     1       7.263   5.179  13.608  0.00  0.00    +0.000 OA
ENDBRANCH   5   8
BRANCH   7  13
ATOM     13  C   UNL     1       3.077   3.175  17.661  0.00  0.00    +0.000 C 
ATOM     14  F   UNL     1       1.865   3.722  17.945  0.00  0.00    +0.000 F 
ATOM     15  F   UNL     1       2.821   2.163  16.779  0.00  0.00    +0.000 F 
ATOM     16  F   UNL     1       3.477   2.554  18.809  0.00  0.00    +0.000 F 
ENDBRANCH   7  13
BRANCH   1  17
ATOM     17  O   UNL     1       4.129   5.362  19.118  0.00  0.00    +0.000 OA
BRANCH  17  18
ATOM     18  C   UNL     1       3.228   6.438  19.366  0.00  0.00    +0.000 C 
BRANCH  18  19
ATOM     19  C   UNL     1       2.533   6.871  18.081  0.00  0.00    +0.000 C 
BRANCH  19  20
ATOM     20  C   UNL     1       2.629   8.393  17.941  0.00  0.00    +0.000 C 
BRANCH  20  21
ATOM     21  C   UNL     1       1.251   9.037  17.927  0.00  0.00    +0.000 C 
BRANCH  21  22
ATOM     22  C   UNL     1       1.306  10.501  18.364  0.00  0.00    +0.000 C 
BRANCH  22  26
ATOM     23  C   UNL     1      -0.766  10.284  23.016  0.00  0.00    +0.000 C 
ATOM     24  C   UNL     1      -0.018  10.609  21.783  0.00  0.00    +0.000 A 
ATOM     25  C   UNL     1       0.055   9.868  20.583  0.00  0.00    +0.000 A 
ATOM     26  C   UNL     1       0.856  10.628  19.768  0.00  0.00    +0.000 A 
ATOM     27  O   UNL     1       1.251  11.743  20.436  0.00  0.00    +0.000 OA
ATOM     28  N   UNL     1       0.702  11.734  21.706  0.00  0.00    +0.000 NA
ENDBRANCH  22  26
ENDBRANCH  21  22
ENDBRANCH  20  21
ENDBRANCH  19  20
ENDBRANCH  18  19
ENDBRANCH  17  18
ENDBRANCH   1  17
TORSDOF 9
ENDMDL
MODEL 9
REMARK VINA RESULT:      -7.4      6.418      8.597
REMARK  Name = 
REMARK  10 active torsions:
REMARK  status: ('A' for Active; 'I' for Inactive)
REMARK    1  A    between atoms: C_1  and  C_2
REMARK    2  A    between atoms: C_4  and  C_5
REMARK    3  A    between atoms: C_5  and  C_6
REMARK    4  A    between atoms: C_6  and  C_7
REMARK    5  A    between atoms: C_7  and  C_8
REMARK    6  A    between atoms: C_8  and  C_9
REMARK    7  A    between atoms: C_9  and  O_10
REMARK    8  A    between atoms: O_10  and  C_11
REMARK    9  A    between atoms: C_15  and  C_16
REMARK   10  A    between atoms: C_22  and  C_23
REMARK                            x       y       z     vdW  Elec       q    Type
REMARK                         _______ _______ _______ _____ _____    ______ ____
ROOT
ATOM      1  C   UNL     1       2.124   6.503  19.592  0.00  0.00    +0.000 A 
ATOM      2  C   UNL     1       2.572   7.375  18.575  0.00  0.00    +0.000 A 
ATOM      3 CL   UNL     1       2.222   9.064  18.416  0.00  0.00    +0.000 Cl
ATOM      4  C   UNL     1       3.437   6.917  17.583  0.00  0.00    +0.000 A 
ATOM      5  C   UNL     1       3.898   5.607  17.573  0.00  0.00    +0.000 A 
ATOM      6  C   UNL     1       3.469   4.730  18.568  0.00  0.00    +0.000 A 
ATOM      7  C   UNL     1       2.587   5.165  19.589  0.00  0.00    +0.000 A 
ENDROOT
BRANCH   5   8
ATOM      8  C   UNL     1       4.858   5.243  16.522  0.00  0.00    +0.000 C 
ATOM      9  N   UNL     1       5.496   6.094  15.784  0.00  0.00    +0.000 NA
ATOM     10  C   UNL     1       6.298   5.259  14.895  0.00  0.00    +0.000 C 
ATOM     11  C   UNL     1       6.119   3.845  15.403  0.00  0.00    +0.000 C 
ATOM     12  O   UNL     1       5.068   3.921  16.359  0.00  0.00    +0.000 OA
ENDBRANCH   5   8
BRANCH   7  13
ATOM     13  C   UNL     1       2.193   4.135  20.629  0.00  0.00    +0.000 C 
ATOM     14  F   UNL     1       2.764   2.906  20.527  0.00  0.00    +0.000 F 
ATOM     15  F   UNL     1       2.485   4.567  21.892  0.00  0.00    +0.000 F 
ATOM     16  F   UNL     1       0.845   3.914  20.631  0.00  0.00    +0.000 F 
ENDBRANCH   7  13
BRANCH   1  17
ATOM     17  O   UNL     1       1.326   6.829  20.663  0.00  0.00    +0.000 OA
BRANCH  17  18
ATOM     18  C   UNL     1       1.355   8.170  21.147  0.00  0.00    +0.000 C 
BRANCH  18  19
ATOM     19  C   UNL     1      -0.043   8.641  21.526  0.00  0.00    +0.000 C 
BRANCH  19  20
ATOM     20  C   UNL     1       0.062   9.918  22.365  0.00  0.00    +0.000 C 
BRANCH  20  21
ATOM     21  C   UNL     1      -0.695  11.069  21.719  0.00  0.00    +0.000 C 
BRANCH  21  22
ATOM     22  C   UNL     1      -0.139  11.407  20.335  0.00  0.00    +0.000 C 
BRANCH  22  26
ATOM     23  C   UNL     1      -4.198  11.418  17.251  0.00  0.00    +0.000 C 
ATOM     24  C   UNL     1      -2.924  11.170  17.960  0.00  0.00    +0.000 A 
ATOM     25  C   UNL     1      -2.353  11.911  19.018  0.00  0.00    +0.000 A 
ATOM     26  C   UNL     1      -1.193  11.238  19.311  0.00  0.00    +0.000 A 
ATOM     27  O   UNL     1      -1.067  10.173  18.476  0.00  0.00    +0.000 OA
ATOM     28  N   UNL     1      -2.156  10.127  17.624  0.00  0.00    +0.000 NA
ENDBRANCH  22  26
ENDBRANCH  21  22
ENDBRANCH  20  21
ENDBRANCH  19  20
ENDBRANCH  18  19
ENDBRANCH  17  18
ENDBRANCH   1  17
TORSDOF 9
ENDMDL
