MODEL 1
REMARK VINA RESULT:      -8.3      0.000      0.000
REMARK  Name = 
REMARK  7 active torsions:
REMARK  status: ('A' for Active; 'I' for Inactive)
REMARK    1  A    between atoms: C_2  and  C_16
REMARK    2  A    between atoms: N_3  and  C_4
REMARK    3  A    between atoms: C_7  and  O_8
REMARK    4  A    between atoms: O_8  and  C_9
REMARK    5  A    between atoms: C_19  and  N_20
REMARK    6  A    between atoms: C_23  and  O_24
REMARK    7  A    between atoms: C_26  and  C_27
REMARK                            x       y       z     vdW  Elec       q    Type
REMARK                         _______ _______ _______ _____ _____    ______ ____
ROOT
ATOM      1  C   UNL     1       2.220   8.079  18.475  0.00  0.00    +0.000 A 
ATOM      2  C   UNL     1       3.322   8.451  17.733  0.00  0.00    +0.000 A 
ATOM      3  N   UNL     1       4.213   7.566  17.206  0.00  0.00    +0.000 NA
ATOM      4  C   UNL     1       4.041   6.237  17.429  0.00  0.00    +0.000 A 
ATOM      5  C   UNL     1       2.958   5.760  18.213  0.00  0.00    +0.000 A 
ATOM      6  C   UNL     1       2.050   6.716  18.712  0.00  0.00    +0.000 A 
ENDROOT
BRANCH   5   7
ATOM      7  C   UNL     1       2.791   4.350  18.618  0.00  0.00    +0.000 A 
ATOM      8  C   UNL     1       2.014   3.447  17.909  0.00  0.00    +0.000 A 
ATOM      9  N   UNL     1       1.792   2.165  18.262  0.00  0.00    +0.000 NA
ATOM     10  C   UNL     1       2.422   1.758  19.369  0.00  0.00    +0.000 A 
ATOM     11  N   UNL     1       3.245   2.502  20.122  0.00  0.00    +0.000 NA
ATOM     12  C   UNL     1       3.409   3.782  19.721  0.00  0.00    +0.000 A 
ENDBRANCH   5   7
BRANCH   4  13
ATOM     13  N   UNL     1       5.002   5.360  16.937  0.00  0.00    +0.000 N 
ATOM     14  C   UNL     1       6.226   5.123  17.710  0.00  0.00    +0.000 C 
ATOM     15  C   UNL     1       7.260   4.622  16.688  0.00  0.00    +0.000 C 
ATOM     16  C   UNL     1       6.459   4.345  15.424  0.00  0.00    +0.000 C 
ATOM     17  C   UNL     1       5.331   5.384  15.504  0.00  0.00    +0.000 C 
BRANCH  16  18
ATOM     18  O   UNL     1       5.957   3.008  15.464  0.00  0.00    +0.000 OA
ATOM     19  H   UNL     1       6.201   2.633  16.329  0.00  0.00    +0.000 HD
ENDBRANCH  16  18
ENDBRANCH   4  13
BRANCH   1  21
ATOM     20  O   UNL     1       0.602   9.729  18.384  0.00  0.00    +0.000 OA
ATOM     21  C   UNL     1       1.286   9.032  19.123  0.00  0.00    +0.000 C 
ATOM     22  N   UNL     1       1.329   9.107  20.510  0.00  0.00    +0.000 N 
ATOM     23  H   UNL     1       2.073   8.611  20.988  0.00  0.00    +0.000 HD
BRANCH  22  24
ATOM     24  C   UNL     1       0.560   9.995  21.302  0.00  0.00    +0.000 A 
ATOM     25  C   UNL     1      -0.225   9.588  22.385  0.00  0.00    +0.000 A 
ATOM     26  C   UNL     1      -0.991  10.511  23.104  0.00  0.00    +0.000 A 
ATOM     27  C   UNL     1      -0.980  11.865  22.767  0.00  0.00    +0.000 A 
ATOM     28  C   UNL     1      -0.216  12.265  21.674  0.00  0.00    +0.000 A 
ATOM     29  F   UNL     1      -0.267  13.529  21.231  0.00  0.00    +0.000 F 
ATOM     30  C   UNL     1       0.573  11.354  20.966  0.00  0.00    +0.000 A 
BRANCH  27  31
ATOM     31  O   UNL     1      -1.813  12.645  23.505  0.00  0.00    +0.000 OA
BRANCH  31  32
ATOM     32  C   UNL     1      -3.207  12.631  23.221  0.00  0.00    +0.000 C 
ATOM     33  F   UNL     1      -3.521  12.215  21.979  0.00  0.00    +0.000 F 
ATOM     34  F   UNL     1      -3.841  11.862  24.130  0.00  0.00    +0.000 F 
ATOM     35  F   UNL     1      -3.671  13.897  23.350  0.00  0.00    +0.000 F 
ENDBRANCH  31  32
ENDBRANCH  27  31
ENDBRANCH  22  24
ENDBRANCH   1  21
TORSDOF 7
ENDMDL
MODEL 2
REMARK VINA RESULT:      -8.2      0.694      1.358
REMARK  Name = 
REMARK  7 active torsions:
REMARK  status: ('A' for Active; 'I' for Inactive)
REMARK    1  A    between atoms: C_2  and  C_16
REMARK    2  A    between atoms: N_3  and  C_4
REMARK    3  A    between atoms: C_7  and  O_8
REMARK    4  A    between atoms: O_8  and  C_9
REMARK    5  A    between atoms: C_19  and  N_20
REMARK    6  A    between atoms: C_23  and  O_24
REMARK    7  A    between atoms: C_26  and  C_27
REMARK                            x       y       z     vdW  Elec       q    Type
REMARK                         _______ _______ _______ _____ _____    ______ ____
ROOT
ATOM      1  C   UNL     1       2.276   8.156  18.201  0.00  0.00    +0.000 A 
ATOM      2  C   UNL     1       3.439   8.496  17.541  0.00  0.00    +0.000 A 
ATOM      3  N   UNL     1       4.344   7.588  17.083  0.00  0.00    +0.000 NA
ATOM      4  C   UNL     1       4.123   6.263  17.297  0.00  0.00    +0.000 A 
ATOM      5  C   UNL     1       2.973   5.818  18.001  0.00  0.00    +0.000 A 
ATOM      6  C   UNL     1       2.055   6.799  18.429  0.00  0.00    +0.000 A 
ENDROOT
BRANCH   5   7
ATOM      7  C   UNL     1       2.742   4.415  18.397  0.00  0.00    +0.000 A 
ATOM      8  C   UNL     1       2.178   3.474  17.550  0.00  0.00    +0.000 A 
ATOM      9  N   UNL     1       1.903   2.195  17.878  0.00  0.00    +0.000 NA
ATOM     10  C   UNL     1       2.254   1.833  19.117  0.00  0.00    +0.000 A 
ATOM     11  N   UNL     1       2.855   2.617  20.022  0.00  0.00    +0.000 NA
ATOM     12  C   UNL     1       3.086   3.891  19.634  0.00  0.00    +0.000 A 
ENDBRANCH   5   7
BRANCH   4  13
ATOM     13  N   UNL     1       5.095   5.361  16.880  0.00  0.00    +0.000 N 
ATOM     14  C   UNL     1       6.232   5.068  17.757  0.00  0.00    +0.000 C 
ATOM     15  C   UNL     1       7.339   4.546  16.826  0.00  0.00    +0.000 C 
ATOM     16  C   UNL     1       6.650   4.318  15.488  0.00  0.00    +0.000 C 
ATOM     17  C   UNL     1       5.556   5.396  15.483  0.00  0.00    +0.000 C 
BRANCH  16  18
ATOM     18  O   UNL     1       6.101   3.000  15.457  0.00  0.00    +0.000 OA
ATOM     19  H   UNL     1       6.383   2.549  16.272  0.00  0.00    +0.000 HD
ENDBRANCH  16  18
ENDBRANCH   4  13
BRANCH   1  21
ATOM     20  O   UNL     1       0.564   9.696  17.995  0.00  0.00    +0.000 OA
ATOM     21  C   UNL     1       1.322   9.135  18.776  0.00  0.00    +0.000 C 
ATOM     22  N   UNL     1       1.429   9.389  20.138  0.00  0.00    +0.000 N 
ATOM     23  H   UNL     1       2.222   8.996  20.632  0.00  0.00    +0.000 HD
BRANCH  22  24
ATOM     24  C   UNL     1       0.649  10.330  20.855  0.00  0.00    +0.000 A 
ATOM     25  C   UNL     1       0.668  11.705  20.605  0.00  0.00    +0.000 A 
ATOM     26  C   UNL     1      -0.099  12.586  21.374  0.00  0.00    +0.000 A 
ATOM     27  C   UNL     1      -0.914  12.112  22.402  0.00  0.00    +0.000 A 
ATOM     28  C   UNL     1      -0.914  10.744  22.665  0.00  0.00    +0.000 A 
ATOM     29  F   UNL     1      -1.581  10.251  23.718  0.00  0.00    +0.000 F 
ATOM     30  C   UNL     1      -0.172   9.854  21.884  0.00  0.00    +0.000 A 
BRANCH  27  31
ATOM     31  O   UNL     1      -1.560  13.075  23.112  0.00  0.00    +0.000 OA
BRANCH  31  32
ATOM     32  C   UNL     1      -2.982  13.097  23.112  0.00  0.00    +0.000 C 
ATOM     33  F   UNL     1      -3.553  12.319  24.053  0.00  0.00    +0.000 F 
ATOM     34  F   UNL     1      -3.411  14.368  23.256  0.00  0.00    +0.000 F 
ATOM     35  F   UNL     1      -3.406  12.648  21.907  0.00  0.00    +0.000 F 
ENDBRANCH  31  32
ENDBRANCH  27  31
ENDBRANCH  22  24
ENDBRANCH   1  21
TORSDOF 7
ENDMDL
MODEL 3
REMARK VINA RESULT:      -8.2      0.704      1.433
REMARK  Name = 
REMARK  7 active torsions:
REMARK  status: ('A' for Active; 'I' for Inactive)
REMARK    1  A    between atoms: C_2  and  C_16
REMARK    2  A    between atoms: N_3  and  C_4
REMARK    3  A    between atoms: C_7  and  O_8
REMARK    4  A    between atoms: O_8  and  C_9
REMARK    5  A    between atoms: C_19  and  N_20
REMARK    6  A    between atoms: C_23  and  O_24
REMARK    7  A    between atoms: C_26  and  C_27
REMARK                            x       y       z     vdW  Elec       q    Type
REMARK                         _______ _______ _______ _____ _____    ______ ____
ROOT
ATOM      1  C   UNL     1       2.262   8.144  18.230  0.00  0.00    +0.000 A 
ATOM      2  C   UNL     1       3.403   8.484  17.533  0.00  0.00    +0.000 A 
ATOM      3  N   UNL     1       4.307   7.576  17.073  0.00  0.00    +0.000 NA
ATOM      4  C   UNL     1       4.109   6.255  17.323  0.00  0.00    +0.000 A 
ATOM      5  C   UNL     1       2.983   5.811  18.067  0.00  0.00    +0.000 A 
ATOM      6  C   UNL     1       2.064   6.790  18.496  0.00  0.00    +0.000 A 
ENDROOT
BRANCH   5   7
ATOM      7  C   UNL     1       2.780   4.415  18.500  0.00  0.00    +0.000 A 
ATOM      8  C   UNL     1       3.232   3.928  19.717  0.00  0.00    +0.000 A 
ATOM      9  N   UNL     1       3.113   2.652  20.138  0.00  0.00    +0.000 NA
ATOM     10  C   UNL     1       2.468   1.831  19.304  0.00  0.00    +0.000 A 
ATOM     11  N   UNL     1       1.931   2.174  18.125  0.00  0.00    +0.000 NA
ATOM     12  C   UNL     1       2.101   3.463  17.756  0.00  0.00    +0.000 A 
ENDBRANCH   5   7
BRANCH   4  13
ATOM     13  N   UNL     1       5.081   5.355  16.901  0.00  0.00    +0.000 N 
ATOM     14  C   UNL     1       6.239   5.088  17.760  0.00  0.00    +0.000 C 
ATOM     15  C   UNL     1       7.333   4.561  16.816  0.00  0.00    +0.000 C 
ATOM     16  C   UNL     1       6.619   4.303  15.496  0.00  0.00    +0.000 C 
ATOM     17  C   UNL     1       5.514   5.370  15.495  0.00  0.00    +0.000 C 
BRANCH  16  18
ATOM     18  O   UNL     1       6.083   2.980  15.498  0.00  0.00    +0.000 OA
ATOM     19  H   UNL     1       6.504   2.497  16.232  0.00  0.00    +0.000 HD
ENDBRANCH  16  18
ENDBRANCH   4  13
BRANCH   1  21
ATOM     20  O   UNL     1       0.538   9.672  18.031  0.00  0.00    +0.000 OA
ATOM     21  C   UNL     1       1.310   9.125  18.808  0.00  0.00    +0.000 C 
ATOM     22  N   UNL     1       1.434   9.395  20.165  0.00  0.00    +0.000 N 
ATOM     23  H   UNL     1       2.236   9.013  20.653  0.00  0.00    +0.000 HD
BRANCH  22  24
ATOM     24  C   UNL     1       0.659  10.340  20.882  0.00  0.00    +0.000 A 
ATOM     25  C   UNL     1       0.702  11.718  20.648  0.00  0.00    +0.000 A 
ATOM     26  C   UNL     1      -0.062  12.601  21.416  0.00  0.00    +0.000 A 
ATOM     27  C   UNL     1      -0.898  12.129  22.428  0.00  0.00    +0.000 A 
ATOM     28  C   UNL     1      -0.922  10.758  22.676  0.00  0.00    +0.000 A 
ATOM     29  F   UNL     1      -1.611  10.264  23.714  0.00  0.00    +0.000 F 
ATOM     30  C   UNL     1      -0.183   9.866  21.894  0.00  0.00    +0.000 A 
BRANCH  27  31
ATOM     31  O   UNL     1      -1.539  13.094  23.139  0.00  0.00    +0.000 OA
BRANCH  31  32
ATOM     32  C   UNL     1      -2.960  13.141  23.117  0.00  0.00    +0.000 C 
ATOM     33  F   UNL     1      -3.519  12.640  21.997  0.00  0.00    +0.000 F 
ATOM     34  F   UNL     1      -3.447  12.491  24.195  0.00  0.00    +0.000 F 
ATOM     35  F   UNL     1      -3.336  14.439  23.208  0.00  0.00    +0.000 F 
ENDBRANCH  31  32
ENDBRANCH  27  31
ENDBRANCH  22  24
ENDBRANCH   1  21
TORSDOF 7
ENDMDL
MODEL 4
REMARK VINA RESULT:      -8.2      0.102      1.050
REMARK  Name = 
REMARK  7 active torsions:
REMARK  status: ('A' for Active; 'I' for Inactive)
REMARK    1  A    between atoms: C_2  and  C_16
REMARK    2  A    between atoms: N_3  and  C_4
REMARK    3  A    between atoms: C_7  and  O_8
REMARK    4  A    between atoms: O_8  and  C_9
REMARK    5  A    between atoms: C_19  and  N_20
REMARK    6  A    between atoms: C_23  and  O_24
REMARK    7  A    between atoms: C_26  and  C_27
REMARK                            x       y       z     vdW  Elec       q    Type
REMARK                         _______ _______ _______ _____ _____    ______ ____
ROOT
ATOM      1  C   UNL     1       2.209   8.080  18.463  0.00  0.00    +0.000 A 
ATOM      2  C   UNL     1       3.322   8.449  17.736  0.00  0.00    +0.000 A 
ATOM      3  N   UNL     1       4.218   7.562  17.221  0.00  0.00    +0.000 NA
ATOM      4  C   UNL     1       4.039   6.233  17.442  0.00  0.00    +0.000 A 
ATOM      5  C   UNL     1       2.944   5.759  18.212  0.00  0.00    +0.000 A 
ATOM      6  C   UNL     1       2.032   6.718  18.699  0.00  0.00    +0.000 A 
ENDROOT
BRANCH   5   7
ATOM      7  C   UNL     1       2.769   4.350  18.615  0.00  0.00    +0.000 A 
ATOM      8  C   UNL     1       3.265   3.836  19.803  0.00  0.00    +0.000 A 
ATOM      9  N   UNL     1       3.172   2.548  20.194  0.00  0.00    +0.000 NA
ATOM     10  C   UNL     1       2.506   1.743  19.360  0.00  0.00    +0.000 A 
ATOM     11  N   UNL     1       1.927   2.111  18.209  0.00  0.00    +0.000 NA
ATOM     12  C   UNL     1       2.073   3.411  17.869  0.00  0.00    +0.000 A 
ENDBRANCH   5   7
BRANCH   4  13
ATOM     13  N   UNL     1       5.004   5.354  16.963  0.00  0.00    +0.000 N 
ATOM     14  C   UNL     1       6.193   5.074  17.775  0.00  0.00    +0.000 C 
ATOM     15  C   UNL     1       7.258   4.583  16.780  0.00  0.00    +0.000 C 
ATOM     16  C   UNL     1       6.502   4.355  15.479  0.00  0.00    +0.000 C 
ATOM     17  C   UNL     1       5.389   5.411  15.545  0.00  0.00    +0.000 C 
BRANCH  16  18
ATOM     18  O   UNL     1       5.978   3.027  15.462  0.00  0.00    +0.000 OA
ATOM     19  H   UNL     1       5.247   3.012  14.819  0.00  0.00    +0.000 HD
ENDBRANCH  16  18
ENDBRANCH   4  13
BRANCH   1  21
ATOM     20  O   UNL     1       0.532   9.668  18.354  0.00  0.00    +0.000 OA
ATOM     21  C   UNL     1       1.269   9.036  19.099  0.00  0.00    +0.000 C 
ATOM     22  N   UNL     1       1.366   9.188  20.476  0.00  0.00    +0.000 N 
ATOM     23  H   UNL     1       2.145   8.744  20.948  0.00  0.00    +0.000 HD
BRANCH  22  24
ATOM     24  C   UNL     1       0.599  10.092  21.252  0.00  0.00    +0.000 A 
ATOM     25  C   UNL     1      -0.200   9.704  22.332  0.00  0.00    +0.000 A 
ATOM     26  C   UNL     1      -0.963  10.642  23.034  0.00  0.00    +0.000 A 
ATOM     27  C   UNL     1      -0.935  11.992  22.684  0.00  0.00    +0.000 A 
ATOM     28  C   UNL     1      -0.157  12.374  21.593  0.00  0.00    +0.000 A 
ATOM     29  F   UNL     1      -0.190  13.634  21.138  0.00  0.00    +0.000 F 
ATOM     30  C   UNL     1       0.630  11.447  20.903  0.00  0.00    +0.000 A 
BRANCH  27  31
ATOM     31  O   UNL     1      -1.767  12.789  23.406  0.00  0.00    +0.000 OA
BRANCH  31  32
ATOM     32  C   UNL     1      -3.173  12.658  23.234  0.00  0.00    +0.000 C 
ATOM     33  F   UNL     1      -3.763  11.798  24.086  0.00  0.00    +0.000 F 
ATOM     34  F   UNL     1      -3.752  13.872  23.343  0.00  0.00    +0.000 F 
ATOM     35  F   UNL     1      -3.398  12.200  21.979  0.00  0.00    +0.000 F 
ENDBRANCH  31  32
ENDBRANCH  27  31
ENDBRANCH  22  24
ENDBRANCH   1  21
TORSDOF 7
ENDMDL
MODEL 5
REMARK VINA RESULT:      -8.2      2.838      4.393
REMARK  Name = 
REMARK  7 active torsions:
REMARK  status: ('A' for Active; 'I' for Inactive)
REMARK    1  A    between atoms: C_2  and  C_16
REMARK    2  A    between atoms: N_3  and  C_4
REMARK    3  A    between atoms: C_7  and  O_8
REMARK    4  A    between atoms: O_8  and  C_9
REMARK    5  A    between atoms: C_19  and  N_20
REMARK    6  A    between atoms: C_23  and  O_24
REMARK    7  A    between atoms: C_26  and  C_27
REMARK                            x       y       z     vdW  Elec       q    Type
REMARK                         _______ _______ _______ _____ _____    ______ ____
ROOT
ATOM      1  C   UNL     1       2.406   7.847  18.563  0.00  0.00    +0.000 A 
ATOM      2  C   UNL     1       1.755   6.898  19.323  0.00  0.00    +0.000 A 
ATOM      3  N   UNL     1       2.182   5.611  19.454  0.00  0.00    +0.000 NA
ATOM      4  C   UNL     1       3.298   5.209  18.790  0.00  0.00    +0.000 A 
ATOM      5  C   UNL     1       4.013   6.105  17.952  0.00  0.00    +0.000 A 
ATOM      6  C   UNL     1       3.544   7.432  17.874  0.00  0.00    +0.000 A 
ENDROOT
BRANCH   5   7
ATOM      7  C   UNL     1       5.142   5.703  17.090  0.00  0.00    +0.000 A 
ATOM      8  C   UNL     1       5.069   5.694  15.705  0.00  0.00    +0.000 A 
ATOM      9  N   UNL     1       6.053   5.292  14.876  0.00  0.00    +0.000 NA
ATOM     10  C   UNL     1       7.189   4.916  15.474  0.00  0.00    +0.000 A 
ATOM     11  N   UNL     1       7.420   4.926  16.794  0.00  0.00    +0.000 NA
ATOM     12  C   UNL     1       6.386   5.324  17.568  0.00  0.00    +0.000 A 
ENDBRANCH   5   7
BRANCH   4  13
ATOM     13  N   UNL     1       3.673   3.874  18.887  0.00  0.00    +0.000 N 
ATOM     14  C   UNL     1       3.524   2.996  17.723  0.00  0.00    +0.000 C 
ATOM     15  C   UNL     1       3.460   1.570  18.295  0.00  0.00    +0.000 C 
ATOM     16  C   UNL     1       3.857   1.717  19.757  0.00  0.00    +0.000 C 
ATOM     17  C   UNL     1       3.344   3.122  20.107  0.00  0.00    +0.000 C 
BRANCH  16  18
ATOM     18  O   UNL     1       5.277   1.623  19.874  0.00  0.00    +0.000 OA
ATOM     19  H   UNL     1       5.626   2.532  19.908  0.00  0.00    +0.000 HD
ENDBRANCH  16  18
ENDBRANCH   4  13
BRANCH   1  21
ATOM     20  O   UNL     1       2.283   9.797  17.326  0.00  0.00    +0.000 OA
ATOM     21  C   UNL     1       1.911   9.229  18.345  0.00  0.00    +0.000 C 
ATOM     22  N   UNL     1       1.137   9.785  19.355  0.00  0.00    +0.000 N 
ATOM     23  H   UNL     1       1.060   9.275  20.228  0.00  0.00    +0.000 HD
BRANCH  22  24
ATOM     24  C   UNL     1       0.624  11.106  19.356  0.00  0.00    +0.000 A 
ATOM     25  C   UNL     1      -0.334  11.567  18.448  0.00  0.00    +0.000 A 
ATOM     26  C   UNL     1      -0.772  12.895  18.479  0.00  0.00    +0.000 A 
ATOM     27  C   UNL     1      -0.273  13.790  19.426  0.00  0.00    +0.000 A 
ATOM     28  C   UNL     1       0.698  13.335  20.314  0.00  0.00    +0.000 A 
ATOM     29  F   UNL     1       1.300  14.182  21.161  0.00  0.00    +0.000 F 
ATOM     30  C   UNL     1       1.122  12.002  20.308  0.00  0.00    +0.000 A 
BRANCH  27  31
ATOM     31  O   UNL     1      -0.735  15.063  19.310  0.00  0.00    +0.000 OA
BRANCH  31  32
ATOM     32  C   UNL     1       0.112  16.057  18.747  0.00  0.00    +0.000 C 
ATOM     33  F   UNL     1       1.299  15.597  18.306  0.00  0.00    +0.000 F 
ATOM     34  F   UNL     1      -0.535  16.678  17.738  0.00  0.00    +0.000 F 
ATOM     35  F   UNL     1       0.368  16.978  19.707  0.00  0.00    +0.000 F 
ENDBRANCH  31  32
ENDBRANCH  27  31
ENDBRANCH  22  24
ENDBRANCH   1  21
TORSDOF 7
ENDMDL
MODEL 6
REMARK VINA RESULT:      -8.1      2.048      2.494
REMARK  Name = 
REMARK  7 active torsions:
REMARK  status: ('A' for Active; 'I' for Inactive)
REMARK    1  A    between atoms: C_2  and  C_16
REMARK    2  A    between atoms: N_3  and  C_4
REMARK    3  A    between atoms: C_7  and  O_8
REMARK    4  A    between atoms: O_8  and  C_9
REMARK    5  A    between atoms: C_19  and  N_20
REMARK    6  A    between atoms: C_23  and  O_24
REMARK    7  A    between atoms: C_26  and  C_27
REMARK                            x       y       z     vdW  Elec       q    Type
REMARK                         _______ _______ _______ _____ _____    ______ ____
ROOT
ATOM      1  C   UNL     1       2.174   8.121  18.263  0.00  0.00    +0.000 A 
ATOM      2  C   UNL     1       3.331   8.504  17.616  0.00  0.00    +0.000 A 
ATOM      3  N   UNL     1       4.265   7.627  17.154  0.00  0.00    +0.000 NA
ATOM      4  C   UNL     1       4.081   6.294  17.351  0.00  0.00    +0.000 A 
ATOM      5  C   UNL     1       2.940   5.808  18.041  0.00  0.00    +0.000 A 
ATOM      6  C   UNL     1       1.991   6.756  18.474  0.00  0.00    +0.000 A 
ENDROOT
BRANCH   5   7
ATOM      7  C   UNL     1       2.747   4.394  18.419  0.00  0.00    +0.000 A 
ATOM      8  C   UNL     1       2.177   3.456  17.571  0.00  0.00    +0.000 A 
ATOM      9  N   UNL     1       1.937   2.166  17.885  0.00  0.00    +0.000 NA
ATOM     10  C   UNL     1       2.329   1.791  19.107  0.00  0.00    +0.000 A 
ATOM     11  N   UNL     1       2.940   2.571  20.009  0.00  0.00    +0.000 NA
ATOM     12  C   UNL     1       3.134   3.856  19.636  0.00  0.00    +0.000 A 
ENDBRANCH   5   7
BRANCH   4  13
ATOM     13  N   UNL     1       5.081   5.426  16.930  0.00  0.00    +0.000 N 
ATOM     14  C   UNL     1       6.209   5.137  17.822  0.00  0.00    +0.000 C 
ATOM     15  C   UNL     1       7.346   4.665  16.899  0.00  0.00    +0.000 C 
ATOM     16  C   UNL     1       6.687   4.454  15.544  0.00  0.00    +0.000 C 
ATOM     17  C   UNL     1       5.567   5.506  15.544  0.00  0.00    +0.000 C 
BRANCH  16  18
ATOM     18  O   UNL     1       6.170   3.125  15.469  0.00  0.00    +0.000 OA
ATOM     19  H   UNL     1       5.413   3.074  16.078  0.00  0.00    +0.000 HD
ENDBRANCH  16  18
ENDBRANCH   4  13
BRANCH   1  21
ATOM     20  O   UNL     1       1.184   9.185  20.061  0.00  0.00    +0.000 OA
ATOM     21  C   UNL     1       1.187   9.066  18.843  0.00  0.00    +0.000 C 
ATOM     22  N   UNL     1       0.300   9.667  17.959  0.00  0.00    +0.000 N 
ATOM     23  H   UNL     1       0.290   9.338  17.001  0.00  0.00    +0.000 HD
BRANCH  22  24
ATOM     24  C   UNL     1      -0.746  10.549  18.329  0.00  0.00    +0.000 A 
ATOM     25  C   UNL     1      -0.547  11.733  19.044  0.00  0.00    +0.000 A 
ATOM     26  C   UNL     1      -1.628  12.541  19.410  0.00  0.00    +0.000 A 
ATOM     27  C   UNL     1      -2.932  12.192  19.058  0.00  0.00    +0.000 A 
ATOM     28  C   UNL     1      -3.131  11.000  18.365  0.00  0.00    +0.000 A 
ATOM     29  F   UNL     1      -4.370  10.556  18.111  0.00  0.00    +0.000 F 
ATOM     30  C   UNL     1      -2.054  10.200  17.972  0.00  0.00    +0.000 A 
BRANCH  27  31
ATOM     31  O   UNL     1      -3.896  13.030  19.525  0.00  0.00    +0.000 OA
BRANCH  31  32
ATOM     32  C   UNL     1      -4.484  12.768  20.794  0.00  0.00    +0.000 C 
ATOM     33  F   UNL     1      -3.637  12.255  21.707  0.00  0.00    +0.000 F 
ATOM     34  F   UNL     1      -5.035  13.902  21.274  0.00  0.00    +0.000 F 
ATOM     35  F   UNL     1      -5.477  11.865  20.614  0.00  0.00    +0.000 F 
ENDBRANCH  31  32
ENDBRANCH  27  31
ENDBRANCH  22  24
ENDBRANCH   1  21
TORSDOF 7
ENDMDL
MODEL 7
REMARK VINA RESULT:      -8.1      1.704      2.264
REMARK  Name = 
REMARK  7 active torsions:
REMARK  status: ('A' for Active; 'I' for Inactive)
REMARK    1  A    between atoms: C_2  and  C_16
REMARK    2  A    between atoms: N_3  and  C_4
REMARK    3  A    between atoms: C_7  and  O_8
REMARK    4  A    between atoms: O_8  and  C_9
REMARK    5  A    between atoms: C_19  and  N_20
REMARK    6  A    between atoms: C_23  and  O_24
REMARK    7  A    between atoms: C_26  and  C_27
REMARK                            x       y       z     vdW  Elec       q    Type
REMARK                         _______ _______ _______ _____ _____    ______ ____
ROOT
ATOM      1  C   UNL     1       2.357   7.973  18.304  0.00  0.00    +0.000 A 
ATOM      2  C   UNL     1       3.428   8.399  17.547  0.00  0.00    +0.000 A 
ATOM      3  N   UNL     1       4.327   7.557  16.966  0.00  0.00    +0.000 NA
ATOM      4  C   UNL     1       4.196   6.217  17.147  0.00  0.00    +0.000 A 
ATOM      5  C   UNL     1       3.147   5.685  17.943  0.00  0.00    +0.000 A 
ATOM      6  C   UNL     1       2.229   6.599  18.499  0.00  0.00    +0.000 A 
ENDROOT
BRANCH   5   7
ATOM      7  C   UNL     1       3.028   4.258  18.303  0.00  0.00    +0.000 A 
ATOM      8  C   UNL     1       3.431   3.752  19.530  0.00  0.00    +0.000 A 
ATOM      9  N   UNL     1       3.387   2.453  19.889  0.00  0.00    +0.000 NA
ATOM     10  C   UNL     1       2.871   1.623  18.976  0.00  0.00    +0.000 A 
ATOM     11  N   UNL     1       2.392   1.978  17.776  0.00  0.00    +0.000 NA
ATOM     12  C   UNL     1       2.483   3.292  17.473  0.00  0.00    +0.000 A 
ENDBRANCH   5   7
BRANCH   4  13
ATOM     13  N   UNL     1       5.165   5.384  16.600  0.00  0.00    +0.000 N 
ATOM     14  C   UNL     1       6.302   4.961  17.423  0.00  0.00    +0.000 C 
ATOM     15  C   UNL     1       7.408   4.580  16.425  0.00  0.00    +0.000 C 
ATOM     16  C   UNL     1       6.718   4.554  15.068  0.00  0.00    +0.000 C 
ATOM     17  C   UNL     1       5.626   5.623  15.224  0.00  0.00    +0.000 C 
BRANCH  16  18
ATOM     18  O   UNL     1       6.165   3.256  14.843  0.00  0.00    +0.000 OA
ATOM     19  H   UNL     1       5.203   3.325  14.970  0.00  0.00    +0.000 HD
ENDBRANCH  16  18
ENDBRANCH   4  13
BRANCH   1  21
ATOM     20  O   UNL     1       1.205   8.645  20.193  0.00  0.00    +0.000 OA
ATOM     21  C   UNL     1       1.417   8.878  19.010  0.00  0.00    +0.000 C 
ATOM     22  N   UNL     1       0.797   9.859  18.245  0.00  0.00    +0.000 N 
ATOM     23  H   UNL     1       0.919   9.823  17.240  0.00  0.00    +0.000 HD
BRANCH  22  24
ATOM     24  C   UNL     1      -0.171  10.776  18.725  0.00  0.00    +0.000 A 
ATOM     25  C   UNL     1       0.125  11.838  19.585  0.00  0.00    +0.000 A 
ATOM     26  C   UNL     1      -0.884  12.686  20.052  0.00  0.00    +0.000 A 
ATOM     27  C   UNL     1      -2.210  12.502  19.661  0.00  0.00    +0.000 A 
ATOM     28  C   UNL     1      -2.506  11.430  18.823  0.00  0.00    +0.000 A 
ATOM     29  F   UNL     1      -3.777  11.133  18.516  0.00  0.00    +0.000 F 
ATOM     30  C   UNL     1      -1.500  10.594  18.329  0.00  0.00    +0.000 A 
BRANCH  27  31
ATOM     31  O   UNL     1      -3.100  13.356  20.233  0.00  0.00    +0.000 OA
BRANCH  31  32
ATOM     32  C   UNL     1      -3.809  12.941  21.394  0.00  0.00    +0.000 C 
ATOM     33  F   UNL     1      -3.123  12.105  22.198  0.00  0.00    +0.000 F 
ATOM     34  F   UNL     1      -4.195  14.027  22.095  0.00  0.00    +0.000 F 
ATOM     35  F   UNL     1      -4.924  12.287  20.990  0.00  0.00    +0.000 F 
ENDBRANCH  31  32
ENDBRANCH  27  31
ENDBRANCH  22  24
ENDBRANCH   1  21
TORSDOF 7
ENDMDL
MODEL 8
REMARK VINA RESULT:      -8.1      2.804      4.439
REMARK  Name = 
REMARK  7 active torsions:
REMARK  status: ('A' for Active; 'I' for Inactive)
REMARK    1  A    between atoms: C_2  and  C_16
REMARK    2  A    between atoms: N_3  and  C_4
REMARK    3  A    between atoms: C_7  and  O_8
REMARK    4  A    between atoms: O_8  and  C_9
REMARK    5  A    between atoms: C_19  and  N_20
REMARK    6  A    between atoms: C_23  and  O_24
REMARK    7  A    between atoms: C_26  and  C_27
REMARK                            x       y       z     vdW  Elec       q    Type
REMARK                         _______ _______ _______ _____ _____    ______ ____
ROOT
ATOM      1  C   UNL     1       2.382   7.912  18.644  0.00  0.00    +0.000 A 
ATOM      2  C   UNL     1       1.741   6.954  19.403  0.00  0.00    +0.000 A 
ATOM      3  N   UNL     1       2.173   5.668  19.521  0.00  0.00    +0.000 NA
ATOM      4  C   UNL     1       3.284   5.275  18.843  0.00  0.00    +0.000 A 
ATOM      5  C   UNL     1       3.988   6.180  18.005  0.00  0.00    +0.000 A 
ATOM      6  C   UNL     1       3.514   7.506  17.940  0.00  0.00    +0.000 A 
ENDROOT
BRANCH   5   7
ATOM      7  C   UNL     1       5.110   5.788  17.129  0.00  0.00    +0.000 A 
ATOM      8  C   UNL     1       6.338   5.366  17.616  0.00  0.00    +0.000 A 
ATOM      9  N   UNL     1       7.406   5.043  16.859  0.00  0.00    +0.000 NA
ATOM     10  C   UNL     1       7.215   5.110  15.537  0.00  0.00    +0.000 A 
ATOM     11  N   UNL     1       6.070   5.447  14.927  0.00  0.00    +0.000 NA
ATOM     12  C   UNL     1       5.045   5.776  15.744  0.00  0.00    +0.000 A 
ENDBRANCH   5   7
BRANCH   4  13
ATOM     13  N   UNL     1       3.665   3.941  18.927  0.00  0.00    +0.000 N 
ATOM     14  C   UNL     1       3.492   3.066  17.763  0.00  0.00    +0.000 C 
ATOM     15  C   UNL     1       3.445   1.638  18.332  0.00  0.00    +0.000 C 
ATOM     16  C   UNL     1       3.875   1.781  19.785  0.00  0.00    +0.000 C 
ATOM     17  C   UNL     1       3.366   3.183  20.152  0.00  0.00    +0.000 C 
BRANCH  16  18
ATOM     18  O   UNL     1       5.297   1.691  19.869  0.00  0.00    +0.000 OA
ATOM     19  H   UNL     1       5.661   2.061  19.045  0.00  0.00    +0.000 HD
ENDBRANCH  16  18
ENDBRANCH   4  13
BRANCH   1  21
ATOM     20  O   UNL     1       2.257   9.877  17.433  0.00  0.00    +0.000 OA
ATOM     21  C   UNL     1       1.880   9.293  18.440  0.00  0.00    +0.000 C 
ATOM     22  N   UNL     1       1.092   9.830  19.452  0.00  0.00    +0.000 N 
ATOM     23  H   UNL     1       1.011   9.308  20.316  0.00  0.00    +0.000 HD
BRANCH  22  24
ATOM     24  C   UNL     1       0.571  11.148  19.466  0.00  0.00    +0.000 A 
ATOM     25  C   UNL     1      -0.415  11.602  18.585  0.00  0.00    +0.000 A 
ATOM     26  C   UNL     1      -0.861  12.927  18.627  0.00  0.00    +0.000 A 
ATOM     27  C   UNL     1      -0.342  13.825  19.560  0.00  0.00    +0.000 A 
ATOM     28  C   UNL     1       0.657  13.377  20.421  0.00  0.00    +0.000 A 
ATOM     29  F   UNL     1       1.276  14.229  21.250  0.00  0.00    +0.000 F 
ATOM     30  C   UNL     1       1.089  12.048  20.404  0.00  0.00    +0.000 A 
BRANCH  27  31
ATOM     31  O   UNL     1      -0.815  15.096  19.456  0.00  0.00    +0.000 OA
BRANCH  31  32
ATOM     32  C   UNL     1      -0.019  16.079  18.806  0.00  0.00    +0.000 C 
ATOM     33  F   UNL     1      -0.631  16.708  17.783  0.00  0.00    +0.000 F 
ATOM     34  F   UNL     1       0.397  16.989  19.712  0.00  0.00    +0.000 F 
ATOM     35  F   UNL     1       1.076  15.462  18.302  0.00  0.00    +0.000 F 
ENDBRANCH  31  32
ENDBRANCH  27  31
ENDBRANCH  22  24
ENDBRANCH   1  21
TORSDOF 7
ENDMDL
MODEL 9
REMARK VINA RESULT:      -8.1      1.310      1.776
REMARK  Name = 
REMARK  7 active torsions:
REMARK  status: ('A' for Active; 'I' for Inactive)
REMARK    1  A    between atoms: C_2  and  C_16
REMARK    2  A    between atoms: N_3  and  C_4
REMARK    3  A    between atoms: C_7  and  O_8
REMARK    4  A    between atoms: O_8  and  C_9
REMARK    5  A    between atoms: C_19  and  N_20
REMARK    6  A    between atoms: C_23  and  O_24
REMARK    7  A    between atoms: C_26  and  C_27
REMARK                            x       y       z     vdW  Elec       q    Type
REMARK                         _______ _______ _______ _____ _____    ______ ____
ROOT
ATOM      1  C   UNL     1       2.481   7.680  18.533  0.00  0.00    +0.000 A 
ATOM      2  C   UNL     1       3.427   8.204  17.677  0.00  0.00    +0.000 A 
ATOM      3  N   UNL     1       4.310   7.446  16.970  0.00  0.00    +0.000 NA
ATOM      4  C   UNL     1       4.295   6.095  17.117  0.00  0.00    +0.000 A 
ATOM      5  C   UNL     1       3.383   5.467  18.007  0.00  0.00    +0.000 A 
ATOM      6  C   UNL     1       2.472   6.296  18.693  0.00  0.00    +0.000 A 
ENDROOT
BRANCH   5   7
ATOM      7  C   UNL     1       3.406   4.026  18.327  0.00  0.00    +0.000 A 
ATOM      8  C   UNL     1       4.112   3.502  19.399  0.00  0.00    +0.000 A 
ATOM      9  N   UNL     1       4.203   2.191  19.706  0.00  0.00    +0.000 NA
ATOM     10  C   UNL     1       3.510   1.367  18.913  0.00  0.00    +0.000 A 
ATOM     11  N   UNL     1       2.742   1.737  17.878  0.00  0.00    +0.000 NA
ATOM     12  C   UNL     1       2.710   3.062  17.616  0.00  0.00    +0.000 A 
ENDBRANCH   5   7
BRANCH   4  13
ATOM     13  N   UNL     1       5.251   5.351  16.437  0.00  0.00    +0.000 N 
ATOM     14  C   UNL     1       6.533   5.057  17.085  0.00  0.00    +0.000 C 
ATOM     15  C   UNL     1       7.512   4.766  15.935  0.00  0.00    +0.000 C 
ATOM     16  C   UNL     1       6.636   4.647  14.696  0.00  0.00    +0.000 C 
ATOM     17  C   UNL     1       5.478   5.608  15.007  0.00  0.00    +0.000 C 
BRANCH  16  18
ATOM     18  O   UNL     1       6.189   3.298  14.560  0.00  0.00    +0.000 OA
ATOM     19  H   UNL     1       5.352   3.219  15.051  0.00  0.00    +0.000 HD
ENDBRANCH  16  18
ENDBRANCH   4  13
BRANCH   1  21
ATOM     20  O   UNL     1       1.302   8.062  20.485  0.00  0.00    +0.000 OA
ATOM     21  C   UNL     1       1.567   8.495  19.371  0.00  0.00    +0.000 C 
ATOM     22  N   UNL     1       1.027   9.633  18.786  0.00  0.00    +0.000 N 
ATOM     23  H   UNL     1       1.182   9.775  17.794  0.00  0.00    +0.000 HD
BRANCH  22  24
ATOM     24  C   UNL     1       0.093  10.503  19.403  0.00  0.00    +0.000 A 
ATOM     25  C   UNL     1      -1.212  10.694  18.941  0.00  0.00    +0.000 A 
ATOM     26  C   UNL     1      -2.073  11.596  19.575  0.00  0.00    +0.000 A 
ATOM     27  C   UNL     1      -1.655  12.316  20.694  0.00  0.00    +0.000 A 
ATOM     28  C   UNL     1      -0.347  12.141  21.139  0.00  0.00    +0.000 A 
ATOM     29  F   UNL     1       0.144  12.897  22.131  0.00  0.00    +0.000 F 
ATOM     30  C   UNL     1       0.511  11.222  20.528  0.00  0.00    +0.000 A 
BRANCH  27  31
ATOM     31  O   UNL     1      -2.566  13.201  21.178  0.00  0.00    +0.000 OA
BRANCH  31  32
ATOM     32  C   UNL     1      -3.426  12.799  22.238  0.00  0.00    +0.000 C 
ATOM     33  F   UNL     1      -2.927  11.825  23.024  0.00  0.00    +0.000 F 
ATOM     34  F   UNL     1      -3.738  13.873  22.993  0.00  0.00    +0.000 F 
ATOM     35  F   UNL     1      -4.571  12.328  21.689  0.00  0.00    +0.000 F 
ENDBRANCH  31  32
ENDBRANCH  27  31
ENDBRANCH  22  24
ENDBRANCH   1  21
TORSDOF 7
ENDMDL
