MODEL 1
REMARK VINA RESULT:      -8.2      0.000      0.000
REMARK  Name = 
REMARK  6 active torsions:
REMARK  status: ('A' for Active; 'I' for Inactive)
REMARK    1  A    between atoms: C_1  and  C_2
REMARK    2  A    between atoms: C_2  and  N_3
REMARK    3  A    between atoms: C_9  and  S_10
REMARK    4  A    between atoms: S_10  and  N_13
REMARK    5  A    between atoms: N_13  and  C_14
REMARK    6  A    between atoms: C_14  and  C_15
REMARK                            x       y       z     vdW  Elec       q    Type
REMARK                         _______ _______ _______ _____ _____    ______ ____
ROOT
ATOM      1  N   UNL     1       2.120   3.936  19.569  0.00  0.00    +0.000 N 
ATOM      2  C   UNL     1       2.650   5.028  20.380  0.00  0.00    +0.000 C 
ATOM      3  C   UNL     1       2.298   6.401  19.813  0.00  0.00    +0.000 C 
ATOM      4  C   UNL     1       2.454   6.491  18.297  0.00  0.00    +0.000 C 
ATOM      5  N   UNL     1       3.621   5.777  17.810  0.00  0.00    +0.000 N 
ATOM      6  C   UNL     1       4.713   6.350  17.220  0.00  0.00    +0.000 A 
ATOM      7  C   UNL     1       5.548   5.331  16.811  0.00  0.00    +0.000 A 
ATOM      8  C   UNL     1       4.941   4.106  17.185  0.00  0.00    +0.000 A 
ATOM      9  C   UNL     1       3.760   4.402  17.849  0.00  0.00    +0.000 A 
ATOM     10  C   UNL     1       2.802   3.476  18.436  0.00  0.00    +0.000 C 
ATOM     11  O   UNL     1       2.608   2.359  17.965  0.00  0.00    +0.000 OA
ENDROOT
BRANCH   7  12
ATOM     12  S   UNL     1       7.065   5.522  15.998  0.00  0.00    +0.000 S 
ATOM     13  O   UNL     1       7.539   6.818  16.435  0.00  0.00    +0.000 OA
ATOM     14  O   UNL     1       7.771   4.293  16.265  0.00  0.00    +0.000 OA
BRANCH  12  15
ATOM     15  N   UNL     1       6.724   5.584  14.341  0.00  0.00    +0.000 NA
ATOM     16  H   UNL     1       6.866   6.528  13.985  0.00  0.00    +0.000 HD
BRANCH  15  17
ATOM     17  C   UNL     1       7.417   4.558  13.545  0.00  0.00    +0.000 C 
BRANCH  17  18
ATOM     18  C   UNL     1       6.472   3.759  12.679  0.00  0.00    +0.000 A 
ATOM     19  C   UNL     1       5.120   4.126  12.590  0.00  0.00    +0.000 A 
ATOM     20  C   UNL     1       4.224   3.371  11.831  0.00  0.00    +0.000 A 
ATOM     21  C   UNL     1       4.664   2.235  11.158  0.00  0.00    +0.000 A 
ATOM     22  C   UNL     1       6.003   1.869  11.246  0.00  0.00    +0.000 A 
ATOM     23  F   UNL     1       6.427   0.773  10.600  0.00  0.00    +0.000 F 
ATOM     24  C   UNL     1       6.908   2.616  11.993  0.00  0.00    +0.000 A 
ENDBRANCH  17  18
ENDBRANCH  15  17
ENDBRANCH  12  15
ENDBRANCH   7  12
BRANCH   1  26
ATOM     25  C   UNL     1       1.309   2.524  21.439  0.00  0.00    +0.000 C 
ATOM     26  C   UNL     1       1.002   3.161  20.094  0.00  0.00    +0.000 C 
ENDBRANCH   1  26
TORSDOF 5
ENDMDL
MODEL 2
REMARK VINA RESULT:      -7.9      0.957      1.328
REMARK  Name = 
REMARK  6 active torsions:
REMARK  status: ('A' for Active; 'I' for Inactive)
REMARK    1  A    between atoms: C_1  and  C_2
REMARK    2  A    between atoms: C_2  and  N_3
REMARK    3  A    between atoms: C_9  and  S_10
REMARK    4  A    between atoms: S_10  and  N_13
REMARK    5  A    between atoms: N_13  and  C_14
REMARK    6  A    between atoms: C_14  and  C_15
REMARK                            x       y       z     vdW  Elec       q    Type
REMARK                         _______ _______ _______ _____ _____    ______ ____
ROOT
ATOM      1  N   UNL     1       2.169   3.988  19.722  0.00  0.00    +0.000 N 
ATOM      2  C   UNL     1       2.623   5.129  20.512  0.00  0.00    +0.000 C 
ATOM      3  C   UNL     1       2.298   6.465  19.848  0.00  0.00    +0.000 C 
ATOM      4  C   UNL     1       2.567   6.478  18.345  0.00  0.00    +0.000 C 
ATOM      5  N   UNL     1       3.776   5.759  17.985  0.00  0.00    +0.000 N 
ATOM      6  C   UNL     1       4.902   6.318  17.449  0.00  0.00    +0.000 A 
ATOM      7  C   UNL     1       5.778   5.293  17.157  0.00  0.00    +0.000 A 
ATOM      8  C   UNL     1       5.159   4.079  17.549  0.00  0.00    +0.000 A 
ATOM      9  C   UNL     1       3.928   4.390  18.107  0.00  0.00    +0.000 A 
ATOM     10  C   UNL     1       2.940   3.481  18.669  0.00  0.00    +0.000 C 
ATOM     11  O   UNL     1       2.795   2.338  18.245  0.00  0.00    +0.000 OA
ENDROOT
BRANCH   7  12
ATOM     12  S   UNL     1       7.349   5.466  16.450  0.00  0.00    +0.000 S 
ATOM     13  O   UNL     1       7.643   6.876  16.583  0.00  0.00    +0.000 OA
ATOM     14  O   UNL     1       8.139   4.434  17.077  0.00  0.00    +0.000 OA
BRANCH  12  15
ATOM     15  N   UNL     1       7.189   5.083  14.809  0.00  0.00    +0.000 NA
ATOM     16  H   UNL     1       7.802   4.305  14.565  0.00  0.00    +0.000 HD
BRANCH  15  17
ATOM     17  C   UNL     1       5.799   4.880  14.371  0.00  0.00    +0.000 C 
BRANCH  17  18
ATOM     18  C   UNL     1       5.692   3.933  13.199  0.00  0.00    +0.000 A 
ATOM     19  C   UNL     1       6.831   3.255  12.737  0.00  0.00    +0.000 A 
ATOM     20  C   UNL     1       6.759   2.412  11.626  0.00  0.00    +0.000 A 
ATOM     21  C   UNL     1       5.551   2.243  10.956  0.00  0.00    +0.000 A 
ATOM     22  C   UNL     1       4.421   2.917  11.410  0.00  0.00    +0.000 A 
ATOM     23  F   UNL     1       3.258   2.757  10.764  0.00  0.00    +0.000 F 
ATOM     24  C   UNL     1       4.478   3.753  12.520  0.00  0.00    +0.000 A 
ENDBRANCH  17  18
ENDBRANCH  15  17
ENDBRANCH  12  15
ENDBRANCH   7  12
BRANCH   1  26
ATOM     25  C   UNL     1       1.243   2.649  21.593  0.00  0.00    +0.000 C 
ATOM     26  C   UNL     1       1.025   3.223  20.202  0.00  0.00    +0.000 C 
ENDBRANCH   1  26
TORSDOF 5
ENDMDL
MODEL 3
REMARK VINA RESULT:      -7.8      1.550      1.961
REMARK  Name = 
REMARK  6 active torsions:
REMARK  status: ('A' for Active; 'I' for Inactive)
REMARK    1  A    between atoms: C_1  and  C_2
REMARK    2  A    between atoms: C_2  and  N_3
REMARK    3  A    between atoms: C_9  and  S_10
REMARK    4  A    between atoms: S_10  and  N_13
REMARK    5  A    between atoms: N_13  and  C_14
REMARK    6  A    between atoms: C_14  and  C_15
REMARK                            x       y       z     vdW  Elec       q    Type
REMARK                         _______ _______ _______ _____ _____    ______ ____
ROOT
ATOM      1  N   UNL     1       2.971   3.069  20.443  0.00  0.00    +0.000 N 
ATOM      2  C   UNL     1       2.193   4.247  20.075  0.00  0.00    +0.000 C 
ATOM      3  C   UNL     1       1.435   4.060  18.763  0.00  0.00    +0.000 C 
ATOM      4  C   UNL     1       2.260   3.376  17.676  0.00  0.00    +0.000 C 
ATOM      5  N   UNL     1       3.645   3.815  17.663  0.00  0.00    +0.000 N 
ATOM      6  C   UNL     1       4.247   4.514  16.655  0.00  0.00    +0.000 A 
ATOM      7  C   UNL     1       5.581   4.646  16.979  0.00  0.00    +0.000 A 
ATOM      8  C   UNL     1       5.780   4.018  18.234  0.00  0.00    +0.000 A 
ATOM      9  C   UNL     1       4.552   3.544  18.671  0.00  0.00    +0.000 A 
ATOM     10  C   UNL     1       4.248   2.847  19.912  0.00  0.00    +0.000 C 
ATOM     11  O   UNL     1       5.065   2.110  20.459  0.00  0.00    +0.000 OA
ENDROOT
BRANCH   7  12
ATOM     12  S   UNL     1       6.787   5.444  16.024  0.00  0.00    +0.000 S 
ATOM     13  O   UNL     1       6.779   6.806  16.513  0.00  0.00    +0.000 OA
ATOM     14  O   UNL     1       7.939   4.581  16.111  0.00  0.00    +0.000 OA
BRANCH  12  15
ATOM     15  N   UNL     1       6.233   5.424  14.425  0.00  0.00    +0.000 NA
ATOM     16  H   UNL     1       5.943   6.358  14.138  0.00  0.00    +0.000 HD
BRANCH  15  17
ATOM     17  C   UNL     1       7.161   4.791  13.473  0.00  0.00    +0.000 C 
BRANCH  17  18
ATOM     18  C   UNL     1       6.487   3.752  12.610  0.00  0.00    +0.000 A 
ATOM     19  C   UNL     1       7.251   2.751  11.990  0.00  0.00    +0.000 A 
ATOM     20  C   UNL     1       6.649   1.810  11.151  0.00  0.00    +0.000 A 
ATOM     21  C   UNL     1       5.279   1.862  10.915  0.00  0.00    +0.000 A 
ATOM     22  C   UNL     1       4.520   2.854  11.527  0.00  0.00    +0.000 A 
ATOM     23  F   UNL     1       3.200   2.906  11.297  0.00  0.00    +0.000 F 
ATOM     24  C   UNL     1       5.106   3.792  12.370  0.00  0.00    +0.000 A 
ENDBRANCH  17  18
ENDBRANCH  15  17
ENDBRANCH  12  15
ENDBRANCH   7  12
BRANCH   1  26
ATOM     25  C   UNL     1       1.094   2.593  21.991  0.00  0.00    +0.000 C 
ATOM     26  C   UNL     1       2.512   2.255  21.562  0.00  0.00    +0.000 C 
ENDBRANCH   1  26
TORSDOF 5
ENDMDL
MODEL 4
REMARK VINA RESULT:      -7.6      0.996      1.046
REMARK  Name = 
REMARK  6 active torsions:
REMARK  status: ('A' for Active; 'I' for Inactive)
REMARK    1  A    between atoms: C_1  and  C_2
REMARK    2  A    between atoms: C_2  and  N_3
REMARK    3  A    between atoms: C_9  and  S_10
REMARK    4  A    between atoms: S_10  and  N_13
REMARK    5  A    between atoms: N_13  and  C_14
REMARK    6  A    between atoms: C_14  and  C_15
REMARK                            x       y       z     vdW  Elec       q    Type
REMARK                         _______ _______ _______ _____ _____    ______ ____
ROOT
ATOM      1  N   UNL     1       2.942   3.975  20.599  0.00  0.00    +0.000 N 
ATOM      2  C   UNL     1       2.658   5.402  20.478  0.00  0.00    +0.000 C 
ATOM      3  C   UNL     1       1.812   5.726  19.249  0.00  0.00    +0.000 C 
ATOM      4  C   UNL     1       2.245   4.971  17.995  0.00  0.00    +0.000 C 
ATOM      5  N   UNL     1       3.688   4.859  17.878  0.00  0.00    +0.000 N 
ATOM      6  C   UNL     1       4.453   5.437  16.904  0.00  0.00    +0.000 A 
ATOM      7  C   UNL     1       5.752   5.009  17.086  0.00  0.00    +0.000 A 
ATOM      8  C   UNL     1       5.766   4.157  18.219  0.00  0.00    +0.000 A 
ATOM      9  C   UNL     1       4.478   4.110  18.731  0.00  0.00    +0.000 A 
ATOM     10  C   UNL     1       4.002   3.383  19.899  0.00  0.00    +0.000 C 
ATOM     11  O   UNL     1       4.501   2.318  20.249  0.00  0.00    +0.000 OA
ENDROOT
BRANCH   7  12
ATOM     12  S   UNL     1       7.114   5.444  16.108  0.00  0.00    +0.000 S 
ATOM     13  O   UNL     1       7.446   6.784  16.543  0.00  0.00    +0.000 OA
ATOM     14  O   UNL     1       8.017   4.327  16.236  0.00  0.00    +0.000 OA
BRANCH  12  15
ATOM     15  N   UNL     1       6.566   5.498  14.507  0.00  0.00    +0.000 NA
ATOM     16  H   UNL     1       6.491   6.464  14.191  0.00  0.00    +0.000 HD
BRANCH  15  17
ATOM     17  C   UNL     1       7.329   4.646  13.581  0.00  0.00    +0.000 C 
BRANCH  17  18
ATOM     18  C   UNL     1       6.436   3.809  12.695  0.00  0.00    +0.000 A 
ATOM     19  C   UNL     1       5.069   4.108  12.591  0.00  0.00    +0.000 A 
ATOM     20  C   UNL     1       4.221   3.316  11.814  0.00  0.00    +0.000 A 
ATOM     21  C   UNL     1       4.727   2.210  11.137  0.00  0.00    +0.000 A 
ATOM     22  C   UNL     1       6.082   1.910  11.241  0.00  0.00    +0.000 A 
ATOM     23  F   UNL     1       6.569   0.843  10.592  0.00  0.00    +0.000 F 
ATOM     24  C   UNL     1       6.938   2.695  12.006  0.00  0.00    +0.000 A 
ENDBRANCH  17  18
ENDBRANCH  15  17
ENDBRANCH  12  15
ENDBRANCH   7  12
BRANCH   1  26
ATOM     25  C   UNL     1       1.046   2.475  21.148  0.00  0.00    +0.000 C 
ATOM     26  C   UNL     1       2.271   3.221  21.650  0.00  0.00    +0.000 C 
ENDBRANCH   1  26
TORSDOF 5
ENDMDL
MODEL 5
REMARK VINA RESULT:      -7.5      1.557      2.426
REMARK  Name = 
REMARK  6 active torsions:
REMARK  status: ('A' for Active; 'I' for Inactive)
REMARK    1  A    between atoms: C_1  and  C_2
REMARK    2  A    between atoms: C_2  and  N_3
REMARK    3  A    between atoms: C_9  and  S_10
REMARK    4  A    between atoms: S_10  and  N_13
REMARK    5  A    between atoms: N_13  and  C_14
REMARK    6  A    between atoms: C_14  and  C_15
REMARK                            x       y       z     vdW  Elec       q    Type
REMARK                         _______ _______ _______ _____ _____    ______ ____
ROOT
ATOM      1  N   UNL     1       1.782   3.495  19.156  0.00  0.00    +0.000 N 
ATOM      2  C   UNL     1       1.950   2.399  18.206  0.00  0.00    +0.000 C 
ATOM      3  C   UNL     1       3.167   1.534  18.522  0.00  0.00    +0.000 C 
ATOM      4  C   UNL     1       4.402   2.341  18.913  0.00  0.00    +0.000 C 
ATOM      5  N   UNL     1       4.552   3.553  18.128  0.00  0.00    +0.000 N 
ATOM      6  C   UNL     1       5.567   3.808  17.249  0.00  0.00    +0.000 A 
ATOM      7  C   UNL     1       5.404   5.099  16.788  0.00  0.00    +0.000 A 
ATOM      8  C   UNL     1       4.240   5.627  17.401  0.00  0.00    +0.000 A 
ATOM      9  C   UNL     1       3.693   4.634  18.200  0.00  0.00    +0.000 A 
ATOM     10  C   UNL     1       2.486   4.697  19.011  0.00  0.00    +0.000 C 
ATOM     11  O   UNL     1       2.109   5.742  19.534  0.00  0.00    +0.000 OA
ENDROOT
BRANCH   7  12
ATOM     12  S   UNL     1       6.433   5.914  15.658  0.00  0.00    +0.000 S 
ATOM     13  O   UNL     1       5.514   6.600  14.776  0.00  0.00    +0.000 OA
ATOM     14  O   UNL     1       7.395   6.602  16.483  0.00  0.00    +0.000 OA
BRANCH  12  15
ATOM     15  N   UNL     1       7.248   4.713  14.787  0.00  0.00    +0.000 NA
ATOM     16  H   UNL     1       6.891   3.791  15.035  0.00  0.00    +0.000 HD
BRANCH  15  17
ATOM     17  C   UNL     1       7.287   4.944  13.334  0.00  0.00    +0.000 C 
BRANCH  17  18
ATOM     18  C   UNL     1       6.582   3.859  12.556  0.00  0.00    +0.000 A 
ATOM     19  C   UNL     1       7.319   2.804  11.995  0.00  0.00    +0.000 A 
ATOM     20  C   UNL     1       6.688   1.818  11.233  0.00  0.00    +0.000 A 
ATOM     21  C   UNL     1       5.315   1.878  11.014  0.00  0.00    +0.000 A 
ATOM     22  C   UNL     1       4.583   2.924  11.567  0.00  0.00    +0.000 A 
ATOM     23  F   UNL     1       3.261   2.983  11.355  0.00  0.00    +0.000 F 
ATOM     24  C   UNL     1       5.198   3.907  12.334  0.00  0.00    +0.000 A 
ENDBRANCH  17  18
ENDBRANCH  15  17
ENDBRANCH  12  15
ENDBRANCH   7  12
BRANCH   1  26
ATOM     25  C   UNL     1       1.137   2.959  21.490  0.00  0.00    +0.000 C 
ATOM     26  C   UNL     1       0.685   3.421  20.114  0.00  0.00    +0.000 C 
ENDBRANCH   1  26
TORSDOF 5
ENDMDL
MODEL 6
REMARK VINA RESULT:      -7.4      4.467      6.373
REMARK  Name = 
REMARK  6 active torsions:
REMARK  status: ('A' for Active; 'I' for Inactive)
REMARK    1  A    between atoms: C_1  and  C_2
REMARK    2  A    between atoms: C_2  and  N_3
REMARK    3  A    between atoms: C_9  and  S_10
REMARK    4  A    between atoms: S_10  and  N_13
REMARK    5  A    between atoms: N_13  and  C_14
REMARK    6  A    between atoms: C_14  and  C_15
REMARK                            x       y       z     vdW  Elec       q    Type
REMARK                         _______ _______ _______ _____ _____    ______ ____
ROOT
ATOM      1  N   UNL     1       0.960   9.958  19.180  0.00  0.00    +0.000 N 
ATOM      2  C   UNL     1      -0.113   9.379  19.983  0.00  0.00    +0.000 C 
ATOM      3  C   UNL     1       0.362   8.949  21.369  0.00  0.00    +0.000 C 
ATOM      4  C   UNL     1       1.713   8.239  21.356  0.00  0.00    +0.000 C 
ATOM      5  N   UNL     1       1.866   7.344  20.222  0.00  0.00    +0.000 N 
ATOM      6  C   UNL     1       1.977   5.984  20.294  0.00  0.00    +0.000 A 
ATOM      7  C   UNL     1       2.207   5.517  19.016  0.00  0.00    +0.000 A 
ATOM      8  C   UNL     1       2.217   6.638  18.148  0.00  0.00    +0.000 A 
ATOM      9  C   UNL     1       1.956   7.767  18.909  0.00  0.00    +0.000 A 
ATOM     10  C   UNL     1       1.847   9.147  18.460  0.00  0.00    +0.000 C 
ATOM     11  O   UNL     1       2.493   9.573  17.506  0.00  0.00    +0.000 OA
ENDROOT
BRANCH   7  12
ATOM     12  S   UNL     1       2.433   3.861  18.562  0.00  0.00    +0.000 S 
ATOM     13  O   UNL     1       2.073   3.117  19.750  0.00  0.00    +0.000 OA
ATOM     14  O   UNL     1       1.729   3.735  17.310  0.00  0.00    +0.000 OA
BRANCH  12  15
ATOM     15  N   UNL     1       4.086   3.660  18.260  0.00  0.00    +0.000 NA
ATOM     16  H   UNL     1       4.311   2.671  18.162  0.00  0.00    +0.000 HD
BRANCH  15  17
ATOM     17  C   UNL     1       4.599   4.480  17.150  0.00  0.00    +0.000 C 
BRANCH  17  18
ATOM     18  C   UNL     1       5.734   5.382  17.572  0.00  0.00    +0.000 A 
ATOM     19  C   UNL     1       5.911   6.627  16.949  0.00  0.00    +0.000 A 
ATOM     20  C   UNL     1       6.984   7.453  17.295  0.00  0.00    +0.000 A 
ATOM     21  C   UNL     1       7.896   7.042  18.261  0.00  0.00    +0.000 A 
ATOM     22  C   UNL     1       7.724   5.807  18.878  0.00  0.00    +0.000 A 
ATOM     23  F   UNL     1       8.605   5.409  19.807  0.00  0.00    +0.000 F 
ATOM     24  C   UNL     1       6.657   4.979  18.548  0.00  0.00    +0.000 A 
ENDBRANCH  17  18
ENDBRANCH  15  17
ENDBRANCH  12  15
ENDBRANCH   7  12
BRANCH   1  26
ATOM     25  C   UNL     1      -0.418  12.019  19.187  0.00  0.00    +0.000 C 
ATOM     26  C   UNL     1       0.944  11.394  18.933  0.00  0.00    +0.000 C 
ENDBRANCH   1  26
TORSDOF 5
ENDMDL
MODEL 7
REMARK VINA RESULT:      -7.4      4.485      6.345
REMARK  Name = 
REMARK  6 active torsions:
REMARK  status: ('A' for Active; 'I' for Inactive)
REMARK    1  A    between atoms: C_1  and  C_2
REMARK    2  A    between atoms: C_2  and  N_3
REMARK    3  A    between atoms: C_9  and  S_10
REMARK    4  A    between atoms: S_10  and  N_13
REMARK    5  A    between atoms: N_13  and  C_14
REMARK    6  A    between atoms: C_14  and  C_15
REMARK                            x       y       z     vdW  Elec       q    Type
REMARK                         _______ _______ _______ _____ _____    ______ ____
ROOT
ATOM      1  N   UNL     1       2.335   3.442  20.080  0.00  0.00    +0.000 N 
ATOM      2  C   UNL     1       2.468   4.702  20.806  0.00  0.00    +0.000 C 
ATOM      3  C   UNL     1       1.957   5.895  20.002  0.00  0.00    +0.000 C 
ATOM      4  C   UNL     1       2.374   5.864  18.535  0.00  0.00    +0.000 C 
ATOM      5  N   UNL     1       3.733   5.387  18.348  0.00  0.00    +0.000 N 
ATOM      6  C   UNL     1       4.776   6.130  17.869  0.00  0.00    +0.000 A 
ATOM      7  C   UNL     1       5.864   5.289  17.748  0.00  0.00    +0.000 A 
ATOM      8  C   UNL     1       5.460   4.003  18.185  0.00  0.00    +0.000 A 
ATOM      9  C   UNL     1       4.140   4.090  18.601  0.00  0.00    +0.000 A 
ATOM     10  C   UNL     1       3.299   3.036  19.148  0.00  0.00    +0.000 C 
ATOM     11  O   UNL     1       3.429   1.862  18.813  0.00  0.00    +0.000 OA
ENDROOT
BRANCH   7  12
ATOM     12  S   UNL     1       7.436   5.735  17.173  0.00  0.00    +0.000 S 
ATOM     13  O   UNL     1       8.270   4.602  17.513  0.00  0.00    +0.000 OA
ATOM     14  O   UNL     1       7.211   6.169  15.816  0.00  0.00    +0.000 OA
BRANCH  12  15
ATOM     15  N   UNL     1       7.924   7.077  18.082  0.00  0.00    +0.000 NA
ATOM     16  H   UNL     1       8.912   7.005  18.319  0.00  0.00    +0.000 HD
BRANCH  15  17
ATOM     17  C   UNL     1       7.570   8.373  17.480  0.00  0.00    +0.000 C 
BRANCH  17  18
ATOM     18  C   UNL     1       8.349   9.521  18.075  0.00  0.00    +0.000 A 
ATOM     19  C   UNL     1       9.055   9.344  19.275  0.00  0.00    +0.000 A 
ATOM     20  C   UNL     1       9.743  10.409  19.863  0.00  0.00    +0.000 A 
ATOM     21  C   UNL     1       9.727  11.664  19.264  0.00  0.00    +0.000 A 
ATOM     22  C   UNL     1       9.026  11.843  18.075  0.00  0.00    +0.000 A 
ATOM     23  F   UNL     1       9.008  13.053  17.500  0.00  0.00    +0.000 F 
ATOM     24  C   UNL     1       8.343  10.790  17.476  0.00  0.00    +0.000 A 
ENDBRANCH  17  18
ENDBRANCH  15  17
ENDBRANCH  12  15
ENDBRANCH   7  12
BRANCH   1  26
ATOM     25  C   UNL     1       1.211   2.407  22.033  0.00  0.00    +0.000 C 
ATOM     26  C   UNL     1       1.321   2.492  20.519  0.00  0.00    +0.000 C 
ENDBRANCH   1  26
TORSDOF 5
ENDMDL
MODEL 8
REMARK VINA RESULT:      -7.3      4.522      6.523
REMARK  Name = 
REMARK  6 active torsions:
REMARK  status: ('A' for Active; 'I' for Inactive)
REMARK    1  A    between atoms: C_1  and  C_2
REMARK    2  A    between atoms: C_2  and  N_3
REMARK    3  A    between atoms: C_9  and  S_10
REMARK    4  A    between atoms: S_10  and  N_13
REMARK    5  A    between atoms: N_13  and  C_14
REMARK    6  A    between atoms: C_14  and  C_15
REMARK                            x       y       z     vdW  Elec       q    Type
REMARK                         _______ _______ _______ _____ _____    ______ ____
ROOT
ATOM      1  N   UNL     1       0.871  10.148  19.167  0.00  0.00    +0.000 N 
ATOM      2  C   UNL     1      -0.193   9.540  19.960  0.00  0.00    +0.000 C 
ATOM      3  C   UNL     1       0.284   9.113  21.346  0.00  0.00    +0.000 C 
ATOM      4  C   UNL     1       1.651   8.434  21.337  0.00  0.00    +0.000 C 
ATOM      5  N   UNL     1       1.831   7.550  20.199  0.00  0.00    +0.000 N 
ATOM      6  C   UNL     1       1.973   6.192  20.263  0.00  0.00    +0.000 A 
ATOM      7  C   UNL     1       2.221   5.738  18.984  0.00  0.00    +0.000 A 
ATOM      8  C   UNL     1       2.210   6.864  18.123  0.00  0.00    +0.000 A 
ATOM      9  C   UNL     1       1.919   7.983  18.889  0.00  0.00    +0.000 A 
ATOM     10  C   UNL     1       1.780   9.362  18.447  0.00  0.00    +0.000 C 
ATOM     11  O   UNL     1       2.421   9.808  17.499  0.00  0.00    +0.000 OA
ENDROOT
BRANCH   7  12
ATOM     12  S   UNL     1       2.487   4.090  18.522  0.00  0.00    +0.000 S 
ATOM     13  O   UNL     1       2.124   3.331  19.699  0.00  0.00    +0.000 OA
ATOM     14  O   UNL     1       1.805   3.959  17.258  0.00  0.00    +0.000 OA
BRANCH  12  15
ATOM     15  N   UNL     1       4.149   3.926  18.243  0.00  0.00    +0.000 NA
ATOM     16  H   UNL     1       4.384   2.948  18.075  0.00  0.00    +0.000 HD
BRANCH  15  17
ATOM     17  C   UNL     1       4.679   4.832  17.211  0.00  0.00    +0.000 C 
BRANCH  17  18
ATOM     18  C   UNL     1       5.907   5.580  17.673  0.00  0.00    +0.000 A 
ATOM     19  C   UNL     1       6.735   5.029  18.663  0.00  0.00    +0.000 A 
ATOM     20  C   UNL     1       7.848   5.730  19.134  0.00  0.00    +0.000 A 
ATOM     21  C   UNL     1       8.142   6.992  18.628  0.00  0.00    +0.000 A 
ATOM     22  C   UNL     1       7.321   7.541  17.648  0.00  0.00    +0.000 A 
ATOM     23  F   UNL     1       7.603   8.759  17.163  0.00  0.00    +0.000 F 
ATOM     24  C   UNL     1       6.214   6.851  17.166  0.00  0.00    +0.000 A 
ENDBRANCH  17  18
ENDBRANCH  15  17
ENDBRANCH  12  15
ENDBRANCH   7  12
BRANCH   1  26
ATOM     25  C   UNL     1      -0.575  12.160  19.083  0.00  0.00    +0.000 C 
ATOM     26  C   UNL     1       0.823  11.585  18.927  0.00  0.00    +0.000 C 
ENDBRANCH   1  26
TORSDOF 5
ENDMDL
MODEL 9
REMARK VINA RESULT:      -7.3      1.858      2.666
REMARK  Name = 
REMARK  6 active torsions:
REMARK  status: ('A' for Active; 'I' for Inactive)
REMARK    1  A    between atoms: C_1  and  C_2
REMARK    2  A    between atoms: C_2  and  N_3
REMARK    3  A    between atoms: C_9  and  S_10
REMARK    4  A    between atoms: S_10  and  N_13
REMARK    5  A    between atoms: N_13  and  C_14
REMARK    6  A    between atoms: C_14  and  C_15
REMARK                            x       y       z     vdW  Elec       q    Type
REMARK                         _______ _______ _______ _____ _____    ______ ____
ROOT
ATOM      1  N   UNL     1       1.999   3.492  19.683  0.00  0.00    +0.000 N 
ATOM      2  C   UNL     1       2.316   2.652  18.531  0.00  0.00    +0.000 C 
ATOM      3  C   UNL     1       3.538   1.769  18.772  0.00  0.00    +0.000 C 
ATOM      4  C   UNL     1       4.685   2.493  19.470  0.00  0.00    +0.000 C 
ATOM      5  N   UNL     1       4.853   3.859  19.005  0.00  0.00    +0.000 N 
ATOM      6  C   UNL     1       5.937   4.338  18.324  0.00  0.00    +0.000 A 
ATOM      7  C   UNL     1       5.756   5.695  18.156  0.00  0.00    +0.000 A 
ATOM      8  C   UNL     1       4.512   6.036  18.743  0.00  0.00    +0.000 A 
ATOM      9  C   UNL     1       3.937   4.870  19.228  0.00  0.00    +0.000 A 
ATOM     10  C   UNL     1       2.653   4.712  19.895  0.00  0.00    +0.000 C 
ATOM     11  O   UNL     1       2.174   5.596  20.598  0.00  0.00    +0.000 OA
ENDROOT
BRANCH   7  12
ATOM     12  S   UNL     1       6.851   6.778  17.363  0.00  0.00    +0.000 S 
ATOM     13  O   UNL     1       5.992   7.794  16.793  0.00  0.00    +0.000 OA
ATOM     14  O   UNL     1       7.856   7.062  18.358  0.00  0.00    +0.000 OA
BRANCH  12  15
ATOM     15  N   UNL     1       7.581   5.901  16.112  0.00  0.00    +0.000 NA
ATOM     16  H   UNL     1       8.566   5.741  16.320  0.00  0.00    +0.000 HD
BRANCH  15  17
ATOM     17  C   UNL     1       6.864   4.671  15.740  0.00  0.00    +0.000 C 
BRANCH  17  18
ATOM     18  C   UNL     1       6.857   4.432  14.249  0.00  0.00    +0.000 A 
ATOM     19  C   UNL     1       7.721   5.160  13.416  0.00  0.00    +0.000 A 
ATOM     20  C   UNL     1       7.694   4.984  12.031  0.00  0.00    +0.000 A 
ATOM     21  C   UNL     1       6.799   4.086  11.460  0.00  0.00    +0.000 A 
ATOM     22  C   UNL     1       5.940   3.364  12.283  0.00  0.00    +0.000 A 
ATOM     23  F   UNL     1       5.076   2.500  11.733  0.00  0.00    +0.000 F 
ATOM     24  C   UNL     1       5.962   3.525  13.664  0.00  0.00    +0.000 A 
ENDBRANCH  17  18
ENDBRANCH  15  17
ENDBRANCH  12  15
ENDBRANCH   7  12
BRANCH   1  26
ATOM     25  C   UNL     1       1.160   2.621  21.848  0.00  0.00    +0.000 C 
ATOM     26  C   UNL     1       0.817   3.168  20.472  0.00  0.00    +0.000 C 
ENDBRANCH   1  26
TORSDOF 5
ENDMDL
