MODEL 1
REMARK VINA RESULT:      -7.2      0.000      0.000
REMARK  Name = 
REMARK  7 active torsions:
REMARK  status: ('A' for Active; 'I' for Inactive)
REMARK    1  A    between atoms: C_1  and  N_2
REMARK    2  A    between atoms: N_2  and  C_3
REMARK    3  A    between atoms: C_4  and  O_6
REMARK    4  A    between atoms: O_6  and  C_7
REMARK    5  A    between atoms: C_10  and  C_11
REMARK    6  A    between atoms: C_11  and  N_13
REMARK    7  A    between atoms: N_13  and  C_14
REMARK                            x       y       z     vdW  Elec       q    Type
REMARK                         _______ _______ _______ _____ _____    ______ ____
ROOT
ATOM      1  C   UNL     1       3.057   5.205  18.378  0.00  0.00    +0.000 A 
ATOM      2  C   UNL     1       4.033   4.211  18.304  0.00  0.00    +0.000 A 
ATOM      3  C   UNL     1       5.328   4.524  17.896  0.00  0.00    +0.000 A 
ATOM      4  C   UNL     1       5.660   5.829  17.502  0.00  0.00    +0.000 A 
ATOM      5  C   UNL     1       4.669   6.825  17.553  0.00  0.00    +0.000 A 
ATOM      6  C   UNL     1       3.370   6.512  17.989  0.00  0.00    +0.000 A 
ATOM      7 BR   UNL     1       2.058   7.881  17.993  0.00  0.00    +0.000 Br
ENDROOT
BRANCH   4   8
ATOM      8  C   UNL     1       7.020   6.128  16.923  0.00  0.00    +0.000 C 
ATOM      9  S   UNL     1       7.757   7.635  17.159  0.00  0.00    +0.000 S 
BRANCH   8  10
ATOM     10  N   UNL     1       7.546   5.113  16.125  0.00  0.00    +0.000 N 
ATOM     11  H   UNL     1       8.181   4.457  16.571  0.00  0.00    +0.000 HD
BRANCH  10  12
ATOM     12  C   UNL     1       7.204   4.818  14.783  0.00  0.00    +0.000 A 
ATOM     13  C   UNL     1       7.900   5.375  13.702  0.00  0.00    +0.000 A 
ATOM     14  C   UNL     1       7.565   5.048  12.389  0.00  0.00    +0.000 A 
ATOM     15  C   UNL     1       6.532   4.150  12.139  0.00  0.00    +0.000 A 
ATOM     16  C   UNL     1       5.849   3.569  13.207  0.00  0.00    +0.000 A 
ATOM     17  C   UNL     1       6.195   3.888  14.526  0.00  0.00    +0.000 A 
ENDBRANCH  10  12
ENDBRANCH   8  10
ENDBRANCH   4   8
BRANCH   1  18
ATOM     18  O   UNL     1       1.737   4.858  18.725  0.00  0.00    +0.000 OA
BRANCH  18  22
ATOM     19  C   UNL     1       1.247   2.637  21.560  0.00  0.00    +0.000 C 
ATOM     20  N   UNL     1       1.092   3.205  20.234  0.00  0.00    +0.000 N 
ATOM     21  C   UNL     1       0.983   2.301  19.106  0.00  0.00    +0.000 C 
ATOM     22  C   UNL     1       1.524   4.517  20.064  0.00  0.00    +0.000 C 
ATOM     23  O   UNL     1       1.767   5.268  21.007  0.00  0.00    +0.000 OA
ENDBRANCH  18  22
ENDBRANCH   1  18
TORSDOF 5
ENDMDL
MODEL 2
REMARK VINA RESULT:      -7.1      0.049      1.028
REMARK  Name = 
REMARK  7 active torsions:
REMARK  status: ('A' for Active; 'I' for Inactive)
REMARK    1  A    between atoms: C_1  and  N_2
REMARK    2  A    between atoms: N_2  and  C_3
REMARK    3  A    between atoms: C_4  and  O_6
REMARK    4  A    between atoms: O_6  and  C_7
REMARK    5  A    between atoms: C_10  and  C_11
REMARK    6  A    between atoms: C_11  and  N_13
REMARK    7  A    between atoms: N_13  and  C_14
REMARK                            x       y       z     vdW  Elec       q    Type
REMARK                         _______ _______ _______ _____ _____    ______ ____
ROOT
ATOM      1  C   UNL     1       3.035   5.188  18.402  0.00  0.00    +0.000 A 
ATOM      2  C   UNL     1       4.005   4.188  18.320  0.00  0.00    +0.000 A 
ATOM      3  C   UNL     1       5.299   4.494  17.906  0.00  0.00    +0.000 A 
ATOM      4  C   UNL     1       5.637   5.798  17.513  0.00  0.00    +0.000 A 
ATOM      5  C   UNL     1       4.653   6.799  17.571  0.00  0.00    +0.000 A 
ATOM      6  C   UNL     1       3.355   6.494  18.014  0.00  0.00    +0.000 A 
ATOM      7 BR   UNL     1       2.051   7.871  18.027  0.00  0.00    +0.000 Br
ENDROOT
BRANCH   4   8
ATOM      8  C   UNL     1       6.996   6.090  16.927  0.00  0.00    +0.000 C 
ATOM      9  S   UNL     1       7.723   7.607  17.123  0.00  0.00    +0.000 S 
BRANCH   8  10
ATOM     10  N   UNL     1       7.530   5.057  16.158  0.00  0.00    +0.000 N 
ATOM     11  H   UNL     1       8.160   4.411  16.625  0.00  0.00    +0.000 HD
BRANCH  10  12
ATOM     12  C   UNL     1       7.201   4.731  14.819  0.00  0.00    +0.000 A 
ATOM     13  C   UNL     1       6.147   3.863  14.506  0.00  0.00    +0.000 A 
ATOM     14  C   UNL     1       5.823   3.580  13.180  0.00  0.00    +0.000 A 
ATOM     15  C   UNL     1       6.545   4.169  12.148  0.00  0.00    +0.000 A 
ATOM     16  C   UNL     1       7.579   5.055  12.446  0.00  0.00    +0.000 A 
ATOM     17  C   UNL     1       7.896   5.350  13.778  0.00  0.00    +0.000 A 
ENDBRANCH  10  12
ENDBRANCH   8  10
ENDBRANCH   4   8
BRANCH   1  18
ATOM     18  O   UNL     1       1.715   4.849  18.755  0.00  0.00    +0.000 OA
BRANCH  18  22
ATOM     19  C   UNL     1       1.245   2.627  21.593  0.00  0.00    +0.000 C 
ATOM     20  N   UNL     1       1.084   3.193  20.267  0.00  0.00    +0.000 N 
ATOM     21  C   UNL     1       0.980   2.286  19.139  0.00  0.00    +0.000 C 
ATOM     22  C   UNL     1       1.507   4.508  20.094  0.00  0.00    +0.000 C 
ATOM     23  O   UNL     1       1.746   5.261  21.036  0.00  0.00    +0.000 OA
ENDBRANCH  18  22
ENDBRANCH   1  18
TORSDOF 5
ENDMDL
MODEL 3
REMARK VINA RESULT:      -7.0      4.714      7.074
REMARK  Name = 
REMARK  7 active torsions:
REMARK  status: ('A' for Active; 'I' for Inactive)
REMARK    1  A    between atoms: C_1  and  N_2
REMARK    2  A    between atoms: N_2  and  C_3
REMARK    3  A    between atoms: C_4  and  O_6
REMARK    4  A    between atoms: O_6  and  C_7
REMARK    5  A    between atoms: C_10  and  C_11
REMARK    6  A    between atoms: C_11  and  N_13
REMARK    7  A    between atoms: N_13  and  C_14
REMARK                            x       y       z     vdW  Elec       q    Type
REMARK                         _______ _______ _______ _____ _____    ______ ____
ROOT
ATOM      1  C   UNL     1       0.804   9.909  19.452  0.00  0.00    +0.000 A 
ATOM      2  C   UNL     1       1.359   9.826  18.173  0.00  0.00    +0.000 A 
ATOM      3  C   UNL     1       2.165   8.745  17.824  0.00  0.00    +0.000 A 
ATOM      4  C   UNL     1       2.477   7.750  18.763  0.00  0.00    +0.000 A 
ATOM      5  C   UNL     1       1.939   7.848  20.057  0.00  0.00    +0.000 A 
ATOM      6  C   UNL     1       1.106   8.926  20.400  0.00  0.00    +0.000 A 
ATOM      7 BR   UNL     1       0.445   9.036  22.174  0.00  0.00    +0.000 Br
ENDROOT
BRANCH   4   8
ATOM      8  C   UNL     1       3.467   6.664  18.423  0.00  0.00    +0.000 C 
ATOM      9  S   UNL     1       4.462   6.786  17.057  0.00  0.00    +0.000 S 
BRANCH   8  10
ATOM     10  N   UNL     1       3.417   5.551  19.261  0.00  0.00    +0.000 N 
ATOM     11  H   UNL     1       3.964   5.591  20.116  0.00  0.00    +0.000 HD
BRANCH  10  12
ATOM     12  C   UNL     1       2.593   4.408  19.114  0.00  0.00    +0.000 A 
ATOM     13  C   UNL     1       2.842   3.437  18.137  0.00  0.00    +0.000 A 
ATOM     14  C   UNL     1       2.034   2.305  18.029  0.00  0.00    +0.000 A 
ATOM     15  C   UNL     1       0.969   2.127  18.905  0.00  0.00    +0.000 A 
ATOM     16  C   UNL     1       0.726   3.075  19.899  0.00  0.00    +0.000 A 
ATOM     17  C   UNL     1       1.545   4.204  20.015  0.00  0.00    +0.000 A 
ENDBRANCH  10  12
ENDBRANCH   8  10
ENDBRANCH   4   8
BRANCH   1  18
ATOM     18  O   UNL     1       0.050  11.043  19.810  0.00  0.00    +0.000 OA
BRANCH  18  22
ATOM     19  C   UNL     1       0.863  14.585  19.706  0.00  0.00    +0.000 C 
ATOM     20  N   UNL     1       0.491  13.260  19.246  0.00  0.00    +0.000 N 
ATOM     21  C   UNL     1      -0.544  13.147  18.237  0.00  0.00    +0.000 C 
ATOM     22  C   UNL     1       0.781  12.199  20.099  0.00  0.00    +0.000 C 
ATOM     23  O   UNL     1       1.547  12.302  21.056  0.00  0.00    +0.000 OA
ENDBRANCH  18  22
ENDBRANCH   1  18
TORSDOF 5
ENDMDL
MODEL 4
REMARK VINA RESULT:      -7.0      4.640      7.002
REMARK  Name = 
REMARK  7 active torsions:
REMARK  status: ('A' for Active; 'I' for Inactive)
REMARK    1  A    between atoms: C_1  and  N_2
REMARK    2  A    between atoms: N_2  and  C_3
REMARK    3  A    between atoms: C_4  and  O_6
REMARK    4  A    between atoms: O_6  and  C_7
REMARK    5  A    between atoms: C_10  and  C_11
REMARK    6  A    between atoms: C_11  and  N_13
REMARK    7  A    between atoms: N_13  and  C_14
REMARK                            x       y       z     vdW  Elec       q    Type
REMARK                         _______ _______ _______ _____ _____    ______ ____
ROOT
ATOM      1  C   UNL     1       0.710   9.689  19.386  0.00  0.00    +0.000 A 
ATOM      2  C   UNL     1       1.198   9.556  18.085  0.00  0.00    +0.000 A 
ATOM      3  C   UNL     1       2.064   8.514  17.761  0.00  0.00    +0.000 A 
ATOM      4  C   UNL     1       2.503   7.614  18.744  0.00  0.00    +0.000 A 
ATOM      5  C   UNL     1       2.031   7.764  20.059  0.00  0.00    +0.000 A 
ATOM      6  C   UNL     1       1.137   8.801  20.379  0.00  0.00    +0.000 A 
ATOM      7 BR   UNL     1       0.567   8.989  22.178  0.00  0.00    +0.000 Br
ENDROOT
BRANCH   4   8
ATOM      8  C   UNL     1       3.553   6.581  18.419  0.00  0.00    +0.000 C 
ATOM      9  S   UNL     1       4.565   6.759  17.072  0.00  0.00    +0.000 S 
BRANCH   8  10
ATOM     10  N   UNL     1       3.545   5.464  19.252  0.00  0.00    +0.000 N 
ATOM     11  H   UNL     1       4.149   5.491  20.069  0.00  0.00    +0.000 HD
BRANCH  10  12
ATOM     12  C   UNL     1       2.697   4.333  19.155  0.00  0.00    +0.000 A 
ATOM     13  C   UNL     1       1.627   4.132  20.035  0.00  0.00    +0.000 A 
ATOM     14  C   UNL     1       0.788   3.026  19.902  0.00  0.00    +0.000 A 
ATOM     15  C   UNL     1       1.005   2.109  18.879  0.00  0.00    +0.000 A 
ATOM     16  C   UNL     1       2.052   2.311  17.980  0.00  0.00    +0.000 A 
ATOM     17  C   UNL     1       2.887   3.429  18.106  0.00  0.00    +0.000 A 
ENDBRANCH  10  12
ENDBRANCH   8  10
ENDBRANCH   4   8
BRANCH   1  18
ATOM     18  O   UNL     1      -0.109  10.788  19.712  0.00  0.00    +0.000 OA
BRANCH  18  22
ATOM     19  C   UNL     1       0.021  14.277  18.701  0.00  0.00    +0.000 C 
ATOM     20  N   UNL     1      -0.232  12.850  18.635  0.00  0.00    +0.000 N 
ATOM     21  C   UNL     1      -1.473  12.397  18.038  0.00  0.00    +0.000 C 
ATOM     22  C   UNL     1       0.464  12.051  19.538  0.00  0.00    +0.000 C 
ATOM     23  O   UNL     1       1.438  12.454  20.173  0.00  0.00    +0.000 OA
ENDBRANCH  18  22
ENDBRANCH   1  18
TORSDOF 5
ENDMDL
MODEL 5
REMARK VINA RESULT:      -6.9      4.696      7.678
REMARK  Name = 
REMARK  7 active torsions:
REMARK  status: ('A' for Active; 'I' for Inactive)
REMARK    1  A    between atoms: C_1  and  N_2
REMARK    2  A    between atoms: N_2  and  C_3
REMARK    3  A    between atoms: C_4  and  O_6
REMARK    4  A    between atoms: O_6  and  C_7
REMARK    5  A    between atoms: C_10  and  C_11
REMARK    6  A    between atoms: C_11  and  N_13
REMARK    7  A    between atoms: N_13  and  C_14
REMARK                            x       y       z     vdW  Elec       q    Type
REMARK                         _______ _______ _______ _____ _____    ______ ____
ROOT
ATOM      1  C   UNL     1       3.169   5.563  18.685  0.00  0.00    +0.000 A 
ATOM      2  C   UNL     1       3.190   6.778  17.998  0.00  0.00    +0.000 A 
ATOM      3  C   UNL     1       2.568   7.902  18.536  0.00  0.00    +0.000 A 
ATOM      4  C   UNL     1       1.865   7.822  19.749  0.00  0.00    +0.000 A 
ATOM      5  C   UNL     1       1.823   6.592  20.427  0.00  0.00    +0.000 A 
ATOM      6  C   UNL     1       2.473   5.465  19.894  0.00  0.00    +0.000 A 
ATOM      7 BR   UNL     1       2.344   3.818  20.824  0.00  0.00    +0.000 Br
ENDROOT
BRANCH   4   8
ATOM      8  C   UNL     1       1.072   9.003  20.250  0.00  0.00    +0.000 C 
ATOM      9  S   UNL     1       0.441   9.026  21.822  0.00  0.00    +0.000 S 
BRANCH   8  10
ATOM     10  N   UNL     1       0.840   9.993  19.296  0.00  0.00    +0.000 N 
ATOM     11  H   UNL     1       1.655  10.425  18.871  0.00  0.00    +0.000 HD
BRANCH  10  12
ATOM     12  C   UNL     1      -0.411  10.386  18.762  0.00  0.00    +0.000 A 
ATOM     13  C   UNL     1      -1.133  11.467  19.285  0.00  0.00    +0.000 A 
ATOM     14  C   UNL     1      -2.349  11.856  18.724  0.00  0.00    +0.000 A 
ATOM     15  C   UNL     1      -2.856  11.171  17.625  0.00  0.00    +0.000 A 
ATOM     16  C   UNL     1      -2.135  10.110  17.078  0.00  0.00    +0.000 A 
ATOM     17  C   UNL     1      -0.907   9.728  17.634  0.00  0.00    +0.000 A 
ENDBRANCH  10  12
ENDBRANCH   8  10
ENDBRANCH   4   8
BRANCH   1  18
ATOM     18  O   UNL     1       3.742   4.421  18.093  0.00  0.00    +0.000 OA
BRANCH  18  22
ATOM     19  C   UNL     1       7.244   4.567  17.131  0.00  0.00    +0.000 C 
ATOM     20  N   UNL     1       5.822   4.292  17.052  0.00  0.00    +0.000 N 
ATOM     21  C   UNL     1       5.141   4.537  15.795  0.00  0.00    +0.000 C 
ATOM     22  C   UNL     1       5.122   4.274  18.256  0.00  0.00    +0.000 C 
ATOM     23  O   UNL     1       5.679   4.214  19.350  0.00  0.00    +0.000 OA
ENDBRANCH  18  22
ENDBRANCH   1  18
TORSDOF 5
ENDMDL
MODEL 6
REMARK VINA RESULT:      -6.9      4.736      7.743
REMARK  Name = 
REMARK  7 active torsions:
REMARK  status: ('A' for Active; 'I' for Inactive)
REMARK    1  A    between atoms: C_1  and  N_2
REMARK    2  A    between atoms: N_2  and  C_3
REMARK    3  A    between atoms: C_4  and  O_6
REMARK    4  A    between atoms: O_6  and  C_7
REMARK    5  A    between atoms: C_10  and  C_11
REMARK    6  A    between atoms: C_11  and  N_13
REMARK    7  A    between atoms: N_13  and  C_14
REMARK                            x       y       z     vdW  Elec       q    Type
REMARK                         _______ _______ _______ _____ _____    ______ ____
ROOT
ATOM      1  C   UNL     1       3.225   5.525  18.753  0.00  0.00    +0.000 A 
ATOM      2  C   UNL     1       3.248   6.726  18.043  0.00  0.00    +0.000 A 
ATOM      3  C   UNL     1       2.597   7.852  18.542  0.00  0.00    +0.000 A 
ATOM      4  C   UNL     1       1.865   7.787  19.738  0.00  0.00    +0.000 A 
ATOM      5  C   UNL     1       1.822   6.570  20.440  0.00  0.00    +0.000 A 
ATOM      6  C   UNL     1       2.500   5.441  19.947  0.00  0.00    +0.000 A 
ATOM      7 BR   UNL     1       2.370   3.811  20.907  0.00  0.00    +0.000 Br
ENDROOT
BRANCH   4   8
ATOM      8  C   UNL     1       1.044   8.966  20.195  0.00  0.00    +0.000 C 
ATOM      9  S   UNL     1       0.349   8.999  21.739  0.00  0.00    +0.000 S 
BRANCH   8  10
ATOM     10  N   UNL     1       0.844   9.945  19.223  0.00  0.00    +0.000 N 
ATOM     11  H   UNL     1       1.669  10.296  18.744  0.00  0.00    +0.000 HD
BRANCH  10  12
ATOM     12  C   UNL     1      -0.397  10.426  18.738  0.00  0.00    +0.000 A 
ATOM     13  C   UNL     1      -1.056   9.820  17.661  0.00  0.00    +0.000 A 
ATOM     14  C   UNL     1      -2.292  10.293  17.220  0.00  0.00    +0.000 A 
ATOM     15  C   UNL     1      -2.888  11.375  17.857  0.00  0.00    +0.000 A 
ATOM     16  C   UNL     1      -2.254  11.971  18.947  0.00  0.00    +0.000 A 
ATOM     17  C   UNL     1      -1.020  11.487  19.398  0.00  0.00    +0.000 A 
ENDBRANCH  10  12
ENDBRANCH   8  10
ENDBRANCH   4   8
BRANCH   1  18
ATOM     18  O   UNL     1       3.828   4.379  18.200  0.00  0.00    +0.000 OA
BRANCH  18  22
ATOM     19  C   UNL     1       7.289   4.563  17.103  0.00  0.00    +0.000 C 
ATOM     20  N   UNL     1       5.876   4.231  17.100  0.00  0.00    +0.000 N 
ATOM     21  C   UNL     1       5.147   4.338  15.852  0.00  0.00    +0.000 C 
ATOM     22  C   UNL     1       5.218   4.297  18.325  0.00  0.00    +0.000 C 
ATOM     23  O   UNL     1       5.812   4.355  19.400  0.00  0.00    +0.000 OA
ENDBRANCH  18  22
ENDBRANCH   1  18
TORSDOF 5
ENDMDL
MODEL 7
REMARK VINA RESULT:      -6.9      3.210      7.141
REMARK  Name = 
REMARK  7 active torsions:
REMARK  status: ('A' for Active; 'I' for Inactive)
REMARK    1  A    between atoms: C_1  and  N_2
REMARK    2  A    between atoms: N_2  and  C_3
REMARK    3  A    between atoms: C_4  and  O_6
REMARK    4  A    between atoms: O_6  and  C_7
REMARK    5  A    between atoms: C_10  and  C_11
REMARK    6  A    between atoms: C_11  and  N_13
REMARK    7  A    between atoms: N_13  and  C_14
REMARK                            x       y       z     vdW  Elec       q    Type
REMARK                         _______ _______ _______ _____ _____    ______ ____
ROOT
ATOM      1  C   UNL     1       6.286   5.891  16.032  0.00  0.00    +0.000 A 
ATOM      2  C   UNL     1       5.184   6.566  15.504  0.00  0.00    +0.000 A 
ATOM      3  C   UNL     1       4.174   7.031  16.343  0.00  0.00    +0.000 A 
ATOM      4  C   UNL     1       4.217   6.783  17.724  0.00  0.00    +0.000 A 
ATOM      5  C   UNL     1       5.314   6.081  18.251  0.00  0.00    +0.000 A 
ATOM      6  C   UNL     1       6.345   5.635  17.406  0.00  0.00    +0.000 A 
ATOM      7 BR   UNL     1       7.778   4.651  18.162  0.00  0.00    +0.000 Br
ENDROOT
BRANCH   4   8
ATOM      8  C   UNL     1       3.051   7.158  18.603  0.00  0.00    +0.000 C 
ATOM      9  S   UNL     1       2.103   8.520  18.262  0.00  0.00    +0.000 S 
BRANCH   8  10
ATOM     10  N   UNL     1       2.895   6.357  19.733  0.00  0.00    +0.000 N 
ATOM     11  H   UNL     1       3.206   6.743  20.620  0.00  0.00    +0.000 HD
BRANCH  10  12
ATOM     12  C   UNL     1       2.242   5.102  19.806  0.00  0.00    +0.000 A 
ATOM     13  C   UNL     1       1.801   4.429  18.659  0.00  0.00    +0.000 A 
ATOM     14  C   UNL     1       1.186   3.181  18.753  0.00  0.00    +0.000 A 
ATOM     15  C   UNL     1       1.011   2.585  19.997  0.00  0.00    +0.000 A 
ATOM     16  C   UNL     1       1.469   3.233  21.144  0.00  0.00    +0.000 A 
ATOM     17  C   UNL     1       2.099   4.480  21.048  0.00  0.00    +0.000 A 
ENDBRANCH  10  12
ENDBRANCH   8  10
ENDBRANCH   4   8
BRANCH   1  18
ATOM     18  O   UNL     1       7.262   5.368  15.163  0.00  0.00    +0.000 OA
BRANCH  18  22
ATOM     19  C   UNL     1       7.219   3.640  11.965  0.00  0.00    +0.000 C 
ATOM     20  N   UNL     1       7.284   4.728  12.923  0.00  0.00    +0.000 N 
ATOM     21  C   UNL     1       8.237   5.796  12.689  0.00  0.00    +0.000 C 
ATOM     22  C   UNL     1       6.804   4.461  14.203  0.00  0.00    +0.000 C 
ATOM     23  O   UNL     1       6.112   3.479  14.465  0.00  0.00    +0.000 OA
ENDBRANCH  18  22
ENDBRANCH   1  18
TORSDOF 5
ENDMDL
MODEL 8
REMARK VINA RESULT:      -6.8      4.636      6.179
REMARK  Name = 
REMARK  7 active torsions:
REMARK  status: ('A' for Active; 'I' for Inactive)
REMARK    1  A    between atoms: C_1  and  N_2
REMARK    2  A    between atoms: N_2  and  C_3
REMARK    3  A    between atoms: C_4  and  O_6
REMARK    4  A    between atoms: O_6  and  C_7
REMARK    5  A    between atoms: C_10  and  C_11
REMARK    6  A    between atoms: C_11  and  N_13
REMARK    7  A    between atoms: N_13  and  C_14
REMARK                            x       y       z     vdW  Elec       q    Type
REMARK                         _______ _______ _______ _____ _____    ______ ____
ROOT
ATOM      1  C   UNL     1       1.235   9.395  19.425  0.00  0.00    +0.000 A 
ATOM      2  C   UNL     1       1.759   8.970  18.203  0.00  0.00    +0.000 A 
ATOM      3  C   UNL     1       2.291   7.690  18.072  0.00  0.00    +0.000 A 
ATOM      4  C   UNL     1       2.360   6.825  19.175  0.00  0.00    +0.000 A 
ATOM      5  C   UNL     1       1.856   7.263  20.412  0.00  0.00    +0.000 A 
ATOM      6  C   UNL     1       1.296   8.546  20.535  0.00  0.00    +0.000 A 
ATOM      7 BR   UNL     1       0.673   9.107  22.236  0.00  0.00    +0.000 Br
ENDROOT
BRANCH   4   8
ATOM      8  C   UNL     1       3.070   5.499  19.063  0.00  0.00    +0.000 C 
ATOM      9  S   UNL     1       2.725   4.230  20.131  0.00  0.00    +0.000 S 
BRANCH   8  10
ATOM     10  N   UNL     1       4.066   5.456  18.089  0.00  0.00    +0.000 N 
ATOM     11  H   UNL     1       3.793   5.143  17.161  0.00  0.00    +0.000 HD
BRANCH  10  12
ATOM     12  C   UNL     1       5.401   5.913  18.213  0.00  0.00    +0.000 A 
ATOM     13  C   UNL     1       6.292   5.354  19.139  0.00  0.00    +0.000 A 
ATOM     14  C   UNL     1       7.611   5.800  19.223  0.00  0.00    +0.000 A 
ATOM     15  C   UNL     1       8.058   6.807  18.374  0.00  0.00    +0.000 A 
ATOM     16  C   UNL     1       7.189   7.353  17.430  0.00  0.00    +0.000 A 
ATOM     17  C   UNL     1       5.868   6.896  17.337  0.00  0.00    +0.000 A 
ENDBRANCH  10  12
ENDBRANCH   8  10
ENDBRANCH   4   8
BRANCH   1  18
ATOM     18  O   UNL     1       0.766  10.716  19.558  0.00  0.00    +0.000 OA
BRANCH  18  22
ATOM     19  C   UNL     1      -2.430  12.407  19.934  0.00  0.00    +0.000 C 
ATOM     20  N   UNL     1      -1.131  11.861  20.279  0.00  0.00    +0.000 N 
ATOM     21  C   UNL     1      -0.260  12.643  21.135  0.00  0.00    +0.000 C 
ATOM     22  C   UNL     1      -0.615  10.892  19.423  0.00  0.00    +0.000 C 
ATOM     23  O   UNL     1      -1.299  10.312  18.581  0.00  0.00    +0.000 OA
ENDBRANCH  18  22
ENDBRANCH   1  18
TORSDOF 5
ENDMDL
MODEL 9
REMARK VINA RESULT:      -6.8      4.597      8.227
REMARK  Name = 
REMARK  7 active torsions:
REMARK  status: ('A' for Active; 'I' for Inactive)
REMARK    1  A    between atoms: C_1  and  N_2
REMARK    2  A    between atoms: N_2  and  C_3
REMARK    3  A    between atoms: C_4  and  O_6
REMARK    4  A    between atoms: O_6  and  C_7
REMARK    5  A    between atoms: C_10  and  C_11
REMARK    6  A    between atoms: C_11  and  N_13
REMARK    7  A    between atoms: N_13  and  C_14
REMARK                            x       y       z     vdW  Elec       q    Type
REMARK                         _______ _______ _______ _____ _____    ______ ____
ROOT
ATOM      1  C   UNL     1       3.465   5.979  18.547  0.00  0.00    +0.000 A 
ATOM      2  C   UNL     1       3.658   6.994  17.607  0.00  0.00    +0.000 A 
ATOM      3  C   UNL     1       3.003   8.215  17.744  0.00  0.00    +0.000 A 
ATOM      4  C   UNL     1       2.099   8.430  18.796  0.00  0.00    +0.000 A 
ATOM      5  C   UNL     1       1.886   7.399  19.727  0.00  0.00    +0.000 A 
ATOM      6  C   UNL     1       2.568   6.176  19.601  0.00  0.00    +0.000 A 
ATOM      7 BR   UNL     1       2.208   4.801  20.856  0.00  0.00    +0.000 Br
ENDROOT
BRANCH   4   8
ATOM      8  C   UNL     1       1.284   9.698  18.855  0.00  0.00    +0.000 C 
ATOM      9  S   UNL     1       1.931  11.176  18.340  0.00  0.00    +0.000 S 
BRANCH   8  10
ATOM     10  N   UNL     1       0.027   9.552  19.439  0.00  0.00    +0.000 N 
ATOM     11  H   UNL     1      -0.625   8.920  18.983  0.00  0.00    +0.000 HD
BRANCH  10  12
ATOM     12  C   UNL     1      -0.410  10.097  20.672  0.00  0.00    +0.000 A 
ATOM     13  C   UNL     1      -0.209   9.432  21.888  0.00  0.00    +0.000 A 
ATOM     14  C   UNL     1      -0.621  10.002  23.092  0.00  0.00    +0.000 A 
ATOM     15  C   UNL     1      -1.234  11.250  23.096  0.00  0.00    +0.000 A 
ATOM     16  C   UNL     1      -1.417  11.934  21.894  0.00  0.00    +0.000 A 
ATOM     17  C   UNL     1      -0.991  11.367  20.686  0.00  0.00    +0.000 A 
ENDBRANCH  10  12
ENDBRANCH   8  10
ENDBRANCH   4   8
BRANCH   1  18
ATOM     18  O   UNL     1       4.081   4.728  18.354  0.00  0.00    +0.000 OA
BRANCH  18  22
ATOM     19  C   UNL     1       7.620   4.615  17.533  0.00  0.00    +0.000 C 
ATOM     20  N   UNL     1       6.204   4.299  17.498  0.00  0.00    +0.000 N 
ATOM     21  C   UNL     1       5.577   4.090  16.207  0.00  0.00    +0.000 C 
ATOM     22  C   UNL     1       5.454   4.674  18.609  0.00  0.00    +0.000 C 
ATOM     23  O   UNL     1       5.964   5.000  19.679  0.00  0.00    +0.000 OA
ENDBRANCH  18  22
ENDBRANCH   1  18
TORSDOF 5
ENDMDL
