MODEL 1
REMARK VINA RESULT:      -8.7      0.000      0.000
REMARK  Name = 
REMARK  6 active torsions:
REMARK  status: ('A' for Active; 'I' for Inactive)
REMARK    1  A    between atoms: C_1  and  O_2
REMARK    2  A    between atoms: O_2  and  C_3
REMARK    3  A    between atoms: C_7  and  N_8
REMARK    4  A    between atoms: N_8  and  C_9
REMARK    5  A    between atoms: C_11  and  C_12
REMARK    6  A    between atoms: C_16  and  N_17
REMARK                            x       y       z     vdW  Elec       q    Type
REMARK                         _______ _______ _______ _____ _____    ______ ____
ROOT
ATOM      1  C   UNL     1       3.846   3.565  17.709  0.00  0.00    +0.000 A 
ATOM      2  N   UNL     1       2.949   4.359  17.104  0.00  0.00    +0.000 NA
ATOM      3  C   UNL     1       1.997   4.849  17.844  0.00  0.00    +0.000 A 
ATOM      4  N   UNL     1       1.350   3.995  18.621  0.00  0.00    +0.000 NA
ATOM      5  C   UNL     1       2.147   3.281  19.391  0.00  0.00    +0.000 A 
ATOM      6  C   UNL     1       1.589   3.083  20.650  0.00  0.00    +0.000 A 
ATOM      7  C   UNL     1       2.299   2.499  21.675  0.00  0.00    +0.000 A 
ATOM      8  C   UNL     1       3.555   1.995  21.376  0.00  0.00    +0.000 A 
ATOM      9  C   UNL     1       4.145   2.215  20.089  0.00  0.00    +0.000 A 
ATOM     10  C   UNL     1       3.490   2.950  19.022  0.00  0.00    +0.000 A 
ENDROOT
BRANCH   3  11
ATOM     11  C   UNL     1       2.378   6.053  18.659  0.00  0.00    +0.000 A 
ATOM     12  C   UNL     1       2.328   6.059  20.081  0.00  0.00    +0.000 A 
ATOM     13  C   UNL     1       1.920   7.194  20.785  0.00  0.00    +0.000 A 
ATOM     14  C   UNL     1       1.647   8.360  20.082  0.00  0.00    +0.000 A 
ATOM     15  C   UNL     1       1.858   8.386  18.695  0.00  0.00    +0.000 A 
ATOM     16  C   UNL     1       2.276   7.269  17.994  0.00  0.00    +0.000 A 
BRANCH  15  17
ATOM     17  N   UNL     1       1.479   9.568  17.916  0.00  0.00    +0.000 N 
ATOM     18  O   UNL     1       2.393  10.263  17.462  0.00  0.00    +0.000 OA
ATOM     19  O   UNL     1       0.274   9.808  17.782  0.00  0.00    +0.000 OA
ENDBRANCH  15  17
ENDBRANCH   3  11
BRANCH   1  20
ATOM     20  N   UNL     1       5.135   3.815  17.122  0.00  0.00    +0.000 N 
ATOM     21  H   UNL     1       5.158   3.781  16.113  0.00  0.00    +0.000 HD
BRANCH  20  26
ATOM     22  C   UNL     1       7.244   7.031  17.531  0.00  0.00    +0.000 A 
ATOM     23  C   UNL     1       7.895   6.766  18.740  0.00  0.00    +0.000 A 
ATOM     24  C   UNL     1       7.662   5.576  19.403  0.00  0.00    +0.000 A 
ATOM     25  C   UNL     1       6.739   4.661  18.881  0.00  0.00    +0.000 A 
ATOM     26  C   UNL     1       6.059   4.858  17.650  0.00  0.00    +0.000 A 
ATOM     27  C   UNL     1       6.332   6.085  16.976  0.00  0.00    +0.000 A 
BRANCH  22  29
ATOM     28  C   UNL     1       8.187   9.233  17.920  0.00  0.00    +0.000 C 
ATOM     29  O   UNL     1       7.634   8.257  17.063  0.00  0.00    +0.000 OA
ENDBRANCH  22  29
ENDBRANCH  20  26
ENDBRANCH   1  20
TORSDOF 5
ENDMDL
MODEL 2
REMARK VINA RESULT:      -8.2      2.010      2.695
REMARK  Name = 
REMARK  6 active torsions:
REMARK  status: ('A' for Active; 'I' for Inactive)
REMARK    1  A    between atoms: C_1  and  O_2
REMARK    2  A    between atoms: O_2  and  C_3
REMARK    3  A    between atoms: C_7  and  N_8
REMARK    4  A    between atoms: N_8  and  C_9
REMARK    5  A    between atoms: C_11  and  C_12
REMARK    6  A    between atoms: C_16  and  N_17
REMARK                            x       y       z     vdW  Elec       q    Type
REMARK                         _______ _______ _______ _____ _____    ______ ____
ROOT
ATOM      1  C   UNL     1       3.985   3.788  18.251  0.00  0.00    +0.000 A 
ATOM      2  N   UNL     1       3.328   4.628  17.436  0.00  0.00    +0.000 NA
ATOM      3  C   UNL     1       2.232   5.161  17.894  0.00  0.00    +0.000 A 
ATOM      4  N   UNL     1       1.356   4.337  18.447  0.00  0.00    +0.000 NA
ATOM      5  C   UNL     1       1.875   3.581  19.395  0.00  0.00    +0.000 A 
ATOM      6  C   UNL     1       0.983   3.406  20.447  0.00  0.00    +0.000 A 
ATOM      7  C   UNL     1       1.355   2.784  21.617  0.00  0.00    +0.000 A 
ATOM      8  C   UNL     1       2.620   2.219  21.668  0.00  0.00    +0.000 A 
ATOM      9  C   UNL     1       3.551   2.415  20.597  0.00  0.00    +0.000 A 
ATOM     10  C   UNL     1       3.252   3.186  19.405  0.00  0.00    +0.000 A 
ENDROOT
BRANCH   3  11
ATOM     11  C   UNL     1       2.428   6.342  18.803  0.00  0.00    +0.000 A 
ATOM     12  C   UNL     1       2.196   6.272  20.205  0.00  0.00    +0.000 A 
ATOM     13  C   UNL     1       1.631   7.344  20.899  0.00  0.00    +0.000 A 
ATOM     14  C   UNL     1       1.376   8.527  20.217  0.00  0.00    +0.000 A 
ATOM     15  C   UNL     1       1.761   8.636  18.872  0.00  0.00    +0.000 A 
ATOM     16  C   UNL     1       2.335   7.582  18.184  0.00  0.00    +0.000 A 
BRANCH  15  17
ATOM     17  N   UNL     1       1.411   9.833  18.102  0.00  0.00    +0.000 N 
ATOM     18  O   UNL     1       0.218  10.148  18.058  0.00  0.00    +0.000 OA
ATOM     19  O   UNL     1       2.325  10.436  17.527  0.00  0.00    +0.000 OA
ENDBRANCH  15  17
ENDBRANCH   3  11
BRANCH   1  20
ATOM     20  N   UNL     1       5.396   3.976  18.048  0.00  0.00    +0.000 N 
ATOM     21  H   UNL     1       5.989   3.335  18.555  0.00  0.00    +0.000 HD
BRANCH  20  26
ATOM     22  C   UNL     1       6.289   3.913  14.285  0.00  0.00    +0.000 A 
ATOM     23  C   UNL     1       7.172   4.994  14.207  0.00  0.00    +0.000 A 
ATOM     24  C   UNL     1       7.475   5.721  15.342  0.00  0.00    +0.000 A 
ATOM     25  C   UNL     1       6.859   5.398  16.558  0.00  0.00    +0.000 A 
ATOM     26  C   UNL     1       5.969   4.302  16.711  0.00  0.00    +0.000 A 
ATOM     27  C   UNL     1       5.689   3.556  15.529  0.00  0.00    +0.000 A 
BRANCH  22  29
ATOM     28  C   UNL     1       6.893   3.806  11.938  0.00  0.00    +0.000 C 
ATOM     29  O   UNL     1       6.149   3.349  13.046  0.00  0.00    +0.000 OA
ENDBRANCH  22  29
ENDBRANCH  20  26
ENDBRANCH   1  20
TORSDOF 5
ENDMDL
MODEL 3
REMARK VINA RESULT:      -8.1      0.733      1.208
REMARK  Name = 
REMARK  6 active torsions:
REMARK  status: ('A' for Active; 'I' for Inactive)
REMARK    1  A    between atoms: C_1  and  O_2
REMARK    2  A    between atoms: O_2  and  C_3
REMARK    3  A    between atoms: C_7  and  N_8
REMARK    4  A    between atoms: N_8  and  C_9
REMARK    5  A    between atoms: C_11  and  C_12
REMARK    6  A    between atoms: C_16  and  N_17
REMARK                            x       y       z     vdW  Elec       q    Type
REMARK                         _______ _______ _______ _____ _____    ______ ____
ROOT
ATOM      1  C   UNL     1       4.212   3.522  18.477  0.00  0.00    +0.000 A 
ATOM      2  N   UNL     1       3.701   4.340  17.544  0.00  0.00    +0.000 NA
ATOM      3  C   UNL     1       2.581   4.938  17.831  0.00  0.00    +0.000 A 
ATOM      4  N   UNL     1       1.607   4.178  18.306  0.00  0.00    +0.000 NA
ATOM      5  C   UNL     1       1.968   3.456  19.349  0.00  0.00    +0.000 A 
ATOM      6  C   UNL     1       0.943   3.372  20.285  0.00  0.00    +0.000 A 
ATOM      7  C   UNL     1       1.137   2.800  21.523  0.00  0.00    +0.000 A 
ATOM      8  C   UNL     1       2.359   2.192  21.763  0.00  0.00    +0.000 A 
ATOM      9  C   UNL     1       3.426   2.295  20.813  0.00  0.00    +0.000 A 
ATOM     10  C   UNL     1       3.314   3.011  19.555  0.00  0.00    +0.000 A 
ENDROOT
BRANCH   3  11
ATOM     11  C   UNL     1       2.712   6.158  18.699  0.00  0.00    +0.000 A 
ATOM     12  C   UNL     1       2.494   6.121  20.104  0.00  0.00    +0.000 A 
ATOM     13  C   UNL     1       1.871   7.181  20.767  0.00  0.00    +0.000 A 
ATOM     14  C   UNL     1       1.540   8.323  20.049  0.00  0.00    +0.000 A 
ATOM     15  C   UNL     1       1.908   8.410  18.698  0.00  0.00    +0.000 A 
ATOM     16  C   UNL     1       2.540   7.369  18.040  0.00  0.00    +0.000 A 
BRANCH  15  17
ATOM     17  N   UNL     1       1.481   9.557  17.892  0.00  0.00    +0.000 N 
ATOM     18  O   UNL     1       2.364  10.291  17.441  0.00  0.00    +0.000 OA
ATOM     19  O   UNL     1       0.267   9.729  17.735  0.00  0.00    +0.000 OA
ENDBRANCH  15  17
ENDBRANCH   3  11
BRANCH   1  20
ATOM     20  N   UNL     1       5.645   3.646  18.447  0.00  0.00    +0.000 N 
ATOM     21  H   UNL     1       6.140   2.806  18.187  0.00  0.00    +0.000 HD
BRANCH  20  26
ATOM     22  C   UNL     1       7.684   6.920  18.162  0.00  0.00    +0.000 A 
ATOM     23  C   UNL     1       7.545   7.197  16.798  0.00  0.00    +0.000 A 
ATOM     24  C   UNL     1       6.808   6.350  15.994  0.00  0.00    +0.000 A 
ATOM     25  C   UNL     1       6.240   5.193  16.541  0.00  0.00    +0.000 A 
ATOM     26  C   UNL     1       6.325   4.862  17.919  0.00  0.00    +0.000 A 
ATOM     27  C   UNL     1       7.074   5.763  18.732  0.00  0.00    +0.000 A 
BRANCH  22  29
ATOM     28  C   UNL     1       8.471   9.214  18.251  0.00  0.00    +0.000 C 
ATOM     29  O   UNL     1       8.446   7.894  18.749  0.00  0.00    +0.000 OA
ENDBRANCH  22  29
ENDBRANCH  20  26
ENDBRANCH   1  20
TORSDOF 5
ENDMDL
MODEL 4
REMARK VINA RESULT:      -8.1      3.771      7.358
REMARK  Name = 
REMARK  6 active torsions:
REMARK  status: ('A' for Active; 'I' for Inactive)
REMARK    1  A    between atoms: C_1  and  O_2
REMARK    2  A    between atoms: O_2  and  C_3
REMARK    3  A    between atoms: C_7  and  N_8
REMARK    4  A    between atoms: N_8  and  C_9
REMARK    5  A    between atoms: C_11  and  C_12
REMARK    6  A    between atoms: C_16  and  N_17
REMARK                            x       y       z     vdW  Elec       q    Type
REMARK                         _______ _______ _______ _____ _____    ______ ____
ROOT
ATOM      1  C   UNL     1       4.809   4.632  17.289  0.00  0.00    +0.000 A 
ATOM      2  N   UNL     1       4.345   4.990  16.082  0.00  0.00    +0.000 NA
ATOM      3  C   UNL     1       5.115   5.743  15.351  0.00  0.00    +0.000 A 
ATOM      4  N   UNL     1       5.633   6.811  15.939  0.00  0.00    +0.000 NA
ATOM      5  C   UNL     1       6.269   6.533  17.060  0.00  0.00    +0.000 A 
ATOM      6  C   UNL     1       7.411   7.315  17.199  0.00  0.00    +0.000 A 
ATOM      7  C   UNL     1       8.319   7.099  18.211  0.00  0.00    +0.000 A 
ATOM      8  C   UNL     1       7.994   6.153  19.171  0.00  0.00    +0.000 A 
ATOM      9  C   UNL     1       6.832   5.329  19.021  0.00  0.00    +0.000 A 
ATOM     10  C   UNL     1       5.922   5.423  17.895  0.00  0.00    +0.000 A 
ENDROOT
BRANCH   3  11
ATOM     11  C   UNL     1       6.206   5.017  14.615  0.00  0.00    +0.000 A 
ATOM     12  C   UNL     1       7.424   5.649  14.240  0.00  0.00    +0.000 A 
ATOM     13  C   UNL     1       8.046   5.355  13.024  0.00  0.00    +0.000 A 
ATOM     14  C   UNL     1       7.507   4.364  12.215  0.00  0.00    +0.000 A 
ATOM     15  C   UNL     1       6.398   3.636  12.674  0.00  0.00    +0.000 A 
ATOM     16  C   UNL     1       5.787   3.912  13.884  0.00  0.00    +0.000 A 
BRANCH  15  17
ATOM     17  N   UNL     1       5.747   2.658  11.798  0.00  0.00    +0.000 N 
ATOM     18  O   UNL     1       6.432   1.713  11.397  0.00  0.00    +0.000 OA
ATOM     19  O   UNL     1       4.563   2.852  11.498  0.00  0.00    +0.000 OA
ENDBRANCH  15  17
ENDBRANCH   3  11
BRANCH   1  20
ATOM     20  N   UNL     1       4.379   3.286  17.554  0.00  0.00    +0.000 N 
ATOM     21  H   UNL     1       5.125   2.611  17.652  0.00  0.00    +0.000 HD
BRANCH  20  26
ATOM     22  C   UNL     1       2.243   2.676  20.720  0.00  0.00    +0.000 A 
ATOM     23  C   UNL     1       1.018   2.322  20.146  0.00  0.00    +0.000 A 
ATOM     24  C   UNL     1       0.888   2.277  18.771  0.00  0.00    +0.000 A 
ATOM     25  C   UNL     1       1.973   2.630  17.960  0.00  0.00    +0.000 A 
ATOM     26  C   UNL     1       3.249   2.980  18.476  0.00  0.00    +0.000 A 
ATOM     27  C   UNL     1       3.362   2.999  19.897  0.00  0.00    +0.000 A 
BRANCH  22  29
ATOM     28  C   UNL     1       0.939   2.238  22.719  0.00  0.00    +0.000 C 
ATOM     29  O   UNL     1       2.132   2.647  22.084  0.00  0.00    +0.000 OA
ENDBRANCH  22  29
ENDBRANCH  20  26
ENDBRANCH   1  20
TORSDOF 5
ENDMDL
MODEL 5
REMARK VINA RESULT:      -7.9      1.261      1.863
REMARK  Name = 
REMARK  6 active torsions:
REMARK  status: ('A' for Active; 'I' for Inactive)
REMARK    1  A    between atoms: C_1  and  O_2
REMARK    2  A    between atoms: O_2  and  C_3
REMARK    3  A    between atoms: C_7  and  N_8
REMARK    4  A    between atoms: N_8  and  C_9
REMARK    5  A    between atoms: C_11  and  C_12
REMARK    6  A    between atoms: C_16  and  N_17
REMARK                            x       y       z     vdW  Elec       q    Type
REMARK                         _______ _______ _______ _____ _____    ______ ____
ROOT
ATOM      1  C   UNL     1       3.905   3.372  18.436  0.00  0.00    +0.000 A 
ATOM      2  N   UNL     1       3.362   4.196  17.526  0.00  0.00    +0.000 NA
ATOM      3  C   UNL     1       2.287   4.841  17.878  0.00  0.00    +0.000 A 
ATOM      4  N   UNL     1       1.320   4.126  18.432  0.00  0.00    +0.000 NA
ATOM      5  C   UNL     1       1.725   3.406  19.459  0.00  0.00    +0.000 A 
ATOM      6  C   UNL     1       0.764   3.376  20.464  0.00  0.00    +0.000 A 
ATOM      7  C   UNL     1       1.020   2.816  21.696  0.00  0.00    +0.000 A 
ATOM      8  C   UNL     1       2.232   2.164  21.863  0.00  0.00    +0.000 A 
ATOM      9  C   UNL     1       3.235   2.211  20.841  0.00  0.00    +0.000 A 
ATOM     10  C   UNL     1       3.064   2.913  19.582  0.00  0.00    +0.000 A 
ENDROOT
BRANCH   3  11
ATOM     11  C   UNL     1       2.524   6.067  18.714  0.00  0.00    +0.000 A 
ATOM     12  C   UNL     1       2.389   6.063  20.130  0.00  0.00    +0.000 A 
ATOM     13  C   UNL     1       1.853   7.160  20.808  0.00  0.00    +0.000 A 
ATOM     14  C   UNL     1       1.531   8.304  20.090  0.00  0.00    +0.000 A 
ATOM     15  C   UNL     1       1.822   8.353  18.717  0.00  0.00    +0.000 A 
ATOM     16  C   UNL     1       2.367   7.275  18.043  0.00  0.00    +0.000 A 
BRANCH  15  17
ATOM     17  N   UNL     1       1.399   9.505  17.917  0.00  0.00    +0.000 N 
ATOM     18  O   UNL     1       0.186   9.690  17.790  0.00  0.00    +0.000 OA
ATOM     19  O   UNL     1       2.280  10.202  17.401  0.00  0.00    +0.000 OA
ENDBRANCH  15  17
ENDBRANCH   3  11
BRANCH   1  20
ATOM     20  N   UNL     1       5.335   3.440  18.307  0.00  0.00    +0.000 N 
ATOM     21  H   UNL     1       5.790   2.556  18.129  0.00  0.00    +0.000 HD
BRANCH  20  26
ATOM     22  C   UNL     1       7.239   5.526  15.664  0.00  0.00    +0.000 A 
ATOM     23  C   UNL     1       7.345   6.753  16.326  0.00  0.00    +0.000 A 
ATOM     24  C   UNL     1       6.819   6.901  17.595  0.00  0.00    +0.000 A 
ATOM     25  C   UNL     1       6.143   5.831  18.194  0.00  0.00    +0.000 A 
ATOM     26  C   UNL     1       6.015   4.554  17.587  0.00  0.00    +0.000 A 
ATOM     27  C   UNL     1       6.585   4.421  16.287  0.00  0.00    +0.000 A 
BRANCH  22  29
ATOM     28  C   UNL     1       7.443   4.789  13.362  0.00  0.00    +0.000 C 
ATOM     29  O   UNL     1       7.833   5.618  14.435  0.00  0.00    +0.000 OA
ENDBRANCH  22  29
ENDBRANCH  20  26
ENDBRANCH   1  20
TORSDOF 5
ENDMDL
MODEL 6
REMARK VINA RESULT:      -7.8      1.851      2.450
REMARK  Name = 
REMARK  6 active torsions:
REMARK  status: ('A' for Active; 'I' for Inactive)
REMARK    1  A    between atoms: C_1  and  O_2
REMARK    2  A    between atoms: O_2  and  C_3
REMARK    3  A    between atoms: C_7  and  N_8
REMARK    4  A    between atoms: N_8  and  C_9
REMARK    5  A    between atoms: C_11  and  C_12
REMARK    6  A    between atoms: C_16  and  N_17
REMARK                            x       y       z     vdW  Elec       q    Type
REMARK                         _______ _______ _______ _____ _____    ______ ____
ROOT
ATOM      1  C   UNL     1       4.014   3.837  18.043  0.00  0.00    +0.000 A 
ATOM      2  N   UNL     1       3.242   4.657  17.313  0.00  0.00    +0.000 NA
ATOM      3  C   UNL     1       2.170   5.125  17.883  0.00  0.00    +0.000 A 
ATOM      4  N   UNL     1       1.392   4.247  18.497  0.00  0.00    +0.000 NA
ATOM      5  C   UNL     1       2.035   3.502  19.374  0.00  0.00    +0.000 A 
ATOM      6  C   UNL     1       1.256   3.263  20.501  0.00  0.00    +0.000 A 
ATOM      7  C   UNL     1       1.768   2.639  21.617  0.00  0.00    +0.000 A 
ATOM      8  C   UNL     1       3.058   2.138  21.536  0.00  0.00    +0.000 A 
ATOM      9  C   UNL     1       3.873   2.401  20.387  0.00  0.00    +0.000 A 
ATOM     10  C   UNL     1       3.424   3.177  19.246  0.00  0.00    +0.000 A 
ENDROOT
BRANCH   3  11
ATOM     11  C   UNL     1       2.393   6.297  18.797  0.00  0.00    +0.000 A 
ATOM     12  C   UNL     1       2.170   6.224  20.200  0.00  0.00    +0.000 A 
ATOM     13  C   UNL     1       1.629   7.303  20.903  0.00  0.00    +0.000 A 
ATOM     14  C   UNL     1       1.390   8.494  20.230  0.00  0.00    +0.000 A 
ATOM     15  C   UNL     1       1.767   8.603  18.882  0.00  0.00    +0.000 A 
ATOM     16  C   UNL     1       2.318   7.542  18.185  0.00  0.00    +0.000 A 
BRANCH  15  17
ATOM     17  N   UNL     1       1.432   9.809  18.120  0.00  0.00    +0.000 N 
ATOM     18  O   UNL     1       2.345  10.353  17.492  0.00  0.00    +0.000 OA
ATOM     19  O   UNL     1       0.267  10.219  18.174  0.00  0.00    +0.000 OA
ENDBRANCH  15  17
ENDBRANCH   3  11
BRANCH   1  20
ATOM     20  N   UNL     1       5.388   4.100  17.712  0.00  0.00    +0.000 N 
ATOM     21  H   UNL     1       6.065   3.627  18.293  0.00  0.00    +0.000 HD
BRANCH  20  26
ATOM     22  C   UNL     1       7.354   5.065  14.524  0.00  0.00    +0.000 A 
ATOM     23  C   UNL     1       6.643   4.354  13.552  0.00  0.00    +0.000 A 
ATOM     24  C   UNL     1       5.554   3.586  13.918  0.00  0.00    +0.000 A 
ATOM     25  C   UNL     1       5.195   3.490  15.268  0.00  0.00    +0.000 A 
ATOM     26  C   UNL     1       5.861   4.200  16.302  0.00  0.00    +0.000 A 
ATOM     27  C   UNL     1       6.968   5.001  15.896  0.00  0.00    +0.000 A 
BRANCH  22  29
ATOM     28  C   UNL     1       8.480   5.852  12.524  0.00  0.00    +0.000 C 
ATOM     29  O   UNL     1       8.378   5.750  13.928  0.00  0.00    +0.000 OA
ENDBRANCH  22  29
ENDBRANCH  20  26
ENDBRANCH   1  20
TORSDOF 5
ENDMDL
MODEL 7
REMARK VINA RESULT:      -7.8      3.701      7.022
REMARK  Name = 
REMARK  6 active torsions:
REMARK  status: ('A' for Active; 'I' for Inactive)
REMARK    1  A    between atoms: C_1  and  O_2
REMARK    2  A    between atoms: O_2  and  C_3
REMARK    3  A    between atoms: C_7  and  N_8
REMARK    4  A    between atoms: N_8  and  C_9
REMARK    5  A    between atoms: C_11  and  C_12
REMARK    6  A    between atoms: C_16  and  N_17
REMARK                            x       y       z     vdW  Elec       q    Type
REMARK                         _______ _______ _______ _____ _____    ______ ____
ROOT
ATOM      1  C   UNL     1       4.403   5.027  17.291  0.00  0.00    +0.000 A 
ATOM      2  N   UNL     1       4.110   5.473  16.059  0.00  0.00    +0.000 NA
ATOM      3  C   UNL     1       5.068   6.054  15.396  0.00  0.00    +0.000 A 
ATOM      4  N   UNL     1       5.749   6.992  16.035  0.00  0.00    +0.000 NA
ATOM      5  C   UNL     1       6.233   6.589  17.194  0.00  0.00    +0.000 A 
ATOM      6  C   UNL     1       7.498   7.121  17.425  0.00  0.00    +0.000 A 
ATOM      7  C   UNL     1       8.267   6.723  18.495  0.00  0.00    +0.000 A 
ATOM      8  C   UNL     1       7.688   5.863  19.415  0.00  0.00    +0.000 A 
ATOM      9  C   UNL     1       6.396   5.294  19.171  0.00  0.00    +0.000 A 
ATOM     10  C   UNL     1       5.607   5.573  17.985  0.00  0.00    +0.000 A 
ENDROOT
BRANCH   3  11
ATOM     11  C   UNL     1       6.038   5.120  14.728  0.00  0.00    +0.000 A 
ATOM     12  C   UNL     1       7.369   5.505  14.407  0.00  0.00    +0.000 A 
ATOM     13  C   UNL     1       7.983   5.072  13.229  0.00  0.00    +0.000 A 
ATOM     14  C   UNL     1       7.307   4.180  12.406  0.00  0.00    +0.000 A 
ATOM     15  C   UNL     1       6.061   3.682  12.818  0.00  0.00    +0.000 A 
ATOM     16  C   UNL     1       5.455   4.096  13.991  0.00  0.00    +0.000 A 
BRANCH  15  17
ATOM     17  N   UNL     1       5.281   2.823  11.924  0.00  0.00    +0.000 N 
ATOM     18  O   UNL     1       5.813   1.778  11.537  0.00  0.00    +0.000 OA
ATOM     19  O   UNL     1       4.153   3.208  11.594  0.00  0.00    +0.000 OA
ENDBRANCH  15  17
ENDBRANCH   3  11
BRANCH   1  20
ATOM     20  N   UNL     1       3.690   3.797  17.504  0.00  0.00    +0.000 N 
ATOM     21  H   UNL     1       3.969   3.033  16.906  0.00  0.00    +0.000 HD
BRANCH  20  26
ATOM     22  C   UNL     1       3.781   2.081  20.969  0.00  0.00    +0.000 A 
ATOM     23  C   UNL     1       2.508   2.398  21.452  0.00  0.00    +0.000 A 
ATOM     24  C   UNL     1       1.641   3.144  20.676  0.00  0.00    +0.000 A 
ATOM     25  C   UNL     1       2.060   3.615  19.426  0.00  0.00    +0.000 A 
ATOM     26  C   UNL     1       3.330   3.314  18.867  0.00  0.00    +0.000 A 
ATOM     27  C   UNL     1       4.198   2.526  19.679  0.00  0.00    +0.000 A 
BRANCH  22  29
ATOM     28  C   UNL     1       5.625   0.626  21.578  0.00  0.00    +0.000 C 
ATOM     29  O   UNL     1       4.451   1.338  21.903  0.00  0.00    +0.000 OA
ENDBRANCH  22  29
ENDBRANCH  20  26
ENDBRANCH   1  20
TORSDOF 5
ENDMDL
MODEL 8
REMARK VINA RESULT:      -7.7      4.784      9.185
REMARK  Name = 
REMARK  6 active torsions:
REMARK  status: ('A' for Active; 'I' for Inactive)
REMARK    1  A    between atoms: C_1  and  O_2
REMARK    2  A    between atoms: O_2  and  C_3
REMARK    3  A    between atoms: C_7  and  N_8
REMARK    4  A    between atoms: N_8  and  C_9
REMARK    5  A    between atoms: C_11  and  C_12
REMARK    6  A    between atoms: C_16  and  N_17
REMARK                            x       y       z     vdW  Elec       q    Type
REMARK                         _______ _______ _______ _____ _____    ______ ____
ROOT
ATOM      1  C   UNL     1      -0.794  12.955  19.318  0.00  0.00    +0.000 A 
ATOM      2  N   UNL     1       0.510  12.674  19.468  0.00  0.00    +0.000 NA
ATOM      3  C   UNL     1       0.858  12.045  20.553  0.00  0.00    +0.000 A 
ATOM      4  N   UNL     1       0.396  12.529  21.695  0.00  0.00    +0.000 NA
ATOM      5  C   UNL     1      -0.914  12.678  21.707  0.00  0.00    +0.000 A 
ATOM      6  C   UNL     1      -1.449  12.352  22.949  0.00  0.00    +0.000 A 
ATOM      7  C   UNL     1      -2.808  12.284  23.157  0.00  0.00    +0.000 A 
ATOM      8  C   UNL     1      -3.637  12.676  22.118  0.00  0.00    +0.000 A 
ATOM      9  C   UNL     1      -3.094  12.992  20.830  0.00  0.00    +0.000 A 
ATOM     10  C   UNL     1      -1.676  12.939  20.522  0.00  0.00    +0.000 A 
ENDROOT
BRANCH   3  11
ATOM     11  C   UNL     1       0.633  10.559  20.529  0.00  0.00    +0.000 A 
ATOM     12  C   UNL     1       0.552   9.780  21.717  0.00  0.00    +0.000 A 
ATOM     13  C   UNL     1       1.096   8.495  21.778  0.00  0.00    +0.000 A 
ATOM     14  C   UNL     1       1.644   7.941  20.629  0.00  0.00    +0.000 A 
ATOM     15  C   UNL     1       1.570   8.657  19.424  0.00  0.00    +0.000 A 
ATOM     16  C   UNL     1       1.019   9.924  19.355  0.00  0.00    +0.000 A 
BRANCH  15  17
ATOM     17  N   UNL     1       2.232   8.143  18.221  0.00  0.00    +0.000 N 
ATOM     18  O   UNL     1       2.722   7.013  18.285  0.00  0.00    +0.000 OA
ATOM     19  O   UNL     1       2.278   8.881  17.230  0.00  0.00    +0.000 OA
ENDBRANCH  15  17
ENDBRANCH   3  11
BRANCH   1  20
ATOM     20  N   UNL     1      -1.125  12.817  17.925  0.00  0.00    +0.000 N 
ATOM     21  H   UNL     1      -0.378  13.044  17.284  0.00  0.00    +0.000 HD
BRANCH  20  26
ATOM     22  C   UNL     1      -3.280  10.525  15.675  0.00  0.00    +0.000 A 
ATOM     23  C   UNL     1      -3.574   9.486  16.564  0.00  0.00    +0.000 A 
ATOM     24  C   UNL     1      -3.091   9.528  17.858  0.00  0.00    +0.000 A 
ATOM     25  C   UNL     1      -2.273  10.591  18.259  0.00  0.00    +0.000 A 
ATOM     26  C   UNL     1      -1.952  11.687  17.415  0.00  0.00    +0.000 A 
ATOM     27  C   UNL     1      -2.479  11.629  16.091  0.00  0.00    +0.000 A 
BRANCH  22  29
ATOM     28  C   UNL     1      -3.134   9.706  13.396  0.00  0.00    +0.000 C 
ATOM     29  O   UNL     1      -3.865  10.268  14.464  0.00  0.00    +0.000 OA
ENDBRANCH  22  29
ENDBRANCH  20  26
ENDBRANCH   1  20
TORSDOF 5
ENDMDL
MODEL 9
REMARK VINA RESULT:      -7.6      6.984     10.443
REMARK  Name = 
REMARK  6 active torsions:
REMARK  status: ('A' for Active; 'I' for Inactive)
REMARK    1  A    between atoms: C_1  and  O_2
REMARK    2  A    between atoms: O_2  and  C_3
REMARK    3  A    between atoms: C_7  and  N_8
REMARK    4  A    between atoms: N_8  and  C_9
REMARK    5  A    between atoms: C_11  and  C_12
REMARK    6  A    between atoms: C_16  and  N_17
REMARK                            x       y       z     vdW  Elec       q    Type
REMARK                         _______ _______ _______ _____ _____    ______ ____
ROOT
ATOM      1  C   UNL     1      -0.983  12.780  20.602  0.00  0.00    +0.000 A 
ATOM      2  N   UNL     1      -0.776  12.909  19.282  0.00  0.00    +0.000 NA
ATOM      3  C   UNL     1      -0.535  11.819  18.612  0.00  0.00    +0.000 A 
ATOM      4  N   UNL     1       0.387  11.009  19.107  0.00  0.00    +0.000 NA
ATOM      5  C   UNL     1       0.172  10.680  20.366  0.00  0.00    +0.000 A 
ATOM      6  C   UNL     1       0.511   9.353  20.606  0.00  0.00    +0.000 A 
ATOM      7  C   UNL     1       0.232   8.739  21.807  0.00  0.00    +0.000 A 
ATOM      8  C   UNL     1      -0.288   9.526  22.823  0.00  0.00    +0.000 A 
ATOM      9  C   UNL     1      -0.660  10.887  22.575  0.00  0.00    +0.000 A 
ATOM     10  C   UNL     1      -0.517  11.536  21.284  0.00  0.00    +0.000 A 
ENDROOT
BRANCH   3  11
ATOM     11  C   UNL     1      -1.749  11.010  18.251  0.00  0.00    +0.000 A 
ATOM     12  C   UNL     1      -1.730  10.021  17.229  0.00  0.00    +0.000 A 
ATOM     13  C   UNL     1      -2.826   9.835  16.382  0.00  0.00    +0.000 A 
ATOM     14  C   UNL     1      -3.982  10.571  16.606  0.00  0.00    +0.000 A 
ATOM     15  C   UNL     1      -4.043  11.425  17.718  0.00  0.00    +0.000 A 
ATOM     16  C   UNL     1      -2.966  11.602  18.569  0.00  0.00    +0.000 A 
BRANCH  15  17
ATOM     17  N   UNL     1      -5.209  12.290  17.918  0.00  0.00    +0.000 N 
ATOM     18  O   UNL     1      -5.898  12.547  16.927  0.00  0.00    +0.000 OA
ATOM     19  O   UNL     1      -5.414  12.725  19.057  0.00  0.00    +0.000 OA
ENDBRANCH  15  17
ENDBRANCH   3  11
BRANCH   1  20
ATOM     20  N   UNL     1      -1.990  13.729  20.994  0.00  0.00    +0.000 N 
ATOM     21  H   UNL     1      -2.631  13.997  20.261  0.00  0.00    +0.000 HD
BRANCH  20  26
ATOM     22  C   UNL     1      -4.462  12.871  23.842  0.00  0.00    +0.000 A 
ATOM     23  C   UNL     1      -3.940  13.644  24.884  0.00  0.00    +0.000 A 
ATOM     24  C   UNL     1      -2.821  14.425  24.669  0.00  0.00    +0.000 A 
ATOM     25  C   UNL     1      -2.189  14.404  23.420  0.00  0.00    +0.000 A 
ATOM     26  C   UNL     1      -2.677  13.658  22.314  0.00  0.00    +0.000 A 
ATOM     27  C   UNL     1      -3.845  12.876  22.556  0.00  0.00    +0.000 A 
BRANCH  22  29
ATOM     28  C   UNL     1      -6.869  12.572  23.907  0.00  0.00    +0.000 C 
ATOM     29  O   UNL     1      -5.564  12.191  24.287  0.00  0.00    +0.000 OA
ENDBRANCH  22  29
ENDBRANCH  20  26
ENDBRANCH   1  20
TORSDOF 5
ENDMDL
