MODEL 1
REMARK VINA RESULT:      -5.7      0.000      0.000
REMARK  Name = 
REMARK  8 active torsions:
REMARK  status: ('A' for Active; 'I' for Inactive)
REMARK    1  A    between atoms: C_1  and  C_2
REMARK    2  A    between atoms: C_2  and  C_3
REMARK    3  A    between atoms: C_5  and  C_6
REMARK    4  A    between atoms: N_8  and  C_9
REMARK    5  A    between atoms: C_9  and  C_10
REMARK    6  A    between atoms: C_10  and  O_11
REMARK    7  A    between atoms: O_11  and  C_12
REMARK    8  A    between atoms: C_14  and  C_15
REMARK                            x       y       z     vdW  Elec       q    Type
REMARK                         _______ _______ _______ _____ _____    ______ ____
ROOT
ATOM      1  C   UNL     1       5.977   4.829  15.991  0.00  0.00    +0.000 A 
ATOM      2  C   UNL     1       4.782   4.041  16.114  0.00  0.00    +0.000 A 
ATOM      3  C   UNL     1       4.107   4.247  17.302  0.00  0.00    +0.000 A 
ATOM      4  S   UNL     1       4.900   5.426  18.253  0.00  0.00    +0.000 S 
ATOM      5  C   UNL     1       6.147   5.639  17.104  0.00  0.00    +0.000 A 
ATOM      6  C   UNL     1       7.247   6.607  17.391  0.00  0.00    +0.000 C 
ENDROOT
BRANCH   3   7
ATOM      7  C   UNL     1       2.890   3.581  17.754  0.00  0.00    +0.000 C 
ATOM      8  O   UNL     1       1.812   3.678  17.172  0.00  0.00    +0.000 OA
ATOM      9  N   UNL     1       3.022   2.818  18.900  0.00  0.00    +0.000 N 
ATOM     10  H   UNL     1       3.871   2.942  19.441  0.00  0.00    +0.000 HD
BRANCH   9  11
ATOM     11  C   UNL     1       1.886   2.202  19.557  0.00  0.00    +0.000 C 
BRANCH  11  12
ATOM     12  C   UNL     1       1.494   2.957  20.828  0.00  0.00    +0.000 C 
BRANCH  12  13
ATOM     13  O   UNL     1       0.826   4.171  20.464  0.00  0.00    +0.000 OA
ATOM     14  C   UNL     1       1.615   5.316  20.759  0.00  0.00    +0.000 C 
ENDBRANCH  12  13
ENDBRANCH  11  12
ENDBRANCH   9  11
ENDBRANCH   3   7
BRANCH   1  16
ATOM     15  C   UNL     1       6.341   3.980  13.647  0.00  0.00    +0.000 C 
ATOM     16  C   UNL     1       6.916   4.762  14.818  0.00  0.00    +0.000 C 
ENDBRANCH   1  16
TORSDOF 5
ENDMDL
MODEL 2
REMARK VINA RESULT:      -5.6      1.284      1.284
REMARK  Name = 
REMARK  8 active torsions:
REMARK  status: ('A' for Active; 'I' for Inactive)
REMARK    1  A    between atoms: C_1  and  C_2
REMARK    2  A    between atoms: C_2  and  C_3
REMARK    3  A    between atoms: C_5  and  C_6
REMARK    4  A    between atoms: N_8  and  C_9
REMARK    5  A    between atoms: C_9  and  C_10
REMARK    6  A    between atoms: C_10  and  O_11
REMARK    7  A    between atoms: O_11  and  C_12
REMARK    8  A    between atoms: C_14  and  C_15
REMARK                            x       y       z     vdW  Elec       q    Type
REMARK                         _______ _______ _______ _____ _____    ______ ____
ROOT
ATOM      1  C   UNL     1       6.197   4.679  15.893  0.00  0.00    +0.000 A 
ATOM      2  C   UNL     1       5.129   3.734  16.071  0.00  0.00    +0.000 A 
ATOM      3  C   UNL     1       4.555   3.782  17.327  0.00  0.00    +0.000 A 
ATOM      4  S   UNL     1       5.284   5.002  18.279  0.00  0.00    +0.000 S 
ATOM      5  C   UNL     1       6.373   5.441  17.037  0.00  0.00    +0.000 A 
ATOM      6  C   UNL     1       7.365   6.528  17.287  0.00  0.00    +0.000 C 
ENDROOT
BRANCH   3   7
ATOM      7  C   UNL     1       3.483   2.938  17.843  0.00  0.00    +0.000 C 
ATOM      8  O   UNL     1       3.616   1.734  18.055  0.00  0.00    +0.000 OA
ATOM      9  N   UNL     1       2.285   3.582  18.086  0.00  0.00    +0.000 N 
ATOM     10  H   UNL     1       2.178   4.516  17.704  0.00  0.00    +0.000 HD
BRANCH   9  11
ATOM     11  C   UNL     1       1.083   2.869  18.470  0.00  0.00    +0.000 C 
BRANCH  11  12
ATOM     12  C   UNL     1       0.721   3.122  19.935  0.00  0.00    +0.000 C 
BRANCH  12  13
ATOM     13  O   UNL     1       1.638   2.408  20.773  0.00  0.00    +0.000 OA
ATOM     14  C   UNL     1       2.264   3.265  21.719  0.00  0.00    +0.000 C 
ENDBRANCH  12  13
ENDBRANCH  11  12
ENDBRANCH   9  11
ENDBRANCH   3   7
BRANCH   1  16
ATOM     15  C   UNL     1       6.405   4.052  13.461  0.00  0.00    +0.000 C 
ATOM     16  C   UNL     1       7.015   4.801  14.636  0.00  0.00    +0.000 C 
ENDBRANCH   1  16
TORSDOF 5
ENDMDL
MODEL 3
REMARK VINA RESULT:      -5.5      2.817      6.627
REMARK  Name = 
REMARK  8 active torsions:
REMARK  status: ('A' for Active; 'I' for Inactive)
REMARK    1  A    between atoms: C_1  and  C_2
REMARK    2  A    between atoms: C_2  and  C_3
REMARK    3  A    between atoms: C_5  and  C_6
REMARK    4  A    between atoms: N_8  and  C_9
REMARK    5  A    between atoms: C_9  and  C_10
REMARK    6  A    between atoms: C_10  and  O_11
REMARK    7  A    between atoms: O_11  and  C_12
REMARK    8  A    between atoms: C_14  and  C_15
REMARK                            x       y       z     vdW  Elec       q    Type
REMARK                         _______ _______ _______ _____ _____    ______ ____
ROOT
ATOM      1  C   UNL     1       2.319   3.917  19.839  0.00  0.00    +0.000 A 
ATOM      2  C   UNL     1       3.556   4.614  19.619  0.00  0.00    +0.000 A 
ATOM      3  C   UNL     1       4.093   4.403  18.363  0.00  0.00    +0.000 A 
ATOM      4  S   UNL     1       3.076   3.390  17.434  0.00  0.00    +0.000 S 
ATOM      5  C   UNL     1       1.946   3.212  18.704  0.00  0.00    +0.000 A 
ATOM      6  C   UNL     1       0.742   2.355  18.496  0.00  0.00    +0.000 C 
ENDROOT
BRANCH   3   7
ATOM      7  C   UNL     1       5.349   4.928  17.838  0.00  0.00    +0.000 C 
ATOM      8  O   UNL     1       5.830   6.002  18.190  0.00  0.00    +0.000 OA
ATOM      9  N   UNL     1       5.980   4.129  16.903  0.00  0.00    +0.000 N 
ATOM     10  H   UNL     1       5.440   3.366  16.508  0.00  0.00    +0.000 HD
BRANCH   9  11
ATOM     11  C   UNL     1       7.162   4.562  16.184  0.00  0.00    +0.000 C 
BRANCH  11  12
ATOM     12  C   UNL     1       6.910   4.634  14.678  0.00  0.00    +0.000 C 
BRANCH  12  13
ATOM     13  O   UNL     1       7.910   5.466  14.076  0.00  0.00    +0.000 OA
ATOM     14  C   UNL     1       7.892   5.369  12.658  0.00  0.00    +0.000 C 
ENDBRANCH  12  13
ENDBRANCH  11  12
ENDBRANCH   9  11
ENDBRANCH   3   7
BRANCH   1  16
ATOM     15  C   UNL     1       1.711   2.659  21.936  0.00  0.00    +0.000 C 
ATOM     16  C   UNL     1       1.554   3.942  21.133  0.00  0.00    +0.000 C 
ENDBRANCH   1  16
TORSDOF 5
ENDMDL
MODEL 4
REMARK VINA RESULT:      -5.5      2.726      6.438
REMARK  Name = 
REMARK  8 active torsions:
REMARK  status: ('A' for Active; 'I' for Inactive)
REMARK    1  A    between atoms: C_1  and  C_2
REMARK    2  A    between atoms: C_2  and  C_3
REMARK    3  A    between atoms: C_5  and  C_6
REMARK    4  A    between atoms: N_8  and  C_9
REMARK    5  A    between atoms: C_9  and  C_10
REMARK    6  A    between atoms: C_10  and  O_11
REMARK    7  A    between atoms: O_11  and  C_12
REMARK    8  A    between atoms: C_14  and  C_15
REMARK                            x       y       z     vdW  Elec       q    Type
REMARK                         _______ _______ _______ _____ _____    ______ ____
ROOT
ATOM      1  C   UNL     1       2.599   3.843  19.856  0.00  0.00    +0.000 A 
ATOM      2  C   UNL     1       3.905   4.396  19.622  0.00  0.00    +0.000 A 
ATOM      3  C   UNL     1       4.429   4.066  18.387  0.00  0.00    +0.000 A 
ATOM      4  S   UNL     1       3.322   3.118  17.493  0.00  0.00    +0.000 S 
ATOM      5  C   UNL     1       2.167   3.124  18.753  0.00  0.00    +0.000 A 
ATOM      6  C   UNL     1       0.881   2.387  18.568  0.00  0.00    +0.000 C 
ENDROOT
BRANCH   3   7
ATOM      7  C   UNL     1       5.739   4.429  17.856  0.00  0.00    +0.000 C 
ATOM      8  O   UNL     1       6.750   4.509  18.550  0.00  0.00    +0.000 OA
ATOM      9  N   UNL     1       5.778   4.684  16.498  0.00  0.00    +0.000 N 
ATOM     10  H   UNL     1       4.888   4.803  16.025  0.00  0.00    +0.000 HD
BRANCH   9  11
ATOM     11  C   UNL     1       6.966   5.188  15.837  0.00  0.00    +0.000 C 
BRANCH  11  12
ATOM     12  C   UNL     1       7.024   4.750  14.373  0.00  0.00    +0.000 C 
BRANCH  12  13
ATOM     13  O   UNL     1       5.862   3.967  14.073  0.00  0.00    +0.000 OA
ATOM     14  C   UNL     1       5.867   3.513  12.725  0.00  0.00    +0.000 C 
ENDBRANCH  12  13
ENDBRANCH  11  12
ENDBRANCH   9  11
ENDBRANCH   3   7
BRANCH   1  16
ATOM     15  C   UNL     1       1.792   2.747  21.976  0.00  0.00    +0.000 C 
ATOM     16  C   UNL     1       1.827   4.014  21.136  0.00  0.00    +0.000 C 
ENDBRANCH   1  16
TORSDOF 5
ENDMDL
MODEL 5
REMARK VINA RESULT:      -5.4      1.565      1.637
REMARK  Name = 
REMARK  8 active torsions:
REMARK  status: ('A' for Active; 'I' for Inactive)
REMARK    1  A    between atoms: C_1  and  C_2
REMARK    2  A    between atoms: C_2  and  C_3
REMARK    3  A    between atoms: C_5  and  C_6
REMARK    4  A    between atoms: N_8  and  C_9
REMARK    5  A    between atoms: C_9  and  C_10
REMARK    6  A    between atoms: C_10  and  O_11
REMARK    7  A    between atoms: O_11  and  C_12
REMARK    8  A    between atoms: C_14  and  C_15
REMARK                            x       y       z     vdW  Elec       q    Type
REMARK                         _______ _______ _______ _____ _____    ______ ____
ROOT
ATOM      1  C   UNL     1       6.052   5.266  16.271  0.00  0.00    +0.000 A 
ATOM      2  C   UNL     1       5.194   4.233  16.783  0.00  0.00    +0.000 A 
ATOM      3  C   UNL     1       5.128   4.206  18.163  0.00  0.00    +0.000 A 
ATOM      4  S   UNL     1       6.076   5.459  18.838  0.00  0.00    +0.000 S 
ATOM      5  C   UNL     1       6.592   6.013  17.306  0.00  0.00    +0.000 A 
ATOM      6  C   UNL     1       7.530   7.171  17.227  0.00  0.00    +0.000 C 
ENDROOT
BRANCH   3   7
ATOM      7  C   UNL     1       4.384   3.266  18.994  0.00  0.00    +0.000 C 
ATOM      8  O   UNL     1       4.889   2.648  19.929  0.00  0.00    +0.000 OA
ATOM      9  N   UNL     1       3.052   3.107  18.663  0.00  0.00    +0.000 N 
ATOM     10  H   UNL     1       2.751   3.480  17.769  0.00  0.00    +0.000 HD
BRANCH   9  11
ATOM     11  C   UNL     1       2.207   2.115  19.299  0.00  0.00    +0.000 C 
BRANCH  11  12
ATOM     12  C   UNL     1       0.819   2.674  19.612  0.00  0.00    +0.000 C 
BRANCH  12  13
ATOM     13  O   UNL     1       0.776   3.073  20.988  0.00  0.00    +0.000 OA
ATOM     14  C   UNL     1       1.935   2.651  21.695  0.00  0.00    +0.000 C 
ENDBRANCH  12  13
ENDBRANCH  11  12
ENDBRANCH   9  11
ENDBRANCH   3   7
BRANCH   1  16
ATOM     15  C   UNL     1       6.330   4.188  14.010  0.00  0.00    +0.000 C 
ATOM     16  C   UNL     1       6.333   5.483  14.809  0.00  0.00    +0.000 C 
ENDBRANCH   1  16
TORSDOF 5
ENDMDL
MODEL 6
REMARK VINA RESULT:      -5.4      1.766      2.909
REMARK  Name = 
REMARK  8 active torsions:
REMARK  status: ('A' for Active; 'I' for Inactive)
REMARK    1  A    between atoms: C_1  and  C_2
REMARK    2  A    between atoms: C_2  and  C_3
REMARK    3  A    between atoms: C_5  and  C_6
REMARK    4  A    between atoms: N_8  and  C_9
REMARK    5  A    between atoms: C_9  and  C_10
REMARK    6  A    between atoms: C_10  and  O_11
REMARK    7  A    between atoms: O_11  and  C_12
REMARK    8  A    between atoms: C_14  and  C_15
REMARK                            x       y       z     vdW  Elec       q    Type
REMARK                         _______ _______ _______ _____ _____    ______ ____
ROOT
ATOM      1  C   UNL     1       5.974   5.883  17.489  0.00  0.00    +0.000 A 
ATOM      2  C   UNL     1       5.600   5.374  18.780  0.00  0.00    +0.000 A 
ATOM      3  C   UNL     1       4.769   4.271  18.717  0.00  0.00    +0.000 A 
ATOM      4  S   UNL     1       4.473   3.829  17.092  0.00  0.00    +0.000 S 
ATOM      5  C   UNL     1       5.420   5.112  16.479  0.00  0.00    +0.000 A 
ATOM      6  C   UNL     1       5.547   5.284  15.001  0.00  0.00    +0.000 C 
ENDROOT
BRANCH   3   7
ATOM      7  C   UNL     1       4.180   3.543  19.836  0.00  0.00    +0.000 C 
ATOM      8  O   UNL     1       4.567   2.433  20.196  0.00  0.00    +0.000 OA
ATOM      9  N   UNL     1       3.141   4.186  20.481  0.00  0.00    +0.000 N 
ATOM     10  H   UNL     1       2.738   4.993  20.016  0.00  0.00    +0.000 HD
BRANCH   9  11
ATOM     11  C   UNL     1       2.359   3.548  21.521  0.00  0.00    +0.000 C 
BRANCH  11  12
ATOM     12  C   UNL     1       1.350   2.557  20.940  0.00  0.00    +0.000 C 
BRANCH  12  13
ATOM     13  O   UNL     1       0.677   3.170  19.834  0.00  0.00    +0.000 OA
ATOM     14  C   UNL     1       0.775   2.381  18.654  0.00  0.00    +0.000 C 
ENDBRANCH  12  13
ENDBRANCH  11  12
ENDBRANCH   9  11
ENDBRANCH   3   7
BRANCH   1  16
ATOM     15  C   UNL     1       7.973   7.197  18.281  0.00  0.00    +0.000 C 
ATOM     16  C   UNL     1       6.833   7.100  17.278  0.00  0.00    +0.000 C 
ENDBRANCH   1  16
TORSDOF 5
ENDMDL
MODEL 7
REMARK VINA RESULT:      -5.3      3.891      6.635
REMARK  Name = 
REMARK  8 active torsions:
REMARK  status: ('A' for Active; 'I' for Inactive)
REMARK    1  A    between atoms: C_1  and  C_2
REMARK    2  A    between atoms: C_2  and  C_3
REMARK    3  A    between atoms: C_5  and  C_6
REMARK    4  A    between atoms: N_8  and  C_9
REMARK    5  A    between atoms: C_9  and  C_10
REMARK    6  A    between atoms: C_10  and  O_11
REMARK    7  A    between atoms: O_11  and  C_12
REMARK    8  A    between atoms: C_14  and  C_15
REMARK                            x       y       z     vdW  Elec       q    Type
REMARK                         _______ _______ _______ _____ _____    ______ ____
ROOT
ATOM      1  C   UNL     1       4.723   4.118  17.315  0.00  0.00    +0.000 A 
ATOM      2  C   UNL     1       4.973   3.914  15.915  0.00  0.00    +0.000 A 
ATOM      3  C   UNL     1       6.160   4.473  15.480  0.00  0.00    +0.000 A 
ATOM      4  S   UNL     1       6.992   5.212  16.779  0.00  0.00    +0.000 S 
ATOM      5  C   UNL     1       5.768   4.814  17.903  0.00  0.00    +0.000 A 
ATOM      6  C   UNL     1       5.918   5.240  19.326  0.00  0.00    +0.000 C 
ENDROOT
BRANCH   3   7
ATOM      7  C   UNL     1       6.688   4.481  14.120  0.00  0.00    +0.000 C 
ATOM      8  O   UNL     1       7.487   5.321  13.712  0.00  0.00    +0.000 OA
ATOM      9  N   UNL     1       6.228   3.468  13.299  0.00  0.00    +0.000 N 
ATOM     10  H   UNL     1       5.426   2.938  13.626  0.00  0.00    +0.000 HD
BRANCH   9  11
ATOM     11  C   UNL     1       6.546   3.409  11.887  0.00  0.00    +0.000 C 
BRANCH  11  12
ATOM     12  C   UNL     1       7.010   2.012  11.472  0.00  0.00    +0.000 C 
BRANCH  12  13
ATOM     13  O   UNL     1       5.864   1.212  11.160  0.00  0.00    +0.000 OA
ATOM     14  C   UNL     1       6.140  -0.177  11.291  0.00  0.00    +0.000 C 
ENDBRANCH  12  13
ENDBRANCH  11  12
ENDBRANCH   9  11
ENDBRANCH   3   7
BRANCH   1  16
ATOM     15  C   UNL     1       3.260   2.151  17.900  0.00  0.00    +0.000 C 
ATOM     16  C   UNL     1       3.484   3.650  18.029  0.00  0.00    +0.000 C 
ENDBRANCH   1  16
TORSDOF 5
ENDMDL
MODEL 8
REMARK VINA RESULT:      -5.3      1.076      2.154
REMARK  Name = 
REMARK  8 active torsions:
REMARK  status: ('A' for Active; 'I' for Inactive)
REMARK    1  A    between atoms: C_1  and  C_2
REMARK    2  A    between atoms: C_2  and  C_3
REMARK    3  A    between atoms: C_5  and  C_6
REMARK    4  A    between atoms: N_8  and  C_9
REMARK    5  A    between atoms: C_9  and  C_10
REMARK    6  A    between atoms: C_10  and  O_11
REMARK    7  A    between atoms: O_11  and  C_12
REMARK    8  A    between atoms: C_14  and  C_15
REMARK                            x       y       z     vdW  Elec       q    Type
REMARK                         _______ _______ _______ _____ _____    ______ ____
ROOT
ATOM      1  C   UNL     1       6.471   5.007  17.627  0.00  0.00    +0.000 A 
ATOM      2  C   UNL     1       5.305   4.543  18.327  0.00  0.00    +0.000 A 
ATOM      3  C   UNL     1       4.382   3.920  17.507  0.00  0.00    +0.000 A 
ATOM      4  S   UNL     1       4.947   3.863  15.895  0.00  0.00    +0.000 S 
ATOM      5  C   UNL     1       6.395   4.685  16.281  0.00  0.00    +0.000 A 
ATOM      6  C   UNL     1       7.380   4.977  15.197  0.00  0.00    +0.000 C 
ENDROOT
BRANCH   3   7
ATOM      7  C   UNL     1       3.084   3.375  17.891  0.00  0.00    +0.000 C 
ATOM      8  O   UNL     1       2.071   3.502  17.208  0.00  0.00    +0.000 OA
ATOM      9  N   UNL     1       3.060   2.693  19.093  0.00  0.00    +0.000 N 
ATOM     10  H   UNL     1       3.866   2.799  19.700  0.00  0.00    +0.000 HD
BRANCH   9  11
ATOM     11  C   UNL     1       1.829   2.208  19.685  0.00  0.00    +0.000 C 
BRANCH  11  12
ATOM     12  C   UNL     1       1.422   3.041  20.901  0.00  0.00    +0.000 C 
BRANCH  12  13
ATOM     13  O   UNL     1       0.850   4.276  20.451  0.00  0.00    +0.000 OA
ATOM     14  C   UNL     1       1.706   5.380  20.717  0.00  0.00    +0.000 C 
ENDBRANCH  12  13
ENDBRANCH  11  12
ENDBRANCH   9  11
ENDBRANCH   3   7
BRANCH   1  16
ATOM     15  C   UNL     1       7.642   7.223  17.881  0.00  0.00    +0.000 C 
ATOM     16  C   UNL     1       7.603   5.755  18.276  0.00  0.00    +0.000 C 
ENDBRANCH   1  16
TORSDOF 5
ENDMDL
MODEL 9
REMARK VINA RESULT:      -5.3      1.525      1.550
REMARK  Name = 
REMARK  8 active torsions:
REMARK  status: ('A' for Active; 'I' for Inactive)
REMARK    1  A    between atoms: C_1  and  C_2
REMARK    2  A    between atoms: C_2  and  C_3
REMARK    3  A    between atoms: C_5  and  C_6
REMARK    4  A    between atoms: N_8  and  C_9
REMARK    5  A    between atoms: C_9  and  C_10
REMARK    6  A    between atoms: C_10  and  O_11
REMARK    7  A    between atoms: O_11  and  C_12
REMARK    8  A    between atoms: C_14  and  C_15
REMARK                            x       y       z     vdW  Elec       q    Type
REMARK                         _______ _______ _______ _____ _____    ______ ____
ROOT
ATOM      1  C   UNL     1       5.654   5.159  16.471  0.00  0.00    +0.000 A 
ATOM      2  C   UNL     1       4.815   4.154  17.064  0.00  0.00    +0.000 A 
ATOM      3  C   UNL     1       4.953   4.061  18.436  0.00  0.00    +0.000 A 
ATOM      4  S   UNL     1       6.071   5.220  19.012  0.00  0.00    +0.000 S 
ATOM      5  C   UNL     1       6.388   5.820  17.444  0.00  0.00    +0.000 A 
ATOM      6  C   UNL     1       7.379   6.924  17.272  0.00  0.00    +0.000 C 
ENDROOT
BRANCH   3   7
ATOM      7  C   UNL     1       4.281   3.124  19.331  0.00  0.00    +0.000 C 
ATOM      8  O   UNL     1       4.883   2.341  20.062  0.00  0.00    +0.000 OA
ATOM      9  N   UNL     1       2.900   3.170  19.308  0.00  0.00    +0.000 N 
ATOM     10  H   UNL     1       2.468   3.682  18.547  0.00  0.00    +0.000 HD
BRANCH   9  11
ATOM     11  C   UNL     1       2.081   2.218  20.032  0.00  0.00    +0.000 C 
BRANCH  11  12
ATOM     12  C   UNL     1       1.405   2.863  21.243  0.00  0.00    +0.000 C 
BRANCH  12  13
ATOM     13  O   UNL     1       2.050   4.110  21.529  0.00  0.00    +0.000 OA
ATOM     14  C   UNL     1       1.474   5.182  20.794  0.00  0.00    +0.000 C 
ENDBRANCH  12  13
ENDBRANCH  11  12
ENDBRANCH   9  11
ENDBRANCH   3   7
BRANCH   1  16
ATOM     15  C   UNL     1       6.677   4.492  14.267  0.00  0.00    +0.000 C 
ATOM     16  C   UNL     1       5.728   5.433  14.994  0.00  0.00    +0.000 C 
ENDBRANCH   1  16
TORSDOF 5
ENDMDL
