MODEL 1
REMARK VINA RESULT:      -6.9      0.000      0.000
REMARK  Name = 
REMARK  6 active torsions:
REMARK  status: ('A' for Active; 'I' for Inactive)
REMARK    1  A    between atoms: C_1  and  O_2
REMARK    2  A    between atoms: O_2  and  C_3
REMARK    3  A    between atoms: C_3  and  C_5
REMARK    4  A    between atoms: C_8  and  C_9
REMARK    5  A    between atoms: C_9  and  S_10
REMARK    6  A    between atoms: S_10  and  C_11
REMARK                            x       y       z     vdW  Elec       q    Type
REMARK                         _______ _______ _______ _____ _____    ______ ____
ROOT
ATOM      1  S   UNL     1       3.513   7.057  17.388  0.00  0.00    +0.000 S 
ENDROOT
BRANCH   1   2
ATOM      2  C   UNL     1       2.651   6.186  18.701  0.00  0.00    +0.000 A 
ATOM      3  N   UNL     1       2.297   6.916  19.778  0.00  0.00    +0.000 NA
ATOM      4  C   UNL     1       1.687   6.242  20.758  0.00  0.00    +0.000 A 
ATOM      5  N   UNL     1       1.414   4.931  20.769  0.00  0.00    +0.000 NA
ATOM      6  C   UNL     1       1.771   4.225  19.691  0.00  0.00    +0.000 A 
ATOM      7  C   UNL     1       1.513   2.859  19.675  0.00  0.00    +0.000 A 
ATOM      8  C   UNL     1       1.851   2.051  18.587  0.00  0.00    +0.000 A 
ATOM      9  C   UNL     1       2.457   2.615  17.475  0.00  0.00    +0.000 A 
ATOM     10  C   UNL     1       2.731   3.980  17.468  0.00  0.00    +0.000 A 
ATOM     11  C   UNL     1       2.400   4.804  18.582  0.00  0.00    +0.000 A 
ENDBRANCH   1   2
BRANCH   1  12
ATOM     12  C   UNL     1       5.214   7.161  18.043  0.00  0.00    +0.000 C 
BRANCH  12  16
ATOM     13  C   UNL     1       6.920   5.092  15.637  0.00  0.00    +0.000 A 
ATOM     14  C   UNL     1       7.330   4.387  16.754  0.00  0.00    +0.000 A 
ATOM     15  C   UNL     1       6.783   5.046  17.883  0.00  0.00    +0.000 A 
ATOM     16  C   UNL     1       6.062   6.117  17.398  0.00  0.00    +0.000 A 
ATOM     17  O   UNL     1       6.175   6.169  16.037  0.00  0.00    +0.000 OA
BRANCH  13  18
ATOM     18  C   UNL     1       7.145   4.846  14.231  0.00  0.00    +0.000 C 
ATOM     19  O   UNL     1       7.907   5.485  13.516  0.00  0.00    +0.000 OA
BRANCH  18  21
ATOM     20  C   UNL     1       6.397   3.575  12.398  0.00  0.00    +0.000 C 
ATOM     21  O   UNL     1       6.397   3.784  13.810  0.00  0.00    +0.000 OA
ENDBRANCH  18  21
ENDBRANCH  13  18
ENDBRANCH  12  16
ENDBRANCH   1  12
TORSDOF 5
ENDMDL
MODEL 2
REMARK VINA RESULT:      -6.8      1.846      3.033
REMARK  Name = 
REMARK  6 active torsions:
REMARK  status: ('A' for Active; 'I' for Inactive)
REMARK    1  A    between atoms: C_1  and  O_2
REMARK    2  A    between atoms: O_2  and  C_3
REMARK    3  A    between atoms: C_3  and  C_5
REMARK    4  A    between atoms: C_8  and  C_9
REMARK    5  A    between atoms: C_9  and  S_10
REMARK    6  A    between atoms: S_10  and  C_11
REMARK                            x       y       z     vdW  Elec       q    Type
REMARK                         _______ _______ _______ _____ _____    ______ ____
ROOT
ATOM      1  S   UNL     1       4.590   3.954  16.675  0.00  0.00    +0.000 S 
ENDROOT
BRANCH   1   2
ATOM      2  C   UNL     1       3.636   4.976  17.801  0.00  0.00    +0.000 A 
ATOM      3  N   UNL     1       3.767   6.310  17.666  0.00  0.00    +0.000 NA
ATOM      4  C   UNL     1       3.074   7.052  18.536  0.00  0.00    +0.000 A 
ATOM      5  N   UNL     1       2.288   6.595  19.518  0.00  0.00    +0.000 NA
ATOM      6  C   UNL     1       2.168   5.268  19.635  0.00  0.00    +0.000 A 
ATOM      7  C   UNL     1       1.368   4.760  20.653  0.00  0.00    +0.000 A 
ATOM      8  C   UNL     1       1.187   3.387  20.841  0.00  0.00    +0.000 A 
ATOM      9  C   UNL     1       1.814   2.490  19.990  0.00  0.00    +0.000 A 
ATOM     10  C   UNL     1       2.624   2.973  18.967  0.00  0.00    +0.000 A 
ATOM     11  C   UNL     1       2.821   4.371  18.780  0.00  0.00    +0.000 A 
ENDBRANCH   1   2
BRANCH   1  12
ATOM     12  C   UNL     1       5.815   5.139  16.020  0.00  0.00    +0.000 C 
BRANCH  12  16
ATOM     13  C   UNL     1       5.866   3.669  12.730  0.00  0.00    +0.000 A 
ATOM     14  C   UNL     1       7.111   4.265  12.644  0.00  0.00    +0.000 A 
ATOM     15  C   UNL     1       7.324   4.955  13.863  0.00  0.00    +0.000 A 
ATOM     16  C   UNL     1       6.201   4.742  14.634  0.00  0.00    +0.000 A 
ATOM     17  O   UNL     1       5.298   3.993  13.934  0.00  0.00    +0.000 OA
BRANCH  13  18
ATOM     18  C   UNL     1       5.162   2.814  11.802  0.00  0.00    +0.000 C 
ATOM     19  O   UNL     1       5.634   1.824  11.258  0.00  0.00    +0.000 OA
BRANCH  18  21
ATOM     20  C   UNL     1       3.428   3.256  10.275  0.00  0.00    +0.000 C 
ATOM     21  O   UNL     1       3.881   3.256  11.628  0.00  0.00    +0.000 OA
ENDBRANCH  18  21
ENDBRANCH  13  18
ENDBRANCH  12  16
ENDBRANCH   1  12
TORSDOF 5
ENDMDL
MODEL 3
REMARK VINA RESULT:      -6.8      2.952      5.724
REMARK  Name = 
REMARK  6 active torsions:
REMARK  status: ('A' for Active; 'I' for Inactive)
REMARK    1  A    between atoms: C_1  and  O_2
REMARK    2  A    between atoms: O_2  and  C_3
REMARK    3  A    between atoms: C_3  and  C_5
REMARK    4  A    between atoms: C_8  and  C_9
REMARK    5  A    between atoms: C_9  and  S_10
REMARK    6  A    between atoms: S_10  and  C_11
REMARK                            x       y       z     vdW  Elec       q    Type
REMARK                         _______ _______ _______ _____ _____    ______ ____
ROOT
ATOM      1  S   UNL     1       3.349   6.989  17.833  0.00  0.00    +0.000 S 
ENDROOT
BRANCH   1   2
ATOM      2  C   UNL     1       4.865   6.042  18.002  0.00  0.00    +0.000 A 
ATOM      3  N   UNL     1       5.351   5.898  19.250  0.00  0.00    +0.000 NA
ATOM      4  C   UNL     1       6.498   5.218  19.351  0.00  0.00    +0.000 A 
ATOM      5  N   UNL     1       7.198   4.691  18.339  0.00  0.00    +0.000 NA
ATOM      6  C   UNL     1       6.698   4.842  17.107  0.00  0.00    +0.000 A 
ATOM      7  C   UNL     1       7.407   4.316  16.032  0.00  0.00    +0.000 A 
ATOM      8  C   UNL     1       6.952   4.428  14.716  0.00  0.00    +0.000 A 
ATOM      9  C   UNL     1       5.753   5.075  14.457  0.00  0.00    +0.000 A 
ATOM     10  C   UNL     1       5.028   5.614  15.515  0.00  0.00    +0.000 A 
ATOM     11  C   UNL     1       5.495   5.514  16.857  0.00  0.00    +0.000 A 
ENDBRANCH   1   2
BRANCH   1  12
ATOM     12  C   UNL     1       2.703   6.996  19.541  0.00  0.00    +0.000 C 
BRANCH  12  16
ATOM     13  C   UNL     1       1.534   3.592  19.355  0.00  0.00    +0.000 A 
ATOM     14  C   UNL     1       1.295   3.756  20.707  0.00  0.00    +0.000 A 
ATOM     15  C   UNL     1       1.712   5.068  21.045  0.00  0.00    +0.000 A 
ATOM     16  C   UNL     1       2.179   5.641  19.881  0.00  0.00    +0.000 A 
ATOM     17  O   UNL     1       2.107   4.734  18.861  0.00  0.00    +0.000 OA
BRANCH  13  18
ATOM     18  C   UNL     1       1.263   2.477  18.477  0.00  0.00    +0.000 C 
ATOM     19  O   UNL     1       0.206   1.862  18.423  0.00  0.00    +0.000 OA
BRANCH  18  21
ATOM     20  C   UNL     1       3.408   1.518  18.358  0.00  0.00    +0.000 C 
ATOM     21  O   UNL     1       2.353   2.214  17.696  0.00  0.00    +0.000 OA
ENDBRANCH  18  21
ENDBRANCH  13  18
ENDBRANCH  12  16
ENDBRANCH   1  12
TORSDOF 5
ENDMDL
MODEL 4
REMARK VINA RESULT:      -6.7      2.081      3.745
REMARK  Name = 
REMARK  6 active torsions:
REMARK  status: ('A' for Active; 'I' for Inactive)
REMARK    1  A    between atoms: C_1  and  O_2
REMARK    2  A    between atoms: O_2  and  C_3
REMARK    3  A    between atoms: C_3  and  C_5
REMARK    4  A    between atoms: C_8  and  C_9
REMARK    5  A    between atoms: C_9  and  S_10
REMARK    6  A    between atoms: S_10  and  C_11
REMARK                            x       y       z     vdW  Elec       q    Type
REMARK                         _______ _______ _______ _____ _____    ______ ____
ROOT
ATOM      1  S   UNL     1       5.393   6.132  16.132  0.00  0.00    +0.000 S 
ENDROOT
BRANCH   1   2
ATOM      2  C   UNL     1       4.695   5.333  17.581  0.00  0.00    +0.000 A 
ATOM      3  N   UNL     1       5.137   4.090  17.856  0.00  0.00    +0.000 NA
ATOM      4  C   UNL     1       4.581   3.500  18.919  0.00  0.00    +0.000 A 
ATOM      5  N   UNL     1       3.634   4.019  19.710  0.00  0.00    +0.000 NA
ATOM      6  C   UNL     1       3.210   5.255  19.422  0.00  0.00    +0.000 A 
ATOM      7  C   UNL     1       2.217   5.820  20.216  0.00  0.00    +0.000 A 
ATOM      8  C   UNL     1       1.722   7.106  19.985  0.00  0.00    +0.000 A 
ATOM      9  C   UNL     1       2.231   7.859  18.938  0.00  0.00    +0.000 A 
ATOM     10  C   UNL     1       3.222   7.314  18.125  0.00  0.00    +0.000 A 
ATOM     11  C   UNL     1       3.718   5.998  18.350  0.00  0.00    +0.000 A 
ENDBRANCH   1   2
BRANCH   1  12
ATOM     12  C   UNL     1       6.842   5.083  15.770  0.00  0.00    +0.000 C 
BRANCH  12  16
ATOM     13  C   UNL     1       6.111   3.667  12.538  0.00  0.00    +0.000 A 
ATOM     14  C   UNL     1       7.222   4.386  12.135  0.00  0.00    +0.000 A 
ATOM     15  C   UNL     1       7.702   5.079  13.275  0.00  0.00    +0.000 A 
ATOM     16  C   UNL     1       6.862   4.745  14.317  0.00  0.00    +0.000 A 
ATOM     17  O   UNL     1       5.873   3.917  13.863  0.00  0.00    +0.000 OA
BRANCH  13  18
ATOM     18  C   UNL     1       5.260   2.758  11.806  0.00  0.00    +0.000 C 
ATOM     19  O   UNL     1       5.606   1.673  11.359  0.00  0.00    +0.000 OA
BRANCH  18  21
ATOM     20  C   UNL     1       3.406   3.134  10.407  0.00  0.00    +0.000 C 
ATOM     21  O   UNL     1       3.999   3.273  11.697  0.00  0.00    +0.000 OA
ENDBRANCH  18  21
ENDBRANCH  13  18
ENDBRANCH  12  16
ENDBRANCH   1  12
TORSDOF 5
ENDMDL
MODEL 5
REMARK VINA RESULT:      -6.7      3.208      6.589
REMARK  Name = 
REMARK  6 active torsions:
REMARK  status: ('A' for Active; 'I' for Inactive)
REMARK    1  A    between atoms: C_1  and  O_2
REMARK    2  A    between atoms: O_2  and  C_3
REMARK    3  A    between atoms: C_3  and  C_5
REMARK    4  A    between atoms: C_8  and  C_9
REMARK    5  A    between atoms: C_9  and  S_10
REMARK    6  A    between atoms: S_10  and  C_11
REMARK                            x       y       z     vdW  Elec       q    Type
REMARK                         _______ _______ _______ _____ _____    ______ ____
ROOT
ATOM      1  S   UNL     1       3.794   3.650  16.659  0.00  0.00    +0.000 S 
ENDROOT
BRANCH   1   2
ATOM      2  C   UNL     1       5.321   4.468  16.186  0.00  0.00    +0.000 A 
ATOM      3  N   UNL     1       5.912   5.232  17.126  0.00  0.00    +0.000 NA
ATOM      4  C   UNL     1       7.029   5.859  16.743  0.00  0.00    +0.000 A 
ATOM      5  N   UNL     1       7.593   5.807  15.530  0.00  0.00    +0.000 NA
ATOM      6  C   UNL     1       6.993   5.041  14.612  0.00  0.00    +0.000 A 
ATOM      7  C   UNL     1       7.545   4.974  13.337  0.00  0.00    +0.000 A 
ATOM      8  C   UNL     1       6.982   4.195  12.323  0.00  0.00    +0.000 A 
ATOM      9  C   UNL     1       5.839   3.455  12.581  0.00  0.00    +0.000 A 
ATOM     10  C   UNL     1       5.264   3.509  13.848  0.00  0.00    +0.000 A 
ATOM     11  C   UNL     1       5.827   4.313  14.880  0.00  0.00    +0.000 A 
ENDBRANCH   1   2
BRANCH   1  12
ATOM     12  C   UNL     1       4.115   3.205  18.400  0.00  0.00    +0.000 C 
BRANCH  12  16
ATOM     13  C   UNL     1       2.352   5.963  19.907  0.00  0.00    +0.000 A 
ATOM     14  C   UNL     1       2.016   5.030  20.871  0.00  0.00    +0.000 A 
ATOM     15  C   UNL     1       2.599   3.799  20.476  0.00  0.00    +0.000 A 
ATOM     16  C   UNL     1       3.266   4.044  19.294  0.00  0.00    +0.000 A 
ATOM     17  O   UNL     1       3.086   5.348  18.927  0.00  0.00    +0.000 OA
BRANCH  13  18
ATOM     18  C   UNL     1       2.066   7.377  19.822  0.00  0.00    +0.000 C 
ATOM     19  O   UNL     1       1.469   8.028  20.668  0.00  0.00    +0.000 OA
BRANCH  18  21
ATOM     20  C   UNL     1       1.811   8.957  18.098  0.00  0.00    +0.000 C 
ATOM     21  O   UNL     1       2.575   7.894  18.664  0.00  0.00    +0.000 OA
ENDBRANCH  18  21
ENDBRANCH  13  18
ENDBRANCH  12  16
ENDBRANCH   1  12
TORSDOF 5
ENDMDL
MODEL 6
REMARK VINA RESULT:      -6.6      3.363      6.337
REMARK  Name = 
REMARK  6 active torsions:
REMARK  status: ('A' for Active; 'I' for Inactive)
REMARK    1  A    between atoms: C_1  and  O_2
REMARK    2  A    between atoms: O_2  and  C_3
REMARK    3  A    between atoms: C_3  and  C_5
REMARK    4  A    between atoms: C_8  and  C_9
REMARK    5  A    between atoms: C_9  and  S_10
REMARK    6  A    between atoms: S_10  and  C_11
REMARK                            x       y       z     vdW  Elec       q    Type
REMARK                         _______ _______ _______ _____ _____    ______ ____
ROOT
ATOM      1  S   UNL     1       4.080   2.920  17.791  0.00  0.00    +0.000 S 
ENDROOT
BRANCH   1   2
ATOM      2  C   UNL     1       5.017   4.159  16.891  0.00  0.00    +0.000 A 
ATOM      3  N   UNL     1       4.789   4.243  15.565  0.00  0.00    +0.000 NA
ATOM      4  C   UNL     1       5.521   5.149  14.908  0.00  0.00    +0.000 A 
ATOM      5  N   UNL     1       6.451   5.953  15.438  0.00  0.00    +0.000 NA
ATOM      6  C   UNL     1       6.661   5.856  16.755  0.00  0.00    +0.000 A 
ATOM      7  C   UNL     1       7.629   6.669  17.336  0.00  0.00    +0.000 A 
ATOM      8  C   UNL     1       7.907   6.632  18.705  0.00  0.00    +0.000 A 
ATOM      9  C   UNL     1       7.200   5.767  19.525  0.00  0.00    +0.000 A 
ATOM     10  C   UNL     1       6.229   4.940  18.968  0.00  0.00    +0.000 A 
ATOM     11  C   UNL     1       5.953   4.965  17.571  0.00  0.00    +0.000 A 
ENDBRANCH   1   2
BRANCH   1  12
ATOM     12  C   UNL     1       2.393   3.617  17.769  0.00  0.00    +0.000 C 
BRANCH  12  16
ATOM     13  C   UNL     1       2.225   7.089  18.722  0.00  0.00    +0.000 A 
ATOM     14  C   UNL     1       2.471   6.600  19.992  0.00  0.00    +0.000 A 
ATOM     15  C   UNL     1       2.560   5.189  19.882  0.00  0.00    +0.000 A 
ATOM     16  C   UNL     1       2.369   4.889  18.550  0.00  0.00    +0.000 A 
ATOM     17  O   UNL     1       2.128   6.037  17.849  0.00  0.00    +0.000 OA
BRANCH  13  18
ATOM     18  C   UNL     1       2.087   8.445  18.242  0.00  0.00    +0.000 C 
ATOM     19  O   UNL     1       2.586   8.885  17.216  0.00  0.00    +0.000 OA
BRANCH  18  21
ATOM     20  C   UNL     1       1.246  10.567  18.811  0.00  0.00    +0.000 C 
ATOM     21  O   UNL     1       1.300   9.170  19.092  0.00  0.00    +0.000 OA
ENDBRANCH  18  21
ENDBRANCH  13  18
ENDBRANCH  12  16
ENDBRANCH   1  12
TORSDOF 5
ENDMDL
MODEL 7
REMARK VINA RESULT:      -6.6      4.845      6.974
REMARK  Name = 
REMARK  6 active torsions:
REMARK  status: ('A' for Active; 'I' for Inactive)
REMARK    1  A    between atoms: C_1  and  O_2
REMARK    2  A    between atoms: O_2  and  C_3
REMARK    3  A    between atoms: C_3  and  C_5
REMARK    4  A    between atoms: C_8  and  C_9
REMARK    5  A    between atoms: C_9  and  S_10
REMARK    6  A    between atoms: S_10  and  C_11
REMARK                            x       y       z     vdW  Elec       q    Type
REMARK                         _______ _______ _______ _____ _____    ______ ____
ROOT
ATOM      1  S   UNL     1       2.350   7.269  19.530  0.00  0.00    +0.000 S 
ENDROOT
BRANCH   1   2
ATOM      2  C   UNL     1       2.958   5.901  18.537  0.00  0.00    +0.000 A 
ATOM      3  N   UNL     1       3.938   6.183  17.657  0.00  0.00    +0.000 NA
ATOM      4  C   UNL     1       4.353   5.158  16.904  0.00  0.00    +0.000 A 
ATOM      5  N   UNL     1       3.879   3.906  16.939  0.00  0.00    +0.000 NA
ATOM      6  C   UNL     1       2.908   3.646  17.821  0.00  0.00    +0.000 A 
ATOM      7  C   UNL     1       2.386   2.358  17.874  0.00  0.00    +0.000 A 
ATOM      8  C   UNL     1       1.373   2.003  18.769  0.00  0.00    +0.000 A 
ATOM      9  C   UNL     1       0.866   2.953  19.643  0.00  0.00    +0.000 A 
ATOM     10  C   UNL     1       1.369   4.250  19.606  0.00  0.00    +0.000 A 
ATOM     11  C   UNL     1       2.392   4.619  18.686  0.00  0.00    +0.000 A 
ENDBRANCH   1   2
BRANCH   1  12
ATOM     12  C   UNL     1       2.134   8.586  18.284  0.00  0.00    +0.000 C 
BRANCH  12  16
ATOM     13  C   UNL     1      -0.982  10.393  18.174  0.00  0.00    +0.000 A 
ATOM     14  C   UNL     1      -0.636  10.775  19.457  0.00  0.00    +0.000 A 
ATOM     15  C   UNL     1       0.599  10.148  19.757  0.00  0.00    +0.000 A 
ATOM     16  C   UNL     1       0.948   9.419  18.640  0.00  0.00    +0.000 A 
ATOM     17  O   UNL     1      -0.029   9.536  17.691  0.00  0.00    +0.000 OA
BRANCH  13  18
ATOM     18  C   UNL     1      -2.109  10.765  17.350  0.00  0.00    +0.000 C 
ATOM     19  O   UNL     1      -2.813  11.752  17.521  0.00  0.00    +0.000 OA
BRANCH  18  21
ATOM     20  C   UNL     1      -2.908  10.387  15.170  0.00  0.00    +0.000 C 
ATOM     21  O   UNL     1      -2.272   9.865  16.336  0.00  0.00    +0.000 OA
ENDBRANCH  18  21
ENDBRANCH  13  18
ENDBRANCH  12  16
ENDBRANCH   1  12
TORSDOF 5
ENDMDL
MODEL 8
REMARK VINA RESULT:      -6.6      3.929      6.956
REMARK  Name = 
REMARK  6 active torsions:
REMARK  status: ('A' for Active; 'I' for Inactive)
REMARK    1  A    between atoms: C_1  and  O_2
REMARK    2  A    between atoms: O_2  and  C_3
REMARK    3  A    between atoms: C_3  and  C_5
REMARK    4  A    between atoms: C_8  and  C_9
REMARK    5  A    between atoms: C_9  and  S_10
REMARK    6  A    between atoms: S_10  and  C_11
REMARK                            x       y       z     vdW  Elec       q    Type
REMARK                         _______ _______ _______ _____ _____    ______ ____
ROOT
ATOM      1  S   UNL     1       3.045   4.755  18.429  0.00  0.00    +0.000 S 
ENDROOT
BRANCH   1   2
ATOM      2  C   UNL     1       4.821   4.953  18.253  0.00  0.00    +0.000 A 
ATOM      3  N   UNL     1       5.504   5.289  19.365  0.00  0.00    +0.000 NA
ATOM      4  C   UNL     1       6.820   5.464  19.206  0.00  0.00    +0.000 A 
ATOM      5  N   UNL     1       7.502   5.350  18.060  0.00  0.00    +0.000 NA
ATOM      6  C   UNL     1       6.807   5.013  16.968  0.00  0.00    +0.000 A 
ATOM      7  C   UNL     1       7.484   4.897  15.758  0.00  0.00    +0.000 A 
ATOM      8  C   UNL     1       6.833   4.546  14.573  0.00  0.00    +0.000 A 
ATOM      9  C   UNL     1       5.470   4.295  14.587  0.00  0.00    +0.000 A 
ATOM     10  C   UNL     1       4.769   4.408  15.785  0.00  0.00    +0.000 A 
ATOM     11  C   UNL     1       5.427   4.780  16.992  0.00  0.00    +0.000 A 
ENDBRANCH   1   2
BRANCH   1  12
ATOM     12  C   UNL     1       2.649   5.961  19.741  0.00  0.00    +0.000 C 
BRANCH  12  16
ATOM     13  C   UNL     1       1.399   9.288  19.144  0.00  0.00    +0.000 A 
ATOM     14  C   UNL     1       1.949   9.110  17.887  0.00  0.00    +0.000 A 
ATOM     15  C   UNL     1       2.548   7.826  17.876  0.00  0.00    +0.000 A 
ATOM     16  C   UNL     1       2.330   7.282  19.124  0.00  0.00    +0.000 A 
ATOM     17  O   UNL     1       1.665   8.183  19.908  0.00  0.00    +0.000 OA
BRANCH  13  18
ATOM     18  C   UNL     1       0.636  10.385  19.693  0.00  0.00    +0.000 C 
ATOM     19  O   UNL     1       0.839  11.571  19.464  0.00  0.00    +0.000 OA
BRANCH  18  21
ATOM     20  C   UNL     1      -0.330  10.396  21.838  0.00  0.00    +0.000 C 
ATOM     21  O   UNL     1      -0.363   9.912  20.496  0.00  0.00    +0.000 OA
ENDBRANCH  18  21
ENDBRANCH  13  18
ENDBRANCH  12  16
ENDBRANCH   1  12
TORSDOF 5
ENDMDL
MODEL 9
REMARK VINA RESULT:      -6.6      1.979      3.566
REMARK  Name = 
REMARK  6 active torsions:
REMARK  status: ('A' for Active; 'I' for Inactive)
REMARK    1  A    between atoms: C_1  and  O_2
REMARK    2  A    between atoms: O_2  and  C_3
REMARK    3  A    between atoms: C_3  and  C_5
REMARK    4  A    between atoms: C_8  and  C_9
REMARK    5  A    between atoms: C_9  and  S_10
REMARK    6  A    between atoms: S_10  and  C_11
REMARK                            x       y       z     vdW  Elec       q    Type
REMARK                         _______ _______ _______ _____ _____    ______ ____
ROOT
ATOM      1  S   UNL     1       5.011   5.616  16.440  0.00  0.00    +0.000 S 
ENDROOT
BRANCH   1   2
ATOM      2  C   UNL     1       4.074   4.484  17.473  0.00  0.00    +0.000 A 
ATOM      3  N   UNL     1       4.177   3.173  17.179  0.00  0.00    +0.000 NA
ATOM      4  C   UNL     1       3.446   2.350  17.939  0.00  0.00    +0.000 A 
ATOM      5  N   UNL     1       2.628   2.708  18.935  0.00  0.00    +0.000 NA
ATOM      6  C   UNL     1       2.541   4.014  19.213  0.00  0.00    +0.000 A 
ATOM      7  C   UNL     1       1.690   4.421  20.235  0.00  0.00    +0.000 A 
ATOM      8  C   UNL     1       1.545   5.765  20.590  0.00  0.00    +0.000 A 
ATOM      9  C   UNL     1       2.270   6.735  19.916  0.00  0.00    +0.000 A 
ATOM     10  C   UNL     1       3.125   6.353  18.886  0.00  0.00    +0.000 A 
ATOM     11  C   UNL     1       3.265   4.986  18.512  0.00  0.00    +0.000 A 
ENDBRANCH   1   2
BRANCH   1  12
ATOM     12  C   UNL     1       6.484   4.625  16.016  0.00  0.00    +0.000 C 
BRANCH  12  16
ATOM     13  C   UNL     1       5.946   3.636  12.592  0.00  0.00    +0.000 A 
ATOM     14  C   UNL     1       7.050   4.430  12.344  0.00  0.00    +0.000 A 
ATOM     15  C   UNL     1       7.455   4.977  13.587  0.00  0.00    +0.000 A 
ATOM     16  C   UNL     1       6.581   4.485  14.533  0.00  0.00    +0.000 A 
ATOM     17  O   UNL     1       5.641   3.700  13.926  0.00  0.00    +0.000 OA
BRANCH  13  18
ATOM     18  C   UNL     1       5.158   2.811  11.706  0.00  0.00    +0.000 C 
ATOM     19  O   UNL     1       4.180   3.188  11.073  0.00  0.00    +0.000 OA
BRANCH  18  21
ATOM     20  C   UNL     1       6.845   1.407  10.858  0.00  0.00    +0.000 C 
ATOM     21  O   UNL     1       5.671   1.545  11.656  0.00  0.00    +0.000 OA
ENDBRANCH  18  21
ENDBRANCH  13  18
ENDBRANCH  12  16
ENDBRANCH   1  12
TORSDOF 5
ENDMDL
