MODEL 1
REMARK VINA RESULT:      -6.4      0.000      0.000
REMARK  Name = 
REMARK  6 active torsions:
REMARK  status: ('A' for Active; 'I' for Inactive)
REMARK    1  A    between atoms: C_1  and  C_2
REMARK    2  A    between atoms: C_5  and  C_6
REMARK    3  A    between atoms: C_11  and  C_12
REMARK    4  A    between atoms: N_16  and  C_17
REMARK    5  A    between atoms: C_17  and  C_18
REMARK    6  A    between atoms: C_17  and  C_19
REMARK                            x       y       z     vdW  Elec       q    Type
REMARK                         _______ _______ _______ _____ _____    ______ ____
ROOT
ATOM      1  C   UNL     1      -0.072  10.930  18.651  0.00  0.00    +0.000 C 
ATOM      2  O   UNL     1      -1.134  10.778  18.043  0.00  0.00    +0.000 OA
ATOM      3  N   UNL     1       0.319  12.201  19.129  0.00  0.00    +0.000 N 
ATOM      4  C   UNL     1       1.624  12.477  19.723  0.00  0.00    +0.000 C 
ATOM      5  C   UNL     1       1.689  13.729  20.583  0.00  0.00    +0.000 C 
ATOM      6  C   UNL     1       1.123  14.956  19.870  0.00  0.00    +0.000 C 
ATOM      7  C   UNL     1      -0.283  14.633  19.351  0.00  0.00    +0.000 C 
ATOM      8  C   UNL     1      -0.355  13.352  18.518  0.00  0.00    +0.000 C 
ENDROOT
BRANCH   1  13
ATOM      9  C   UNL     1       3.288   6.212  19.428  0.00  0.00    +0.000 C 
ATOM     10  C   UNL     1       2.419   7.407  19.193  0.00  0.00    +0.000 A 
ATOM     11  C   UNL     1       2.341   8.024  18.010  0.00  0.00    +0.000 A 
ATOM     12  C   UNL     1       1.431   9.122  17.835  0.00  0.00    +0.000 A 
ATOM     13  C   UNL     1       0.818   9.742  18.868  0.00  0.00    +0.000 A 
ATOM     14  C   UNL     1       0.913   9.043  20.200  0.00  0.00    +0.000 A 
ATOM     15  O   UNL     1       0.356   9.452  21.216  0.00  0.00    +0.000 OA
ATOM     16  N   UNL     1       1.683   7.899  20.245  0.00  0.00    +0.000 N 
ATOM     17  H   UNL     1       1.709   7.440  21.146  0.00  0.00    +0.000 HD
ENDBRANCH   1  13
BRANCH   6  18
ATOM     18  C   UNL     1       2.046  15.442  18.777  0.00  0.00    +0.000 A 
ATOM     19  N   UNL     1       3.125  14.794  18.370  0.00  0.00    +0.000 NA
ATOM     20  C   UNL     1       3.739  15.591  17.450  0.00  0.00    +0.000 A 
ATOM     21  C   UNL     1       3.028  16.752  17.277  0.00  0.00    +0.000 A 
ATOM     22  N   UNL     1       1.932  16.640  18.094  0.00  0.00    +0.000 N 
BRANCH  22  23
ATOM     23  C   UNL     1       0.879  17.645  18.227  0.00  0.00    +0.000 C 
ATOM     24  C   UNL     1       1.171  18.587  19.397  0.00  0.00    +0.000 C 
ATOM     25  C   UNL     1       0.637  18.439  16.937  0.00  0.00    +0.000 C 
ENDBRANCH  22  23
ENDBRANCH   6  18
TORSDOF 3
ENDMDL
MODEL 2
REMARK VINA RESULT:      -6.4      4.888      7.011
REMARK  Name = 
REMARK  6 active torsions:
REMARK  status: ('A' for Active; 'I' for Inactive)
REMARK    1  A    between atoms: C_1  and  C_2
REMARK    2  A    between atoms: C_5  and  C_6
REMARK    3  A    between atoms: C_11  and  C_12
REMARK    4  A    between atoms: N_16  and  C_17
REMARK    5  A    between atoms: C_17  and  C_18
REMARK    6  A    between atoms: C_17  and  C_19
REMARK                            x       y       z     vdW  Elec       q    Type
REMARK                         _______ _______ _______ _____ _____    ______ ____
ROOT
ATOM      1  C   UNL     1      -1.052  11.331  20.305  0.00  0.00    +0.000 C 
ATOM      2  O   UNL     1      -0.145  10.585  20.679  0.00  0.00    +0.000 OA
ATOM      3  N   UNL     1      -1.566  12.338  21.154  0.00  0.00    +0.000 N 
ATOM      4  C   UNL     1      -2.732  13.154  20.831  0.00  0.00    +0.000 C 
ATOM      5  C   UNL     1      -2.844  14.454  21.610  0.00  0.00    +0.000 C 
ATOM      6  C   UNL     1      -2.701  14.246  23.117  0.00  0.00    +0.000 C 
ATOM      7  C   UNL     1      -1.412  13.465  23.398  0.00  0.00    +0.000 C 
ATOM      8  C   UNL     1      -1.281  12.175  22.585  0.00  0.00    +0.000 C 
ENDROOT
BRANCH   1  13
ATOM      9  C   UNL     1      -3.169  10.517  14.918  0.00  0.00    +0.000 C 
ATOM     10  C   UNL     1      -2.623  10.686  16.301  0.00  0.00    +0.000 A 
ATOM     11  C   UNL     1      -2.881   9.828  17.292  0.00  0.00    +0.000 A 
ATOM     12  C   UNL     1      -2.264  10.012  18.577  0.00  0.00    +0.000 A 
ATOM     13  C   UNL     1      -1.624  11.150  18.930  0.00  0.00    +0.000 A 
ATOM     14  C   UNL     1      -1.339  12.115  17.808  0.00  0.00    +0.000 A 
ATOM     15  O   UNL     1      -0.712  13.160  17.963  0.00  0.00    +0.000 OA
ATOM     16  N   UNL     1      -1.834  11.782  16.564  0.00  0.00    +0.000 N 
ATOM     17  H   UNL     1      -1.607  12.437  15.828  0.00  0.00    +0.000 HD
ENDBRANCH   1  13
BRANCH   6  18
ATOM     18  C   UNL     1      -3.922  13.579  23.707  0.00  0.00    +0.000 A 
ATOM     19  N   UNL     1      -3.938  12.350  24.193  0.00  0.00    +0.000 NA
ATOM     20  C   UNL     1      -5.230  12.079  24.536  0.00  0.00    +0.000 A 
ATOM     21  C   UNL     1      -6.030  13.160  24.264  0.00  0.00    +0.000 A 
ATOM     22  N   UNL     1      -5.191  14.127  23.771  0.00  0.00    +0.000 N 
BRANCH  22  23
ATOM     23  C   UNL     1      -5.606  15.466  23.356  0.00  0.00    +0.000 C 
ATOM     24  C   UNL     1      -7.072  15.470  22.919  0.00  0.00    +0.000 C 
ATOM     25  C   UNL     1      -5.356  16.534  24.429  0.00  0.00    +0.000 C 
ENDBRANCH  22  23
ENDBRANCH   6  18
TORSDOF 3
ENDMDL
MODEL 3
REMARK VINA RESULT:      -6.1      3.830      5.569
REMARK  Name = 
REMARK  6 active torsions:
REMARK  status: ('A' for Active; 'I' for Inactive)
REMARK    1  A    between atoms: C_1  and  C_2
REMARK    2  A    between atoms: C_5  and  C_6
REMARK    3  A    between atoms: C_11  and  C_12
REMARK    4  A    between atoms: N_16  and  C_17
REMARK    5  A    between atoms: C_17  and  C_18
REMARK    6  A    between atoms: C_17  and  C_19
REMARK                            x       y       z     vdW  Elec       q    Type
REMARK                         _______ _______ _______ _____ _____    ______ ____
ROOT
ATOM      1  C   UNL     1       2.294   6.787  19.885  0.00  0.00    +0.000 C 
ATOM      2  O   UNL     1       2.077   6.208  20.951  0.00  0.00    +0.000 OA
ATOM      3  N   UNL     1       1.838   8.106  19.664  0.00  0.00    +0.000 N 
ATOM      4  C   UNL     1       1.932   8.792  18.379  0.00  0.00    +0.000 C 
ATOM      5  C   UNL     1       1.836  10.308  18.449  0.00  0.00    +0.000 C 
ATOM      6  C   UNL     1       0.626  10.780  19.254  0.00  0.00    +0.000 C 
ATOM      7  C   UNL     1       0.635  10.095  20.625  0.00  0.00    +0.000 C 
ATOM      8  C   UNL     1       0.770   8.572  20.556  0.00  0.00    +0.000 C 
ENDROOT
BRANCH   1  13
ATOM      9  C   UNL     1       5.162   4.081  15.570  0.00  0.00    +0.000 C 
ATOM     10  C   UNL     1       4.441   4.808  16.661  0.00  0.00    +0.000 A 
ATOM     11  C   UNL     1       4.937   5.897  17.257  0.00  0.00    +0.000 A 
ATOM     12  C   UNL     1       4.159   6.588  18.247  0.00  0.00    +0.000 A 
ATOM     13  C   UNL     1       3.043   6.064  18.803  0.00  0.00    +0.000 A 
ATOM     14  C   UNL     1       2.490   4.836  18.128  0.00  0.00    +0.000 A 
ATOM     15  O   UNL     1       1.449   4.284  18.481  0.00  0.00    +0.000 OA
ATOM     16  N   UNL     1       3.222   4.325  17.077  0.00  0.00    +0.000 N 
ATOM     17  H   UNL     1       2.814   3.514  16.629  0.00  0.00    +0.000 HD
ENDBRANCH   1  13
BRANCH   6  18
ATOM     18  C   UNL     1      -0.666  10.554  18.503  0.00  0.00    +0.000 A 
ATOM     19  N   UNL     1      -0.795   9.738  17.471  0.00  0.00    +0.000 NA
ATOM     20  C   UNL     1      -2.071   9.882  17.013  0.00  0.00    +0.000 A 
ATOM     21  C   UNL     1      -2.749  10.799  17.775  0.00  0.00    +0.000 A 
ATOM     22  N   UNL     1      -1.866  11.198  18.746  0.00  0.00    +0.000 N 
BRANCH  22  23
ATOM     23  C   UNL     1      -2.161  12.166  19.801  0.00  0.00    +0.000 C 
ATOM     24  C   UNL     1      -1.338  13.442  19.615  0.00  0.00    +0.000 C 
ATOM     25  C   UNL     1      -3.655  12.495  19.917  0.00  0.00    +0.000 C 
ENDBRANCH  22  23
ENDBRANCH   6  18
TORSDOF 3
ENDMDL
MODEL 4
REMARK VINA RESULT:      -6.0      8.735     11.327
REMARK  Name = 
REMARK  6 active torsions:
REMARK  status: ('A' for Active; 'I' for Inactive)
REMARK    1  A    between atoms: C_1  and  C_2
REMARK    2  A    between atoms: C_5  and  C_6
REMARK    3  A    between atoms: C_11  and  C_12
REMARK    4  A    between atoms: N_16  and  C_17
REMARK    5  A    between atoms: C_17  and  C_18
REMARK    6  A    between atoms: C_17  and  C_19
REMARK                            x       y       z     vdW  Elec       q    Type
REMARK                         _______ _______ _______ _____ _____    ______ ____
ROOT
ATOM      1  C   UNL     1       6.587   5.604  15.843  0.00  0.00    +0.000 C 
ATOM      2  O   UNL     1       7.566   6.315  16.080  0.00  0.00    +0.000 OA
ATOM      3  N   UNL     1       5.539   5.468  16.781  0.00  0.00    +0.000 N 
ATOM      4  C   UNL     1       4.429   4.532  16.627  0.00  0.00    +0.000 C 
ATOM      5  C   UNL     1       3.196   4.851  17.457  0.00  0.00    +0.000 C 
ATOM      6  C   UNL     1       3.530   5.094  18.928  0.00  0.00    +0.000 C 
ATOM      7  C   UNL     1       4.635   6.151  19.027  0.00  0.00    +0.000 C 
ATOM      8  C   UNL     1       5.860   5.849  18.161  0.00  0.00    +0.000 C 
ENDROOT
BRANCH   1  13
ATOM      9  C   UNL     1       6.406   2.586  10.841  0.00  0.00    +0.000 C 
ATOM     10  C   UNL     1       6.438   3.327  12.141  0.00  0.00    +0.000 A 
ATOM     11  C   UNL     1       5.504   3.175  13.085  0.00  0.00    +0.000 A 
ATOM     12  C   UNL     1       5.636   3.864  14.339  0.00  0.00    +0.000 A 
ATOM     13  C   UNL     1       6.526   4.862  14.540  0.00  0.00    +0.000 A 
ATOM     14  C   UNL     1       7.574   5.029  13.471  0.00  0.00    +0.000 A 
ATOM     15  O   UNL     1       8.485   5.852  13.545  0.00  0.00    +0.000 OA
ATOM     16  N   UNL     1       7.466   4.213  12.364  0.00  0.00    +0.000 N 
ATOM     17  H   UNL     1       8.196   4.333  11.675  0.00  0.00    +0.000 HD
ENDBRANCH   1  13
BRANCH   6  18
ATOM     18  C   UNL     1       3.895   3.809  19.636  0.00  0.00    +0.000 A 
ATOM     19  N   UNL     1       5.091   3.248  19.593  0.00  0.00    +0.000 NA
ATOM     20  C   UNL     1       4.995   2.066  20.267  0.00  0.00    +0.000 A 
ATOM     21  C   UNL     1       3.720   1.892  20.742  0.00  0.00    +0.000 A 
ATOM     22  N   UNL     1       3.031   3.018  20.372  0.00  0.00    +0.000 N 
BRANCH  22  23
ATOM     23  C   UNL     1       1.625   3.279  20.679  0.00  0.00    +0.000 C 
ATOM     24  C   UNL     1       0.727   2.858  19.514  0.00  0.00    +0.000 C 
ATOM     25  C   UNL     1       1.162   2.625  21.986  0.00  0.00    +0.000 C 
ENDBRANCH  22  23
ENDBRANCH   6  18
TORSDOF 3
ENDMDL
MODEL 5
REMARK VINA RESULT:      -5.9      4.206      9.422
REMARK  Name = 
REMARK  6 active torsions:
REMARK  status: ('A' for Active; 'I' for Inactive)
REMARK    1  A    between atoms: C_1  and  C_2
REMARK    2  A    between atoms: C_5  and  C_6
REMARK    3  A    between atoms: C_11  and  C_12
REMARK    4  A    between atoms: N_16  and  C_17
REMARK    5  A    between atoms: C_17  and  C_18
REMARK    6  A    between atoms: C_17  and  C_19
REMARK                            x       y       z     vdW  Elec       q    Type
REMARK                         _______ _______ _______ _____ _____    ______ ____
ROOT
ATOM      1  C   UNL     1       1.819   8.895  18.174  0.00  0.00    +0.000 C 
ATOM      2  O   UNL     1       2.491   9.247  17.203  0.00  0.00    +0.000 OA
ATOM      3  N   UNL     1       2.172   7.756  18.932  0.00  0.00    +0.000 N 
ATOM      4  C   UNL     1       1.342   7.202  19.998  0.00  0.00    +0.000 C 
ATOM      5  C   UNL     1       2.074   6.305  20.983  0.00  0.00    +0.000 C 
ATOM      6  C   UNL     1       2.896   5.222  20.287  0.00  0.00    +0.000 C 
ATOM      7  C   UNL     1       3.813   5.875  19.247  0.00  0.00    +0.000 C 
ATOM      8  C   UNL     1       3.082   6.809  18.279  0.00  0.00    +0.000 C 
ENDROOT
BRANCH   1  13
ATOM      9  C   UNL     1      -2.906  12.078  19.478  0.00  0.00    +0.000 C 
ATOM     10  C   UNL     1      -1.706  11.266  19.105  0.00  0.00    +0.000 A 
ATOM     11  C   UNL     1      -1.712  10.381  18.103  0.00  0.00    +0.000 A 
ATOM     12  C   UNL     1      -0.503   9.688  17.754  0.00  0.00    +0.000 A 
ATOM     13  C   UNL     1       0.598   9.687  18.540  0.00  0.00    +0.000 A 
ATOM     14  C   UNL     1       0.597  10.685  19.669  0.00  0.00    +0.000 A 
ATOM     15  O   UNL     1       1.551  10.844  20.427  0.00  0.00    +0.000 OA
ATOM     16  N   UNL     1      -0.553  11.428  19.838  0.00  0.00    +0.000 N 
ATOM     17  H   UNL     1      -0.515  12.104  20.589  0.00  0.00    +0.000 HD
ENDBRANCH   1  13
BRANCH   6  18
ATOM     18  C   UNL     1       2.015   4.149  19.690  0.00  0.00    +0.000 A 
ATOM     19  N   UNL     1       0.715   4.048  19.905  0.00  0.00    +0.000 NA
ATOM     20  C   UNL     1       0.300   2.910  19.280  0.00  0.00    +0.000 A 
ATOM     21  C   UNL     1       1.358   2.295  18.660  0.00  0.00    +0.000 A 
ATOM     22  N   UNL     1       2.441   3.104  18.890  0.00  0.00    +0.000 N 
BRANCH  22  23
ATOM     23  C   UNL     1       3.796   2.851  18.401  0.00  0.00    +0.000 C 
ATOM     24  C   UNL     1       4.142   1.364  18.501  0.00  0.00    +0.000 C 
ATOM     25  C   UNL     1       4.029   3.369  16.976  0.00  0.00    +0.000 C 
ENDBRANCH  22  23
ENDBRANCH   6  18
TORSDOF 3
ENDMDL
MODEL 6
REMARK VINA RESULT:      -5.7      3.016      8.760
REMARK  Name = 
REMARK  6 active torsions:
REMARK  status: ('A' for Active; 'I' for Inactive)
REMARK    1  A    between atoms: C_1  and  C_2
REMARK    2  A    between atoms: C_5  and  C_6
REMARK    3  A    between atoms: C_11  and  C_12
REMARK    4  A    between atoms: N_16  and  C_17
REMARK    5  A    between atoms: C_17  and  C_18
REMARK    6  A    between atoms: C_17  and  C_19
REMARK                            x       y       z     vdW  Elec       q    Type
REMARK                         _______ _______ _______ _____ _____    ______ ____
ROOT
ATOM      1  C   UNL     1       1.339   7.898  20.734  0.00  0.00    +0.000 C 
ATOM      2  O   UNL     1       1.026   7.690  21.908  0.00  0.00    +0.000 OA
ATOM      3  N   UNL     1       1.874   6.867  19.928  0.00  0.00    +0.000 N 
ATOM      4  C   UNL     1       2.401   7.081  18.583  0.00  0.00    +0.000 C 
ATOM      5  C   UNL     1       2.486   5.833  17.719  0.00  0.00    +0.000 C 
ATOM      6  C   UNL     1       3.197   4.680  18.427  0.00  0.00    +0.000 C 
ATOM      7  C   UNL     1       2.540   4.445  19.791  0.00  0.00    +0.000 C 
ATOM      8  C   UNL     1       2.419   5.709  20.646  0.00  0.00    +0.000 C 
ENDROOT
BRANCH   1  13
ATOM      9  C   UNL     1       0.796  13.269  18.494  0.00  0.00    +0.000 C 
ATOM     10  C   UNL     1       0.960  11.884  19.038  0.00  0.00    +0.000 A 
ATOM     11  C   UNL     1       1.088  10.808  18.255  0.00  0.00    +0.000 A 
ATOM     12  C   UNL     1       1.314   9.518  18.845  0.00  0.00    +0.000 A 
ATOM     13  C   UNL     1       1.160   9.275  20.166  0.00  0.00    +0.000 A 
ATOM     14  C   UNL     1       1.014  10.492  21.042  0.00  0.00    +0.000 A 
ATOM     15  O   UNL     1       0.928  10.433  22.267  0.00  0.00    +0.000 OA
ATOM     16  N   UNL     1       0.964  11.713  20.403  0.00  0.00    +0.000 N 
ATOM     17  H   UNL     1       0.889  12.512  21.019  0.00  0.00    +0.000 HD
ENDBRANCH   1  13
BRANCH   6  18
ATOM     18  C   UNL     1       4.685   4.925  18.535  0.00  0.00    +0.000 A 
ATOM     19  N   UNL     1       5.319   5.166  19.669  0.00  0.00    +0.000 NA
ATOM     20  C   UNL     1       6.618   5.428  19.346  0.00  0.00    +0.000 A 
ATOM     21  C   UNL     1       6.795   5.344  17.988  0.00  0.00    +0.000 A 
ATOM     22  N   UNL     1       5.574   4.987  17.477  0.00  0.00    +0.000 N 
BRANCH  22  23
ATOM     23  C   UNL     1       5.289   4.766  16.060  0.00  0.00    +0.000 C 
ATOM     24  C   UNL     1       5.330   6.084  15.285  0.00  0.00    +0.000 C 
ATOM     25  C   UNL     1       6.215   3.728  15.414  0.00  0.00    +0.000 C 
ENDBRANCH  22  23
ENDBRANCH   6  18
TORSDOF 3
ENDMDL
MODEL 7
REMARK VINA RESULT:      -5.7      3.908      9.094
REMARK  Name = 
REMARK  6 active torsions:
REMARK  status: ('A' for Active; 'I' for Inactive)
REMARK    1  A    between atoms: C_1  and  C_2
REMARK    2  A    between atoms: C_5  and  C_6
REMARK    3  A    between atoms: C_11  and  C_12
REMARK    4  A    between atoms: N_16  and  C_17
REMARK    5  A    between atoms: C_17  and  C_18
REMARK    6  A    between atoms: C_17  and  C_19
REMARK                            x       y       z     vdW  Elec       q    Type
REMARK                         _______ _______ _______ _____ _____    ______ ____
ROOT
ATOM      1  C   UNL     1       1.717   9.758  18.081  0.00  0.00    +0.000 C 
ATOM      2  O   UNL     1       2.291  10.275  17.120  0.00  0.00    +0.000 OA
ATOM      3  N   UNL     1       2.216   8.581  18.682  0.00  0.00    +0.000 N 
ATOM      4  C   UNL     1       1.508   7.839  19.722  0.00  0.00    +0.000 C 
ATOM      5  C   UNL     1       2.377   6.910  20.555  0.00  0.00    +0.000 C 
ATOM      6  C   UNL     1       3.241   5.991  19.694  0.00  0.00    +0.000 C 
ATOM      7  C   UNL     1       4.027   6.836  18.686  0.00  0.00    +0.000 C 
ATOM      8  C   UNL     1       3.158   7.798  17.874  0.00  0.00    +0.000 C 
ENDROOT
BRANCH   1  13
ATOM      9  C   UNL     1      -3.185  12.309  19.986  0.00  0.00    +0.000 C 
ATOM     10  C   UNL     1      -1.946  11.654  19.462  0.00  0.00    +0.000 A 
ATOM     11  C   UNL     1      -1.970  10.699  18.527  0.00  0.00    +0.000 A 
ATOM     12  C   UNL     1      -0.738  10.164  18.017  0.00  0.00    +0.000 A 
ATOM     13  C   UNL     1       0.460  10.390  18.603  0.00  0.00    +0.000 A 
ATOM     14  C   UNL     1       0.480  11.466  19.657  0.00  0.00    +0.000 A 
ATOM     15  O   UNL     1       1.506  11.825  20.233  0.00  0.00    +0.000 OA
ATOM     16  N   UNL     1      -0.731  12.043  19.977  0.00  0.00    +0.000 N 
ATOM     17  H   UNL     1      -0.682  12.777  20.671  0.00  0.00    +0.000 HD
ENDBRANCH   1  13
BRANCH   6  18
ATOM     18  C   UNL     1       2.417   4.913  19.028  0.00  0.00    +0.000 A 
ATOM     19  N   UNL     1       1.849   5.037  17.840  0.00  0.00    +0.000 NA
ATOM     20  C   UNL     1       1.120   3.904  17.633  0.00  0.00    +0.000 A 
ATOM     21  C   UNL     1       1.239   3.059  18.707  0.00  0.00    +0.000 A 
ATOM     22  N   UNL     1       2.094   3.685  19.577  0.00  0.00    +0.000 N 
BRANCH  22  23
ATOM     23  C   UNL     1       2.527   3.143  20.864  0.00  0.00    +0.000 C 
ATOM     24  C   UNL     1       1.357   2.488  21.600  0.00  0.00    +0.000 C 
ATOM     25  C   UNL     1       3.706   2.169  20.742  0.00  0.00    +0.000 C 
ENDBRANCH  22  23
ENDBRANCH   6  18
TORSDOF 3
ENDMDL
MODEL 8
REMARK VINA RESULT:      -5.7      3.549      5.107
REMARK  Name = 
REMARK  6 active torsions:
REMARK  status: ('A' for Active; 'I' for Inactive)
REMARK    1  A    between atoms: C_1  and  C_2
REMARK    2  A    between atoms: C_5  and  C_6
REMARK    3  A    between atoms: C_11  and  C_12
REMARK    4  A    between atoms: N_16  and  C_17
REMARK    5  A    between atoms: C_17  and  C_18
REMARK    6  A    between atoms: C_17  and  C_19
REMARK                            x       y       z     vdW  Elec       q    Type
REMARK                         _______ _______ _______ _____ _____    ______ ____
ROOT
ATOM      1  C   UNL     1       1.580  10.274  18.513  0.00  0.00    +0.000 C 
ATOM      2  O   UNL     1       2.518  11.020  18.223  0.00  0.00    +0.000 OA
ATOM      3  N   UNL     1       0.246  10.737  18.491  0.00  0.00    +0.000 N 
ATOM      4  C   UNL     1      -0.892   9.953  18.963  0.00  0.00    +0.000 C 
ATOM      5  C   UNL     1      -2.247  10.404  18.440  0.00  0.00    +0.000 C 
ATOM      6  C   UNL     1      -2.476  11.903  18.629  0.00  0.00    +0.000 C 
ATOM      7  C   UNL     1      -1.293  12.673  18.032  0.00  0.00    +0.000 C 
ATOM      8  C   UNL     1       0.072  12.193  18.530  0.00  0.00    +0.000 C 
ENDROOT
BRANCH   1  13
ATOM      9  C   UNL     1       2.584   4.709  19.992  0.00  0.00    +0.000 C 
ATOM     10  C   UNL     1       2.313   6.121  19.578  0.00  0.00    +0.000 A 
ATOM     11  C   UNL     1       2.481   6.554  18.325  0.00  0.00    +0.000 A 
ATOM     12  C   UNL     1       2.133   7.905  17.982  0.00  0.00    +0.000 A 
ATOM     13  C   UNL     1       1.874   8.856  18.908  0.00  0.00    +0.000 A 
ATOM     14  C   UNL     1       1.688   8.361  20.319  0.00  0.00    +0.000 A 
ATOM     15  O   UNL     1       1.387   9.098  21.257  0.00  0.00    +0.000 OA
ATOM     16  N   UNL     1       1.887   7.014  20.534  0.00  0.00    +0.000 N 
ATOM     17  H   UNL     1       1.733   6.708  21.486  0.00  0.00    +0.000 HD
ENDBRANCH   1  13
BRANCH   6  18
ATOM     18  C   UNL     1      -2.720  12.251  20.079  0.00  0.00    +0.000 A 
ATOM     19  N   UNL     1      -1.823  12.112  21.040  0.00  0.00    +0.000 NA
ATOM     20  C   UNL     1      -2.446  12.434  22.210  0.00  0.00    +0.000 A 
ATOM     21  C   UNL     1      -3.751  12.784  21.972  0.00  0.00    +0.000 A 
ATOM     22  N   UNL     1      -3.914  12.703  20.613  0.00  0.00    +0.000 N 
BRANCH  22  23
ATOM     23  C   UNL     1      -5.154  13.002  19.897  0.00  0.00    +0.000 C 
ATOM     24  C   UNL     1      -6.085  11.789  19.890  0.00  0.00    +0.000 C 
ATOM     25  C   UNL     1      -5.879  14.240  20.440  0.00  0.00    +0.000 C 
ENDBRANCH  22  23
ENDBRANCH   6  18
TORSDOF 3
ENDMDL
MODEL 9
REMARK VINA RESULT:      -5.7      4.972      7.007
REMARK  Name = 
REMARK  6 active torsions:
REMARK  status: ('A' for Active; 'I' for Inactive)
REMARK    1  A    between atoms: C_1  and  C_2
REMARK    2  A    between atoms: C_5  and  C_6
REMARK    3  A    between atoms: C_11  and  C_12
REMARK    4  A    between atoms: N_16  and  C_17
REMARK    5  A    between atoms: C_17  and  C_18
REMARK    6  A    between atoms: C_17  and  C_19
REMARK                            x       y       z     vdW  Elec       q    Type
REMARK                         _______ _______ _______ _____ _____    ______ ____
ROOT
ATOM      1  C   UNL     1      -1.448  11.727  22.270  0.00  0.00    +0.000 C 
ATOM      2  O   UNL     1      -1.153  11.377  23.415  0.00  0.00    +0.000 OA
ATOM      3  N   UNL     1      -2.606  12.497  22.019  0.00  0.00    +0.000 N 
ATOM      4  C   UNL     1      -3.092  12.817  20.680  0.00  0.00    +0.000 C 
ATOM      5  C   UNL     1      -4.036  14.006  20.605  0.00  0.00    +0.000 C 
ATOM      6  C   UNL     1      -5.181  13.907  21.612  0.00  0.00    +0.000 C 
ATOM      7  C   UNL     1      -4.603  13.662  23.010  0.00  0.00    +0.000 C 
ATOM      8  C   UNL     1      -3.623  12.490  23.077  0.00  0.00    +0.000 C 
ENDROOT
BRANCH   1  13
ATOM      9  C   UNL     1       2.083  10.028  17.935  0.00  0.00    +0.000 C 
ATOM     10  C   UNL     1       1.182  10.426  19.060  0.00  0.00    +0.000 A 
ATOM     11  C   UNL     1       0.276   9.599  19.591  0.00  0.00    +0.000 A 
ATOM     12  C   UNL     1      -0.507  10.024  20.719  0.00  0.00    +0.000 A 
ATOM     13  C   UNL     1      -0.565  11.310  21.131  0.00  0.00    +0.000 A 
ATOM     14  C   UNL     1       0.456  12.238  20.526  0.00  0.00    +0.000 A 
ATOM     15  O   UNL     1       0.566  13.420  20.849  0.00  0.00    +0.000 OA
ATOM     16  N   UNL     1       1.280  11.705  19.557  0.00  0.00    +0.000 N 
ATOM     17  H   UNL     1       1.970  12.346  19.187  0.00  0.00    +0.000 HD
ENDBRANCH   1  13
BRANCH   6  18
ATOM     18  C   UNL     1      -6.188  12.854  21.209  0.00  0.00    +0.000 A 
ATOM     19  N   UNL     1      -6.609  11.884  22.002  0.00  0.00    +0.000 NA
ATOM     20  C   UNL     1      -7.427  11.091  21.254  0.00  0.00    +0.000 A 
ATOM     21  C   UNL     1      -7.520  11.577  19.974  0.00  0.00    +0.000 A 
ATOM     22  N   UNL     1      -6.762  12.720  19.957  0.00  0.00    +0.000 N 
BRANCH  22  23
ATOM     23  C   UNL     1      -6.578  13.587  18.795  0.00  0.00    +0.000 C 
ATOM     24  C   UNL     1      -6.185  12.771  17.563  0.00  0.00    +0.000 C 
ATOM     25  C   UNL     1      -7.801  14.464  18.499  0.00  0.00    +0.000 C 
ENDBRANCH  22  23
ENDBRANCH   6  18
TORSDOF 3
ENDMDL
