MODEL 1
REMARK VINA RESULT:      -6.3      0.000      0.000
REMARK  Name = 
REMARK  7 active torsions:
REMARK  status: ('A' for Active; 'I' for Inactive)
REMARK    1  A    between atoms: C_1  and  C_2
REMARK    2  A    between atoms: C_2  and  C_3
REMARK    3  A    between atoms: C_2  and  C_4
REMARK    4  A    between atoms: C_2  and  C_5
REMARK    5  A    between atoms: C_11  and  O_12
REMARK    6  A    between atoms: O_12  and  C_13
REMARK    7  A    between atoms: C_21  and  C_22
REMARK                            x       y       z     vdW  Elec       q    Type
REMARK                         _______ _______ _______ _____ _____    ______ ____
ROOT
ATOM      1  C   UNL     1      -1.943  11.880  20.022  0.00  0.00    +0.000 A 
ATOM      2  S   UNL     1      -2.327  11.216  18.473  0.00  0.00    +0.000 S 
ATOM      3  C   UNL     1      -3.890  11.792  18.449  0.00  0.00    +0.000 A 
ATOM      4  N   UNL     1      -4.629  11.507  17.359  0.00  0.00    +0.000 NA
ATOM      5  C   UNL     1      -5.831  12.043  17.381  0.00  0.00    +0.000 A 
ATOM      6  N   UNL     1      -6.325  12.810  18.345  0.00  0.00    +0.000 NA
ATOM      7  C   UNL     1      -5.571  13.030  19.450  0.00  0.00    +0.000 A 
ATOM      8  C   UNL     1      -4.240  12.530  19.568  0.00  0.00    +0.000 A 
ATOM      9  C   UNL     1      -3.070  12.569  20.576  0.00  0.00    +0.000 A 
ENDROOT
BRANCH   9  10
ATOM     10  C   UNL     1      -3.085  13.182  21.982  0.00  0.00    +0.000 A 
ATOM     11  C   UNL     1      -2.721  14.501  22.230  0.00  0.00    +0.000 A 
ATOM     12  C   UNL     1      -2.775  15.148  23.476  0.00  0.00    +0.000 A 
ATOM     13  C   UNL     1      -3.212  14.460  24.575  0.00  0.00    +0.000 A 
ATOM     14  F   UNL     1      -3.293  15.054  25.769  0.00  0.00    +0.000 F 
ATOM     15  C   UNL     1      -3.563  13.139  24.430  0.00  0.00    +0.000 A 
ATOM     16  C   UNL     1      -3.485  12.528  23.160  0.00  0.00    +0.000 A 
ENDBRANCH   9  10
BRANCH   1  18
ATOM     17  C   UNL     1       0.388  10.741  19.493  0.00  0.00    +0.000 C 
ATOM     18  C   UNL     1      -0.477  11.569  20.504  0.00  0.00    +0.000 C 
ATOM     19  C   UNL     1      -0.509  10.644  21.751  0.00  0.00    +0.000 C 
ATOM     20  C   UNL     1       0.344  12.878  20.651  0.00  0.00    +0.000 C 
ENDBRANCH   1  18
BRANCH   7  21
ATOM     21  O   UNL     1      -6.091  13.986  20.286  0.00  0.00    +0.000 OA
BRANCH  21  22
ATOM     22  C   UNL     1      -6.567  13.657  21.535  0.00  0.00    +0.000 A 
ATOM     23  C   UNL     1      -6.447  14.707  22.458  0.00  0.00    +0.000 A 
ATOM     24  C   UNL     1      -6.903  14.566  23.768  0.00  0.00    +0.000 A 
ATOM     25  C   UNL     1      -7.486  13.367  24.168  0.00  0.00    +0.000 A 
ATOM     26  C   UNL     1      -7.543  12.292  23.279  0.00  0.00    +0.000 A 
ATOM     27  C   UNL     1      -7.059  12.429  21.976  0.00  0.00    +0.000 A 
ATOM     28  F   UNL     1      -7.047  11.339  21.196  0.00  0.00    +0.000 F 
ENDBRANCH  21  22
ENDBRANCH   7  21
TORSDOF 4
ENDMDL
MODEL 2
REMARK VINA RESULT:      -6.2      2.025      2.970
REMARK  Name = 
REMARK  7 active torsions:
REMARK  status: ('A' for Active; 'I' for Inactive)
REMARK    1  A    between atoms: C_1  and  C_2
REMARK    2  A    between atoms: C_2  and  C_3
REMARK    3  A    between atoms: C_2  and  C_4
REMARK    4  A    between atoms: C_2  and  C_5
REMARK    5  A    between atoms: C_11  and  O_12
REMARK    6  A    between atoms: O_12  and  C_13
REMARK    7  A    between atoms: C_21  and  C_22
REMARK                            x       y       z     vdW  Elec       q    Type
REMARK                         _______ _______ _______ _____ _____    ______ ____
ROOT
ATOM      1  C   UNL     1      -1.296  11.652  20.040  0.00  0.00    +0.000 A 
ATOM      2  S   UNL     1      -0.739  10.599  18.786  0.00  0.00    +0.000 S 
ATOM      3  C   UNL     1      -2.132  10.702  17.877  0.00  0.00    +0.000 A 
ATOM      4  N   UNL     1      -2.162  10.003  16.727  0.00  0.00    +0.000 NA
ATOM      5  C   UNL     1      -3.266  10.178  16.031  0.00  0.00    +0.000 A 
ATOM      6  N   UNL     1      -4.283  10.962  16.368  0.00  0.00    +0.000 NA
ATOM      7  C   UNL     1      -4.239  11.608  17.559  0.00  0.00    +0.000 A 
ATOM      8  C   UNL     1      -3.102  11.532  18.417  0.00  0.00    +0.000 A 
ATOM      9  C   UNL     1      -2.630  12.103  19.772  0.00  0.00    +0.000 A 
ENDROOT
BRANCH   9  10
ATOM     10  C   UNL     1      -3.444  12.967  20.743  0.00  0.00    +0.000 A 
ATOM     11  C   UNL     1      -4.143  12.433  21.820  0.00  0.00    +0.000 A 
ATOM     12  C   UNL     1      -4.851  13.168  22.786  0.00  0.00    +0.000 A 
ATOM     13  C   UNL     1      -4.892  14.532  22.700  0.00  0.00    +0.000 A 
ATOM     14  F   UNL     1      -5.540  15.258  23.615  0.00  0.00    +0.000 F 
ATOM     15  C   UNL     1      -4.254  15.147  21.648  0.00  0.00    +0.000 A 
ATOM     16  C   UNL     1      -3.562  14.368  20.697  0.00  0.00    +0.000 A 
ENDBRANCH   9  10
BRANCH   1  18
ATOM     17  C   UNL     1      -0.755  11.434  22.622  0.00  0.00    +0.000 C 
ATOM     18  C   UNL     1      -0.256  11.867  21.201  0.00  0.00    +0.000 C 
ATOM     19  C   UNL     1       0.023  13.383  21.394  0.00  0.00    +0.000 C 
ATOM     20  C   UNL     1       0.992  10.968  20.998  0.00  0.00    +0.000 C 
ENDBRANCH   1  18
BRANCH   7  21
ATOM     21  O   UNL     1      -5.237  12.536  17.716  0.00  0.00    +0.000 OA
BRANCH  21  22
ATOM     22  C   UNL     1      -6.132  12.448  18.758  0.00  0.00    +0.000 A 
ATOM     23  C   UNL     1      -6.406  11.124  19.133  0.00  0.00    +0.000 A 
ATOM     24  C   UNL     1      -7.269  10.840  20.190  0.00  0.00    +0.000 A 
ATOM     25  C   UNL     1      -7.869  11.885  20.887  0.00  0.00    +0.000 A 
ATOM     26  C   UNL     1      -7.662  13.203  20.476  0.00  0.00    +0.000 A 
ATOM     27  C   UNL     1      -6.818  13.480  19.398  0.00  0.00    +0.000 A 
ATOM     28  F   UNL     1      -6.732  14.752  18.983  0.00  0.00    +0.000 F 
ENDBRANCH  21  22
ENDBRANCH   7  21
TORSDOF 4
ENDMDL
MODEL 3
REMARK VINA RESULT:      -6.1      2.264      5.228
REMARK  Name = 
REMARK  7 active torsions:
REMARK  status: ('A' for Active; 'I' for Inactive)
REMARK    1  A    between atoms: C_1  and  C_2
REMARK    2  A    between atoms: C_2  and  C_3
REMARK    3  A    between atoms: C_2  and  C_4
REMARK    4  A    between atoms: C_2  and  C_5
REMARK    5  A    between atoms: C_11  and  O_12
REMARK    6  A    between atoms: O_12  and  C_13
REMARK    7  A    between atoms: C_21  and  C_22
REMARK                            x       y       z     vdW  Elec       q    Type
REMARK                         _______ _______ _______ _____ _____    ______ ____
ROOT
ATOM      1  C   UNL     1      -5.688  12.358  20.080  0.00  0.00    +0.000 A 
ATOM      2  S   UNL     1      -5.791  11.745  18.466  0.00  0.00    +0.000 S 
ATOM      3  C   UNL     1      -4.145  11.721  18.211  0.00  0.00    +0.000 A 
ATOM      4  N   UNL     1      -3.720  11.283  17.011  0.00  0.00    +0.000 NA
ATOM      5  C   UNL     1      -2.409  11.233  16.901  0.00  0.00    +0.000 A 
ATOM      6  N   UNL     1      -1.535  11.558  17.846  0.00  0.00    +0.000 NA
ATOM      7  C   UNL     1      -2.000  12.046  19.021  0.00  0.00    +0.000 A 
ATOM      8  C   UNL     1      -3.396  12.143  19.298  0.00  0.00    +0.000 A 
ATOM      9  C   UNL     1      -4.323  12.581  20.454  0.00  0.00    +0.000 A 
ENDROOT
BRANCH   9  10
ATOM     10  C   UNL     1      -3.900  13.215  21.785  0.00  0.00    +0.000 A 
ATOM     11  C   UNL     1      -4.013  12.552  23.003  0.00  0.00    +0.000 A 
ATOM     12  C   UNL     1      -3.584  13.041  24.248  0.00  0.00    +0.000 A 
ATOM     13  C   UNL     1      -3.002  14.276  24.323  0.00  0.00    +0.000 A 
ATOM     14  F   UNL     1      -2.567  14.760  25.490  0.00  0.00    +0.000 F 
ATOM     15  C   UNL     1      -2.877  15.019  23.173  0.00  0.00    +0.000 A 
ATOM     16  C   UNL     1      -3.329  14.490  21.945  0.00  0.00    +0.000 A 
ENDBRANCH   9  10
BRANCH   1  18
ATOM     17  C   UNL     1      -7.018  13.144  22.229  0.00  0.00    +0.000 C 
ATOM     18  C   UNL     1      -7.085  12.567  20.774  0.00  0.00    +0.000 C 
ATOM     19  C   UNL     1      -7.785  11.197  20.990  0.00  0.00    +0.000 C 
ATOM     20  C   UNL     1      -7.917  13.643  20.027  0.00  0.00    +0.000 C 
ENDBRANCH   1  18
BRANCH   7  21
ATOM     21  O   UNL     1      -1.033  12.161  19.987  0.00  0.00    +0.000 OA
BRANCH  21  22
ATOM     22  C   UNL     1      -0.736  11.110  20.825  0.00  0.00    +0.000 A 
ATOM     23  C   UNL     1      -0.937  11.418  22.180  0.00  0.00    +0.000 A 
ATOM     24  C   UNL     1      -0.715  10.466  23.173  0.00  0.00    +0.000 A 
ATOM     25  C   UNL     1      -0.287   9.190  22.819  0.00  0.00    +0.000 A 
ATOM     26  C   UNL     1      -0.013   8.895  21.482  0.00  0.00    +0.000 A 
ATOM     27  C   UNL     1      -0.211   9.862  20.493  0.00  0.00    +0.000 A 
ATOM     28  F   UNL     1       0.161   9.560  19.241  0.00  0.00    +0.000 F 
ENDBRANCH  21  22
ENDBRANCH   7  21
TORSDOF 4
ENDMDL
MODEL 4
REMARK VINA RESULT:      -6.1      2.550      5.348
REMARK  Name = 
REMARK  7 active torsions:
REMARK  status: ('A' for Active; 'I' for Inactive)
REMARK    1  A    between atoms: C_1  and  C_2
REMARK    2  A    between atoms: C_2  and  C_3
REMARK    3  A    between atoms: C_2  and  C_4
REMARK    4  A    between atoms: C_2  and  C_5
REMARK    5  A    between atoms: C_11  and  O_12
REMARK    6  A    between atoms: O_12  and  C_13
REMARK    7  A    between atoms: C_21  and  C_22
REMARK                            x       y       z     vdW  Elec       q    Type
REMARK                         _______ _______ _______ _____ _____    ______ ____
ROOT
ATOM      1  C   UNL     1      -5.275  12.352  19.455  0.00  0.00    +0.000 A 
ATOM      2  S   UNL     1      -5.363  11.333  18.061  0.00  0.00    +0.000 S 
ATOM      3  C   UNL     1      -3.718  11.097  17.946  0.00  0.00    +0.000 A 
ATOM      4  N   UNL     1      -3.283  10.313  16.942  0.00  0.00    +0.000 NA
ATOM      5  C   UNL     1      -1.980  10.121  16.948  0.00  0.00    +0.000 A 
ATOM      6  N   UNL     1      -1.124  10.614  17.834  0.00  0.00    +0.000 NA
ATOM      7  C   UNL     1      -1.593  11.443  18.798  0.00  0.00    +0.000 A 
ATOM      8  C   UNL     1      -2.983  11.733  18.934  0.00  0.00    +0.000 A 
ATOM      9  C   UNL     1      -3.915  12.548  19.858  0.00  0.00    +0.000 A 
ENDROOT
BRANCH   9  10
ATOM     10  C   UNL     1      -3.494  13.483  21.000  0.00  0.00    +0.000 A 
ATOM     11  C   UNL     1      -2.732  14.627  20.792  0.00  0.00    +0.000 A 
ATOM     12  C   UNL     1      -2.369  15.563  21.775  0.00  0.00    +0.000 A 
ATOM     13  C   UNL     1      -2.771  15.373  23.068  0.00  0.00    +0.000 A 
ATOM     14  F   UNL     1      -2.458  16.255  24.021  0.00  0.00    +0.000 F 
ATOM     15  C   UNL     1      -3.502  14.249  23.374  0.00  0.00    +0.000 A 
ATOM     16  C   UNL     1      -3.837  13.333  22.355  0.00  0.00    +0.000 A 
ENDBRANCH   9  10
BRANCH   1  18
ATOM     17  C   UNL     1      -6.712  14.369  20.392  0.00  0.00    +0.000 C 
ATOM     18  C   UNL     1      -6.675  12.863  19.961  0.00  0.00    +0.000 C 
ATOM     19  C   UNL     1      -7.068  12.131  21.274  0.00  0.00    +0.000 C 
ATOM     20  C   UNL     1      -7.725  12.816  18.820  0.00  0.00    +0.000 C 
ENDBRANCH   1  18
BRANCH   7  21
ATOM     21  O   UNL     1      -0.668  11.734  19.769  0.00  0.00    +0.000 OA
BRANCH  21  22
ATOM     22  C   UNL     1      -0.407  10.849  20.791  0.00  0.00    +0.000 A 
ATOM     23  C   UNL     1      -0.998  11.230  22.006  0.00  0.00    +0.000 A 
ATOM     24  C   UNL     1      -0.867  10.440  23.146  0.00  0.00    +0.000 A 
ATOM     25  C   UNL     1      -0.138   9.255  23.083  0.00  0.00    +0.000 A 
ATOM     26  C   UNL     1       0.515   8.905  21.899  0.00  0.00    +0.000 A 
ATOM     27  C   UNL     1       0.403   9.714  20.767  0.00  0.00    +0.000 A 
ATOM     28  F   UNL     1       1.128   9.385  19.689  0.00  0.00    +0.000 F 
ENDBRANCH  21  22
ENDBRANCH   7  21
TORSDOF 4
ENDMDL
MODEL 5
REMARK VINA RESULT:      -6.1      2.577      5.597
REMARK  Name = 
REMARK  7 active torsions:
REMARK  status: ('A' for Active; 'I' for Inactive)
REMARK    1  A    between atoms: C_1  and  C_2
REMARK    2  A    between atoms: C_2  and  C_3
REMARK    3  A    between atoms: C_2  and  C_4
REMARK    4  A    between atoms: C_2  and  C_5
REMARK    5  A    between atoms: C_11  and  O_12
REMARK    6  A    between atoms: O_12  and  C_13
REMARK    7  A    between atoms: C_21  and  C_22
REMARK                            x       y       z     vdW  Elec       q    Type
REMARK                         _______ _______ _______ _____ _____    ______ ____
ROOT
ATOM      1  C   UNL     1      -5.239  12.713  19.293  0.00  0.00    +0.000 A 
ATOM      2  S   UNL     1      -5.658  12.045  17.755  0.00  0.00    +0.000 S 
ATOM      3  C   UNL     1      -4.153  11.393  17.462  0.00  0.00    +0.000 A 
ATOM      4  N   UNL     1      -3.992  10.726  16.303  0.00  0.00    +0.000 NA
ATOM      5  C   UNL     1      -2.799  10.186  16.165  0.00  0.00    +0.000 A 
ATOM      6  N   UNL     1      -1.811  10.246  17.049  0.00  0.00    +0.000 NA
ATOM      7  C   UNL     1      -1.992  10.972  18.179  0.00  0.00    +0.000 A 
ATOM      8  C   UNL     1      -3.237  11.601  18.480  0.00  0.00    +0.000 A 
ATOM      9  C   UNL     1      -3.867  12.448  19.608  0.00  0.00    +0.000 A 
ENDROOT
BRANCH   9  10
ATOM     10  C   UNL     1      -3.161  12.994  20.855  0.00  0.00    +0.000 A 
ATOM     11  C   UNL     1      -2.972  12.235  22.005  0.00  0.00    +0.000 A 
ATOM     12  C   UNL     1      -2.277  12.643  23.155  0.00  0.00    +0.000 A 
ATOM     13  C   UNL     1      -1.723  13.893  23.200  0.00  0.00    +0.000 A 
ATOM     14  F   UNL     1      -1.039  14.302  24.272  0.00  0.00    +0.000 F 
ATOM     15  C   UNL     1      -1.886  14.727  22.119  0.00  0.00    +0.000 A 
ATOM     16  C   UNL     1      -2.599  14.276  20.988  0.00  0.00    +0.000 A 
ENDBRANCH   9  10
BRANCH   1  18
ATOM     17  C   UNL     1      -7.775  13.468  19.215  0.00  0.00    +0.000 C 
ATOM     18  C   UNL     1      -6.418  13.483  19.997  0.00  0.00    +0.000 C 
ATOM     19  C   UNL     1      -6.095  15.000  20.075  0.00  0.00    +0.000 C 
ATOM     20  C   UNL     1      -6.798  12.801  21.338  0.00  0.00    +0.000 C 
ENDBRANCH   1  18
BRANCH   7  21
ATOM     21  O   UNL     1      -0.992  10.805  19.104  0.00  0.00    +0.000 OA
BRANCH  21  22
ATOM     22  C   UNL     1      -0.213  11.865  19.508  0.00  0.00    +0.000 A 
ATOM     23  C   UNL     1      -0.087  12.857  18.523  0.00  0.00    +0.000 A 
ATOM     24  C   UNL     1       0.643  14.019  18.764  0.00  0.00    +0.000 A 
ATOM     25  C   UNL     1       1.257  14.202  20.000  0.00  0.00    +0.000 A 
ATOM     26  C   UNL     1       1.200  13.190  20.960  0.00  0.00    +0.000 A 
ATOM     27  C   UNL     1       0.490  12.015  20.703  0.00  0.00    +0.000 A 
ATOM     28  F   UNL     1       0.550  11.037  21.617  0.00  0.00    +0.000 F 
ENDBRANCH  21  22
ENDBRANCH   7  21
TORSDOF 4
ENDMDL
MODEL 6
REMARK VINA RESULT:      -6.1     10.646     13.953
REMARK  Name = 
REMARK  7 active torsions:
REMARK  status: ('A' for Active; 'I' for Inactive)
REMARK    1  A    between atoms: C_1  and  C_2
REMARK    2  A    between atoms: C_2  and  C_3
REMARK    3  A    between atoms: C_2  and  C_4
REMARK    4  A    between atoms: C_2  and  C_5
REMARK    5  A    between atoms: C_11  and  O_12
REMARK    6  A    between atoms: O_12  and  C_13
REMARK    7  A    between atoms: C_21  and  C_22
REMARK                            x       y       z     vdW  Elec       q    Type
REMARK                         _______ _______ _______ _____ _____    ______ ____
ROOT
ATOM      1  C   UNL     1       6.063  15.199  21.434  0.00  0.00    +0.000 A 
ATOM      2  S   UNL     1       5.168  14.441  22.705  0.00  0.00    +0.000 S 
ATOM      3  C   UNL     1       6.303  13.257  22.999  0.00  0.00    +0.000 A 
ATOM      4  N   UNL     1       6.024  12.374  23.976  0.00  0.00    +0.000 NA
ATOM      5  C   UNL     1       6.989  11.506  24.195  0.00  0.00    +0.000 A 
ATOM      6  N   UNL     1       8.153  11.458  23.559  0.00  0.00    +0.000 NA
ATOM      7  C   UNL     1       8.375  12.329  22.545  0.00  0.00    +0.000 A 
ATOM      8  C   UNL     1       7.431  13.342  22.200  0.00  0.00    +0.000 A 
ATOM      9  C   UNL     1       7.295  14.508  21.196  0.00  0.00    +0.000 A 
ENDROOT
BRANCH   9  10
ATOM     10  C   UNL     1       8.267  14.871  20.066  0.00  0.00    +0.000 A 
ATOM     11  C   UNL     1       8.131  14.383  18.772  0.00  0.00    +0.000 A 
ATOM     12  C   UNL     1       8.939  14.725  17.674  0.00  0.00    +0.000 A 
ATOM     13  C   UNL     1       9.968  15.609  17.845  0.00  0.00    +0.000 A 
ATOM     14  F   UNL     1      10.742  15.968  16.816  0.00  0.00    +0.000 F 
ATOM     15  C   UNL     1      10.200  16.120  19.100  0.00  0.00    +0.000 A 
ATOM     16  C   UNL     1       9.367  15.741  20.175  0.00  0.00    +0.000 A 
ENDBRANCH   9  10
BRANCH   1  18
ATOM     17  C   UNL     1       5.159  16.380  19.245  0.00  0.00    +0.000 C 
ATOM     18  C   UNL     1       5.339  16.444  20.799  0.00  0.00    +0.000 C 
ATOM     19  C   UNL     1       6.210  17.718  20.981  0.00  0.00    +0.000 C 
ATOM     20  C   UNL     1       3.875  16.547  21.302  0.00  0.00    +0.000 C 
ENDBRANCH   1  18
BRANCH   7  21
ATOM     21  O   UNL     1       9.670  12.324  22.093  0.00  0.00    +0.000 OA
BRANCH  21  22
ATOM     22  C   UNL     1       9.972  11.956  20.801  0.00  0.00    +0.000 A 
ATOM     23  C   UNL     1       9.199  10.876  20.347  0.00  0.00    +0.000 A 
ATOM     24  C   UNL     1       9.346  10.384  19.051  0.00  0.00    +0.000 A 
ATOM     25  C   UNL     1      10.271  10.970  18.193  0.00  0.00    +0.000 A 
ATOM     26  C   UNL     1      11.096  11.996  18.658  0.00  0.00    +0.000 A 
ATOM     27  C   UNL     1      10.965  12.467  19.966  0.00  0.00    +0.000 A 
ATOM     28  F   UNL     1      11.846  13.383  20.392  0.00  0.00    +0.000 F 
ENDBRANCH  21  22
ENDBRANCH   7  21
TORSDOF 4
ENDMDL
MODEL 7
REMARK VINA RESULT:      -6.1      0.940      1.560
REMARK  Name = 
REMARK  7 active torsions:
REMARK  status: ('A' for Active; 'I' for Inactive)
REMARK    1  A    between atoms: C_1  and  C_2
REMARK    2  A    between atoms: C_2  and  C_3
REMARK    3  A    between atoms: C_2  and  C_4
REMARK    4  A    between atoms: C_2  and  C_5
REMARK    5  A    between atoms: C_11  and  O_12
REMARK    6  A    between atoms: O_12  and  C_13
REMARK    7  A    between atoms: C_21  and  C_22
REMARK                            x       y       z     vdW  Elec       q    Type
REMARK                         _______ _______ _______ _____ _____    ______ ____
ROOT
ATOM      1  C   UNL     1      -1.697  11.749  20.035  0.00  0.00    +0.000 A 
ATOM      2  S   UNL     1      -1.978  11.047  18.480  0.00  0.00    +0.000 S 
ATOM      3  C   UNL     1      -3.543  11.602  18.348  0.00  0.00    +0.000 A 
ATOM      4  N   UNL     1      -4.210  11.284  17.222  0.00  0.00    +0.000 NA
ATOM      5  C   UNL     1      -5.418  11.806  17.158  0.00  0.00    +0.000 A 
ATOM      6  N   UNL     1      -5.978  12.586  18.074  0.00  0.00    +0.000 NA
ATOM      7  C   UNL     1      -5.296  12.840  19.217  0.00  0.00    +0.000 A 
ATOM      8  C   UNL     1      -3.969  12.360  19.427  0.00  0.00    +0.000 A 
ATOM      9  C   UNL     1      -2.864  12.435  20.503  0.00  0.00    +0.000 A 
ENDROOT
BRANCH   9  10
ATOM     10  C   UNL     1      -2.971  13.078  21.892  0.00  0.00    +0.000 A 
ATOM     11  C   UNL     1      -2.657  14.412  22.129  0.00  0.00    +0.000 A 
ATOM     12  C   UNL     1      -2.796  15.084  23.355  0.00  0.00    +0.000 A 
ATOM     13  C   UNL     1      -3.274  14.409  24.443  0.00  0.00    +0.000 A 
ATOM     14  F   UNL     1      -3.436  15.026  25.617  0.00  0.00    +0.000 F 
ATOM     15  C   UNL     1      -3.582  13.075  24.311  0.00  0.00    +0.000 A 
ATOM     16  C   UNL     1      -3.419  12.439  23.062  0.00  0.00    +0.000 A 
ENDBRANCH   9  10
BRANCH   1  18
ATOM     17  C   UNL     1       0.532  12.743  21.060  0.00  0.00    +0.000 C 
ATOM     18  C   UNL     1      -0.259  11.468  20.611  0.00  0.00    +0.000 C 
ATOM     19  C   UNL     1       0.656  10.880  19.502  0.00  0.00    +0.000 C 
ATOM     20  C   UNL     1      -0.343  10.647  21.926  0.00  0.00    +0.000 C 
ENDBRANCH   1  18
BRANCH   7  21
ATOM     21  O   UNL     1      -5.877  13.807  19.998  0.00  0.00    +0.000 OA
BRANCH  21  22
ATOM     22  C   UNL     1      -6.486  13.488  21.191  0.00  0.00    +0.000 A 
ATOM     23  C   UNL     1      -7.243  12.308  21.118  0.00  0.00    +0.000 A 
ATOM     24  C   UNL     1      -7.909  11.813  22.237  0.00  0.00    +0.000 A 
ATOM     25  C   UNL     1      -7.824  12.496  23.447  0.00  0.00    +0.000 A 
ATOM     26  C   UNL     1      -7.135  13.709  23.512  0.00  0.00    +0.000 A 
ATOM     27  C   UNL     1      -6.493  14.216  22.380  0.00  0.00    +0.000 A 
ATOM     28  F   UNL     1      -5.932  15.429  22.471  0.00  0.00    +0.000 F 
ENDBRANCH  21  22
ENDBRANCH   7  21
TORSDOF 4
ENDMDL
MODEL 8
REMARK VINA RESULT:      -6.1      3.407      7.497
REMARK  Name = 
REMARK  7 active torsions:
REMARK  status: ('A' for Active; 'I' for Inactive)
REMARK    1  A    between atoms: C_1  and  C_2
REMARK    2  A    between atoms: C_2  and  C_3
REMARK    3  A    between atoms: C_2  and  C_4
REMARK    4  A    between atoms: C_2  and  C_5
REMARK    5  A    between atoms: C_11  and  O_12
REMARK    6  A    between atoms: O_12  and  C_13
REMARK    7  A    between atoms: C_21  and  C_22
REMARK                            x       y       z     vdW  Elec       q    Type
REMARK                         _______ _______ _______ _____ _____    ______ ____
ROOT
ATOM      1  C   UNL     1      -4.903  12.290  19.956  0.00  0.00    +0.000 A 
ATOM      2  S   UNL     1      -4.825  12.954  21.551  0.00  0.00    +0.000 S 
ATOM      3  C   UNL     1      -3.164  12.872  21.664  0.00  0.00    +0.000 A 
ATOM      4  N   UNL     1      -2.608  13.314  22.808  0.00  0.00    +0.000 NA
ATOM      5  C   UNL     1      -1.292  13.277  22.804  0.00  0.00    +0.000 A 
ATOM      6  N   UNL     1      -0.527  12.866  21.800  0.00  0.00    +0.000 NA
ATOM      7  C   UNL     1      -1.125  12.378  20.686  0.00  0.00    +0.000 A 
ATOM      8  C   UNL     1      -2.543  12.369  20.532  0.00  0.00    +0.000 A 
ATOM      9  C   UNL     1      -3.594  11.964  19.475  0.00  0.00    +0.000 A 
ENDROOT
BRANCH   9  10
ATOM     10  C   UNL     1      -3.332  11.265  18.135  0.00  0.00    +0.000 A 
ATOM     11  C   UNL     1      -3.925  11.674  16.945  0.00  0.00    +0.000 A 
ATOM     12  C   UNL     1      -3.680  11.127  15.674  0.00  0.00    +0.000 A 
ATOM     13  C   UNL     1      -2.791  10.097  15.543  0.00  0.00    +0.000 A 
ATOM     14  F   UNL     1      -2.523   9.570  14.345  0.00  0.00    +0.000 F 
ATOM     15  C   UNL     1      -2.179   9.605  16.672  0.00  0.00    +0.000 A 
ATOM     16  C   UNL     1      -2.461  10.180  17.929  0.00  0.00    +0.000 A 
ENDBRANCH   9  10
BRANCH   1  18
ATOM     17  C   UNL     1      -7.502  12.470  20.423  0.00  0.00    +0.000 C 
ATOM     18  C   UNL     1      -6.366  12.159  19.391  0.00  0.00    +0.000 C 
ATOM     19  C   UNL     1      -6.660  10.682  19.008  0.00  0.00    +0.000 C 
ATOM     20  C   UNL     1      -6.626  13.212  18.281  0.00  0.00    +0.000 C 
ENDBRANCH   1  18
BRANCH   7  21
ATOM     21  O   UNL     1      -0.255  12.169  19.645  0.00  0.00    +0.000 OA
BRANCH  21  22
ATOM     22  C   UNL     1       0.390  10.964  19.488  0.00  0.00    +0.000 A 
ATOM     23  C   UNL     1       1.135  10.895  18.300  0.00  0.00    +0.000 A 
ATOM     24  C   UNL     1       1.880   9.759  17.986  0.00  0.00    +0.000 A 
ATOM     25  C   UNL     1       1.886   8.676  18.860  0.00  0.00    +0.000 A 
ATOM     26  C   UNL     1       1.090   8.706  20.007  0.00  0.00    +0.000 A 
ATOM     27  C   UNL     1       0.324   9.835  20.304  0.00  0.00    +0.000 A 
ATOM     28  F   UNL     1      -0.496   9.773  21.362  0.00  0.00    +0.000 F 
ENDBRANCH  21  22
ENDBRANCH   7  21
TORSDOF 4
ENDMDL
MODEL 9
REMARK VINA RESULT:      -6.0      1.709      2.438
REMARK  Name = 
REMARK  7 active torsions:
REMARK  status: ('A' for Active; 'I' for Inactive)
REMARK    1  A    between atoms: C_1  and  C_2
REMARK    2  A    between atoms: C_2  and  C_3
REMARK    3  A    between atoms: C_2  and  C_4
REMARK    4  A    between atoms: C_2  and  C_5
REMARK    5  A    between atoms: C_11  and  O_12
REMARK    6  A    between atoms: O_12  and  C_13
REMARK    7  A    between atoms: C_21  and  C_22
REMARK                            x       y       z     vdW  Elec       q    Type
REMARK                         _______ _______ _______ _____ _____    ______ ____
ROOT
ATOM      1  C   UNL     1      -1.246  11.834  19.955  0.00  0.00    +0.000 A 
ATOM      2  S   UNL     1      -0.797  10.855  18.602  0.00  0.00    +0.000 S 
ATOM      3  C   UNL     1      -2.277  10.963  17.844  0.00  0.00    +0.000 A 
ATOM      4  N   UNL     1      -2.409  10.317  16.670  0.00  0.00    +0.000 NA
ATOM      5  C   UNL     1      -3.582  10.495  16.098  0.00  0.00    +0.000 A 
ATOM      6  N   UNL     1      -4.575  11.236  16.573  0.00  0.00    +0.000 NA
ATOM      7  C   UNL     1      -4.424  11.827  17.784  0.00  0.00    +0.000 A 
ATOM      8  C   UNL     1      -3.204  11.741  18.518  0.00  0.00    +0.000 A 
ATOM      9  C   UNL     1      -2.609  12.261  19.846  0.00  0.00    +0.000 A 
ENDROOT
BRANCH   9  10
ATOM     10  C   UNL     1      -3.339  13.059  20.934  0.00  0.00    +0.000 A 
ATOM     11  C   UNL     1      -3.927  12.456  22.040  0.00  0.00    +0.000 A 
ATOM     12  C   UNL     1      -4.550  13.125  23.107  0.00  0.00    +0.000 A 
ATOM     13  C   UNL     1      -4.614  14.491  23.101  0.00  0.00    +0.000 A 
ATOM     14  F   UNL     1      -5.182  15.156  24.110  0.00  0.00    +0.000 F 
ATOM     15  C   UNL     1      -4.086  15.172  22.029  0.00  0.00    +0.000 A 
ATOM     16  C   UNL     1      -3.477  14.457  20.976  0.00  0.00    +0.000 A 
ENDBRANCH   9  10
BRANCH   1  18
ATOM     17  C   UNL     1       0.046  13.476  21.580  0.00  0.00    +0.000 C 
ATOM     18  C   UNL     1      -0.098  12.022  21.015  0.00  0.00    +0.000 C 
ATOM     19  C   UNL     1       1.286  11.783  20.353  0.00  0.00    +0.000 C 
ATOM     20  C   UNL     1      -0.389  11.195  22.296  0.00  0.00    +0.000 C 
ENDBRANCH   1  18
BRANCH   7  21
ATOM     21  O   UNL     1      -5.421  12.720  18.086  0.00  0.00    +0.000 OA
BRANCH  21  22
ATOM     22  C   UNL     1      -6.224  12.544  19.190  0.00  0.00    +0.000 A 
ATOM     23  C   UNL     1      -6.622  13.756  19.774  0.00  0.00    +0.000 A 
ATOM     24  C   UNL     1      -7.462  13.775  20.886  0.00  0.00    +0.000 A 
ATOM     25  C   UNL     1      -7.914  12.575  21.427  0.00  0.00    +0.000 A 
ATOM     26  C   UNL     1      -7.465  11.363  20.900  0.00  0.00    +0.000 A 
ATOM     27  C   UNL     1      -6.601  11.350  19.803  0.00  0.00    +0.000 A 
ATOM     28  F   UNL     1      -6.122  10.165  19.399  0.00  0.00    +0.000 F 
ENDBRANCH  21  22
ENDBRANCH   7  21
TORSDOF 4
ENDMDL
