MODEL 1
REMARK VINA RESULT:      -7.9      0.000      0.000
REMARK  Name = 
REMARK  4 active torsions:
REMARK  status: ('A' for Active; 'I' for Inactive)
REMARK    1  A    between atoms: C_2  and  O_3
REMARK    2  A    between atoms: C_2  and  C_12
REMARK    3  A    between atoms: O_3  and  C_4
REMARK    4  A    between atoms: C_15  and  C_16
REMARK                            x       y       z     vdW  Elec       q    Type
REMARK                         _______ _______ _______ _____ _____    ______ ____
ROOT
ATOM      1  C   UNL     1       2.253   7.856  18.688  0.00  0.00    +0.000 C 
ATOM      2  C   UNL     1       2.406   8.885  17.827  0.00  0.00    +0.000 C 
ATOM      3  C   UNL     1       1.795  10.105  18.370  0.00  0.00    +0.000 C 
ATOM      4  C   UNL     1       2.007  11.353  17.905  0.00  0.00    +0.000 C 
ATOM      5  C   UNL     1       1.082   9.706  19.584  0.00  0.00    +0.000 A 
ATOM      6  C   UNL     1       0.153  10.343  20.390  0.00  0.00    +0.000 A 
ATOM      7  C   UNL     1      -0.241   9.718  21.570  0.00  0.00    +0.000 A 
ATOM      8  C   UNL     1       0.321   8.477  21.936  0.00  0.00    +0.000 A 
ATOM      9  C   UNL     1       1.188   7.809  21.068  0.00  0.00    +0.000 A 
ATOM     10  C   UNL     1       1.512   8.390  19.855  0.00  0.00    +0.000 A 
ENDROOT
BRANCH   4  11
ATOM     11  C   UNL     1       1.598  12.602  18.571  0.00  0.00    +0.000 A 
ATOM     12  C   UNL     1       0.357  13.197  18.350  0.00  0.00    +0.000 A 
ATOM     13  C   UNL     1       0.002  14.372  19.035  0.00  0.00    +0.000 A 
ATOM     14  C   UNL     1       0.925  14.920  19.913  0.00  0.00    +0.000 A 
ATOM     15  N   UNL     1       2.139  14.383  20.150  0.00  0.00    +0.000 NA
ATOM     16  C   UNL     1       2.445  13.240  19.483  0.00  0.00    +0.000 A 
ENDBRANCH   4  11
BRANCH   1  18
ATOM     17  O   UNL     1       1.801   5.526  18.344  0.00  0.00    +0.000 OA
ATOM     18  C   UNL     1       2.626   6.415  18.495  0.00  0.00    +0.000 C 
BRANCH  18  19
ATOM     19  O   UNL     1       3.973   6.226  18.474  0.00  0.00    +0.000 OA
BRANCH  19  20
ATOM     20  C   UNL     1       4.514   5.316  17.459  0.00  0.00    +0.000 C 
ATOM     21  C   UNL     1       5.586   4.361  18.039  0.00  0.00    +0.000 C 
ATOM     22  N   UNL     1       6.970   4.740  17.634  0.00  0.00    +0.000 NA
ATOM     23  C   UNL     1       7.099   4.479  16.190  0.00  0.00    +0.000 C 
ATOM     24  C   UNL     1       6.063   5.298  15.397  0.00  0.00    +0.000 C 
ATOM     25  C   UNL     1       5.212   6.167  16.360  0.00  0.00    +0.000 C 
ATOM     26  C   UNL     1       6.211   7.079  17.089  0.00  0.00    +0.000 C 
ATOM     27  C   UNL     1       7.192   6.188  17.874  0.00  0.00    +0.000 C 
ENDBRANCH  19  20
ENDBRANCH  18  19
ENDBRANCH   1  18
TORSDOF 4
ENDMDL
MODEL 2
REMARK VINA RESULT:      -7.6      2.763      3.559
REMARK  Name = 
REMARK  4 active torsions:
REMARK  status: ('A' for Active; 'I' for Inactive)
REMARK    1  A    between atoms: C_2  and  O_3
REMARK    2  A    between atoms: C_2  and  C_12
REMARK    3  A    between atoms: O_3  and  C_4
REMARK    4  A    between atoms: C_15  and  C_16
REMARK                            x       y       z     vdW  Elec       q    Type
REMARK                         _______ _______ _______ _____ _____    ______ ____
ROOT
ATOM      1  C   UNL     1       1.411   8.860  18.929  0.00  0.00    +0.000 C 
ATOM      2  C   UNL     1       0.641   9.635  18.134  0.00  0.00    +0.000 C 
ATOM      3  C   UNL     1      -0.239  10.486  18.944  0.00  0.00    +0.000 C 
ATOM      4  C   UNL     1      -0.922  11.556  18.487  0.00  0.00    +0.000 C 
ATOM      5  C   UNL     1      -0.078  10.047  20.332  0.00  0.00    +0.000 A 
ATOM      6  C   UNL     1      -0.788  10.302  21.494  0.00  0.00    +0.000 A 
ATOM      7  C   UNL     1      -0.282   9.820  22.698  0.00  0.00    +0.000 A 
ATOM      8  C   UNL     1       0.938   9.111  22.721  0.00  0.00    +0.000 A 
ATOM      9  C   UNL     1       1.591   8.787  21.530  0.00  0.00    +0.000 A 
ATOM     10  C   UNL     1       1.043   9.193  20.326  0.00  0.00    +0.000 A 
ENDROOT
BRANCH   4  11
ATOM     11  C   UNL     1      -1.617  12.555  19.317  0.00  0.00    +0.000 A 
ATOM     12  C   UNL     1      -2.938  12.396  19.732  0.00  0.00    +0.000 A 
ATOM     13  C   UNL     1      -3.546  13.363  20.551  0.00  0.00    +0.000 A 
ATOM     14  C   UNL     1      -2.800  14.475  20.912  0.00  0.00    +0.000 A 
ATOM     15  N   UNL     1      -1.523  14.673  20.527  0.00  0.00    +0.000 NA
ATOM     16  C   UNL     1      -0.961  13.712  19.749  0.00  0.00    +0.000 A 
ENDBRANCH   4  11
BRANCH   1  18
ATOM     17  O   UNL     1       3.270   7.949  17.720  0.00  0.00    +0.000 OA
ATOM     18  C   UNL     1       2.371   7.777  18.529  0.00  0.00    +0.000 C 
BRANCH  18  19
ATOM     19  O   UNL     1       2.144   6.612  19.192  0.00  0.00    +0.000 OA
BRANCH  19  20
ATOM     20  C   UNL     1       2.758   5.394  18.652  0.00  0.00    +0.000 C 
ATOM     21  C   UNL     1       1.739   4.511  17.891  0.00  0.00    +0.000 C 
ATOM     22  N   UNL     1       1.342   3.300  18.664  0.00  0.00    +0.000 NA
ATOM     23  C   UNL     1       2.512   2.406  18.724  0.00  0.00    +0.000 C 
ATOM     24  C   UNL     1       3.699   3.114  19.404  0.00  0.00    +0.000 C 
ATOM     25  C   UNL     1       3.294   4.546  19.841  0.00  0.00    +0.000 C 
ATOM     26  C   UNL     1       2.115   4.367  20.810  0.00  0.00    +0.000 C 
ATOM     27  C   UNL     1       0.967   3.679  20.049  0.00  0.00    +0.000 C 
ENDBRANCH  19  20
ENDBRANCH  18  19
ENDBRANCH   1  18
TORSDOF 4
ENDMDL
MODEL 3
REMARK VINA RESULT:      -7.5      2.333      3.215
REMARK  Name = 
REMARK  4 active torsions:
REMARK  status: ('A' for Active; 'I' for Inactive)
REMARK    1  A    between atoms: C_2  and  O_3
REMARK    2  A    between atoms: C_2  and  C_12
REMARK    3  A    between atoms: O_3  and  C_4
REMARK    4  A    between atoms: C_15  and  C_16
REMARK                            x       y       z     vdW  Elec       q    Type
REMARK                         _______ _______ _______ _____ _____    ______ ____
ROOT
ATOM      1  C   UNL     1       2.264   8.388  18.431  0.00  0.00    +0.000 C 
ATOM      2  C   UNL     1       2.060   9.579  17.828  0.00  0.00    +0.000 C 
ATOM      3  C   UNL     1       1.228  10.446  18.671  0.00  0.00    +0.000 C 
ATOM      4  C   UNL     1       1.068  11.774  18.501  0.00  0.00    +0.000 C 
ATOM      5  C   UNL     1       0.775   9.622  19.793  0.00  0.00    +0.000 A 
ATOM      6  C   UNL     1      -0.189   9.801  20.772  0.00  0.00    +0.000 A 
ATOM      7  C   UNL     1      -0.281   8.857  21.792  0.00  0.00    +0.000 A 
ATOM      8  C   UNL     1       0.610   7.764  21.828  0.00  0.00    +0.000 A 
ATOM      9  C   UNL     1       1.515   7.553  20.785  0.00  0.00    +0.000 A 
ATOM     10  C   UNL     1       1.547   8.444  19.727  0.00  0.00    +0.000 A 
ENDROOT
BRANCH   4  11
ATOM     11  C   UNL     1       0.437  12.697  19.461  0.00  0.00    +0.000 A 
ATOM     12  C   UNL     1       1.128  13.239  20.543  0.00  0.00    +0.000 A 
ATOM     13  C   UNL     1       0.491  14.141  21.412  0.00  0.00    +0.000 A 
ATOM     14  C   UNL     1      -0.838  14.454  21.168  0.00  0.00    +0.000 A 
ATOM     15  N   UNL     1      -1.547  13.946  20.140  0.00  0.00    +0.000 NA
ATOM     16  C   UNL     1      -0.897  13.090  19.310  0.00  0.00    +0.000 A 
ENDBRANCH   4  11
BRANCH   1  18
ATOM     17  O   UNL     1       4.008   7.234  17.258  0.00  0.00    +0.000 OA
ATOM     18  C   UNL     1       2.963   7.175  17.888  0.00  0.00    +0.000 C 
BRANCH  18  19
ATOM     19  O   UNL     1       2.321   6.019  18.209  0.00  0.00    +0.000 OA
BRANCH  19  20
ATOM     20  C   UNL     1       3.138   4.810  18.360  0.00  0.00    +0.000 C 
ATOM     21  C   UNL     1       2.815   3.746  17.283  0.00  0.00    +0.000 C 
ATOM     22  N   UNL     1       2.023   2.605  17.825  0.00  0.00    +0.000 NA
ATOM     23  C   UNL     1       2.900   1.844  18.732  0.00  0.00    +0.000 C 
ATOM     24  C   UNL     1       3.405   2.742  19.877  0.00  0.00    +0.000 C 
ATOM     25  C   UNL     1       2.816   4.170  19.741  0.00  0.00    +0.000 C 
ATOM     26  C   UNL     1       1.290   3.997  19.791  0.00  0.00    +0.000 C 
ATOM     27  C   UNL     1       0.867   3.113  18.604  0.00  0.00    +0.000 C 
ENDBRANCH  19  20
ENDBRANCH  18  19
ENDBRANCH   1  18
TORSDOF 4
ENDMDL
MODEL 4
REMARK VINA RESULT:      -7.5      2.497      3.525
REMARK  Name = 
REMARK  4 active torsions:
REMARK  status: ('A' for Active; 'I' for Inactive)
REMARK    1  A    between atoms: C_2  and  O_3
REMARK    2  A    between atoms: C_2  and  C_12
REMARK    3  A    between atoms: O_3  and  C_4
REMARK    4  A    between atoms: C_15  and  C_16
REMARK                            x       y       z     vdW  Elec       q    Type
REMARK                         _______ _______ _______ _____ _____    ______ ____
ROOT
ATOM      1  C   UNL     1       1.589   8.653  18.696  0.00  0.00    +0.000 C 
ATOM      2  C   UNL     1       0.800   9.421  17.914  0.00  0.00    +0.000 C 
ATOM      3  C   UNL     1      -0.093  10.245  18.737  0.00  0.00    +0.000 C 
ATOM      4  C   UNL     1      -0.799  11.306  18.295  0.00  0.00    +0.000 C 
ATOM      5  C   UNL     1       0.082   9.794  20.119  0.00  0.00    +0.000 A 
ATOM      6  C   UNL     1      -0.627  10.021  21.287  0.00  0.00    +0.000 A 
ATOM      7  C   UNL     1      -0.106   9.535  22.484  0.00  0.00    +0.000 A 
ATOM      8  C   UNL     1       1.127   8.851  22.493  0.00  0.00    +0.000 A 
ATOM      9  C   UNL     1       1.782   8.553  21.296  0.00  0.00    +0.000 A 
ATOM     10  C   UNL     1       1.221   8.962  20.099  0.00  0.00    +0.000 A 
ENDROOT
BRANCH   4  11
ATOM     11  C   UNL     1      -1.509  12.282  19.140  0.00  0.00    +0.000 A 
ATOM     12  C   UNL     1      -2.857  12.146  19.469  0.00  0.00    +0.000 A 
ATOM     13  C   UNL     1      -3.482  13.087  20.306  0.00  0.00    +0.000 A 
ATOM     14  C   UNL     1      -2.724  14.151  20.771  0.00  0.00    +0.000 A 
ATOM     15  N   UNL     1      -1.421  14.326  20.471  0.00  0.00    +0.000 NA
ATOM     16  C   UNL     1      -0.844  13.390  19.673  0.00  0.00    +0.000 A 
ENDBRANCH   4  11
BRANCH   1  18
ATOM     17  O   UNL     1       3.663   7.849  17.802  0.00  0.00    +0.000 OA
ATOM     18  C   UNL     1       2.568   7.593  18.280  0.00  0.00    +0.000 C 
BRANCH  18  19
ATOM     19  O   UNL     1       2.111   6.337  18.529  0.00  0.00    +0.000 OA
BRANCH  19  20
ATOM     20  C   UNL     1       2.658   5.635  19.695  0.00  0.00    +0.000 C 
ATOM     21  C   UNL     1       3.898   4.781  19.337  0.00  0.00    +0.000 C 
ATOM     22  N   UNL     1       3.596   3.321  19.298  0.00  0.00    +0.000 NA
ATOM     23  C   UNL     1       3.332   2.884  20.680  0.00  0.00    +0.000 C 
ATOM     24  C   UNL     1       2.145   3.664  21.277  0.00  0.00    +0.000 C 
ATOM     25  C   UNL     1       1.573   4.658  20.232  0.00  0.00    +0.000 C 
ATOM     26  C   UNL     1       1.137   3.797  19.036  0.00  0.00    +0.000 C 
ATOM     27  C   UNL     1       2.380   3.074  18.485  0.00  0.00    +0.000 C 
ENDBRANCH  19  20
ENDBRANCH  18  19
ENDBRANCH   1  18
TORSDOF 4
ENDMDL
MODEL 5
REMARK VINA RESULT:      -7.4      2.109      8.120
REMARK  Name = 
REMARK  4 active torsions:
REMARK  status: ('A' for Active; 'I' for Inactive)
REMARK    1  A    between atoms: C_2  and  O_3
REMARK    2  A    between atoms: C_2  and  C_12
REMARK    3  A    between atoms: O_3  and  C_4
REMARK    4  A    between atoms: C_15  and  C_16
REMARK                            x       y       z     vdW  Elec       q    Type
REMARK                         _______ _______ _______ _____ _____    ______ ____
ROOT
ATOM      1  C   UNL     1       2.231   7.635  19.221  0.00  0.00    +0.000 C 
ATOM      2  C   UNL     1       3.048   8.122  18.261  0.00  0.00    +0.000 C 
ATOM      3  C   UNL     1       3.960   7.077  17.784  0.00  0.00    +0.000 C 
ATOM      4  C   UNL     1       4.701   7.146  16.658  0.00  0.00    +0.000 C 
ATOM      5  C   UNL     1       3.763   5.921  18.661  0.00  0.00    +0.000 A 
ATOM      6  C   UNL     1       4.472   4.747  18.855  0.00  0.00    +0.000 A 
ATOM      7  C   UNL     1       3.929   3.776  19.694  0.00  0.00    +0.000 A 
ATOM      8  C   UNL     1       2.676   3.989  20.304  0.00  0.00    +0.000 A 
ATOM      9  C   UNL     1       2.020   5.214  20.169  0.00  0.00    +0.000 A 
ATOM     10  C   UNL     1       2.600   6.211  19.405  0.00  0.00    +0.000 A 
ENDROOT
BRANCH   4  11
ATOM     11  C   UNL     1       5.435   6.028  16.039  0.00  0.00    +0.000 A 
ATOM     12  C   UNL     1       4.851   5.178  15.102  0.00  0.00    +0.000 A 
ATOM     13  C   UNL     1       5.604   4.146  14.515  0.00  0.00    +0.000 A 
ATOM     14  C   UNL     1       6.925   3.995  14.910  0.00  0.00    +0.000 A 
ATOM     15  N   UNL     1       7.526   4.789  15.819  0.00  0.00    +0.000 NA
ATOM     16  C   UNL     1       6.775   5.786  16.355  0.00  0.00    +0.000 A 
ENDBRANCH   4  11
BRANCH   1  18
ATOM     17  O   UNL     1       0.872   8.001  21.162  0.00  0.00    +0.000 OA
ATOM     18  C   UNL     1       1.223   8.374  20.053  0.00  0.00    +0.000 C 
BRANCH  18  19
ATOM     19  O   UNL     1       0.783   9.509  19.447  0.00  0.00    +0.000 OA
BRANCH  19  20
ATOM     20  C   UNL     1      -0.507  10.054  19.884  0.00  0.00    +0.000 C 
ATOM     21  C   UNL     1      -1.371  10.542  18.696  0.00  0.00    +0.000 C 
ATOM     22  N   UNL     1      -1.411  12.028  18.590  0.00  0.00    +0.000 NA
ATOM     23  C   UNL     1      -2.182  12.537  19.737  0.00  0.00    +0.000 C 
ATOM     24  C   UNL     1      -1.525  12.109  21.063  0.00  0.00    +0.000 C 
ATOM     25  C   UNL     1      -0.237  11.291  20.787  0.00  0.00    +0.000 C 
ATOM     26  C   UNL     1       0.681  12.223  19.979  0.00  0.00    +0.000 C 
ATOM     27  C   UNL     1      -0.036  12.581  18.664  0.00  0.00    +0.000 C 
ENDBRANCH  19  20
ENDBRANCH  18  19
ENDBRANCH   1  18
TORSDOF 4
ENDMDL
MODEL 6
REMARK VINA RESULT:      -7.4      2.170      3.238
REMARK  Name = 
REMARK  4 active torsions:
REMARK  status: ('A' for Active; 'I' for Inactive)
REMARK    1  A    between atoms: C_2  and  O_3
REMARK    2  A    between atoms: C_2  and  C_12
REMARK    3  A    between atoms: O_3  and  C_4
REMARK    4  A    between atoms: C_15  and  C_16
REMARK                            x       y       z     vdW  Elec       q    Type
REMARK                         _______ _______ _______ _____ _____    ______ ____
ROOT
ATOM      1  C   UNL     1       2.253   8.193  18.619  0.00  0.00    +0.000 C 
ATOM      2  C   UNL     1       2.319   9.275  17.812  0.00  0.00    +0.000 C 
ATOM      3  C   UNL     1       1.628  10.415  18.425  0.00  0.00    +0.000 C 
ATOM      4  C   UNL     1       1.741  11.699  18.025  0.00  0.00    +0.000 C 
ATOM      5  C   UNL     1       0.963   9.902  19.624  0.00  0.00    +0.000 A 
ATOM      6  C   UNL     1       0.001  10.427  20.471  0.00  0.00    +0.000 A 
ATOM      7  C   UNL     1      -0.330   9.713  21.621  0.00  0.00    +0.000 A 
ATOM      8  C   UNL     1       0.326   8.500  21.914  0.00  0.00    +0.000 A 
ATOM      9  C   UNL     1       1.227   7.943  21.004  0.00  0.00    +0.000 A 
ATOM     10  C   UNL     1       1.492   8.610  19.821  0.00  0.00    +0.000 A 
ENDROOT
BRANCH   4  11
ATOM     11  C   UNL     1       1.252  12.878  18.761  0.00  0.00    +0.000 A 
ATOM     12  C   UNL     1       0.003  13.447  18.517  0.00  0.00    +0.000 A 
ATOM     13  C   UNL     1      -0.432  14.553  19.268  0.00  0.00    +0.000 A 
ATOM     14  C   UNL     1       0.422  15.060  20.236  0.00  0.00    +0.000 A 
ATOM     15  N   UNL     1       1.641  14.547  20.499  0.00  0.00    +0.000 NA
ATOM     16  C   UNL     1       2.024  13.470  19.766  0.00  0.00    +0.000 A 
ENDBRANCH   4  11
BRANCH   1  18
ATOM     17  O   UNL     1       3.703   6.546  17.652  0.00  0.00    +0.000 OA
ATOM     18  C   UNL     1       2.729   6.795  18.347  0.00  0.00    +0.000 C 
BRANCH  18  19
ATOM     19  O   UNL     1       1.980   5.858  18.987  0.00  0.00    +0.000 OA
BRANCH  19  20
ATOM     20  C   UNL     1       2.616   5.109  20.075  0.00  0.00    +0.000 C 
ATOM     21  C   UNL     1       3.688   4.120  19.558  0.00  0.00    +0.000 C 
ATOM     22  N   UNL     1       3.228   2.702  19.600  0.00  0.00    +0.000 NA
ATOM     23  C   UNL     1       3.128   2.308  21.016  0.00  0.00    +0.000 C 
ATOM     24  C   UNL     1       2.136   3.219  21.763  0.00  0.00    +0.000 C 
ATOM     25  C   UNL     1       1.525   4.262  20.791  0.00  0.00    +0.000 C 
ATOM     26  C   UNL     1       0.824   3.446  19.694  0.00  0.00    +0.000 C 
ATOM     27  C   UNL     1       1.884   2.585  18.982  0.00  0.00    +0.000 C 
ENDBRANCH  19  20
ENDBRANCH  18  19
ENDBRANCH   1  18
TORSDOF 4
ENDMDL
MODEL 7
REMARK VINA RESULT:      -7.4      3.005      4.306
REMARK  Name = 
REMARK  4 active torsions:
REMARK  status: ('A' for Active; 'I' for Inactive)
REMARK    1  A    between atoms: C_2  and  O_3
REMARK    2  A    between atoms: C_2  and  C_12
REMARK    3  A    between atoms: O_3  and  C_4
REMARK    4  A    between atoms: C_15  and  C_16
REMARK                            x       y       z     vdW  Elec       q    Type
REMARK                         _______ _______ _______ _____ _____    ______ ____
ROOT
ATOM      1  C   UNL     1       0.855   9.822  19.272  0.00  0.00    +0.000 C 
ATOM      2  C   UNL     1       1.124  10.443  20.440  0.00  0.00    +0.000 C 
ATOM      3  C   UNL     1      -0.013  11.274  20.855  0.00  0.00    +0.000 C 
ATOM      4  C   UNL     1      -0.185  11.798  22.086  0.00  0.00    +0.000 C 
ATOM      5  C   UNL     1      -0.964  11.259  19.742  0.00  0.00    +0.000 A 
ATOM      6  C   UNL     1      -2.089  12.012  19.448  0.00  0.00    +0.000 A 
ATOM      7  C   UNL     1      -2.861  11.648  18.348  0.00  0.00    +0.000 A 
ATOM      8  C   UNL     1      -2.507  10.521  17.577  0.00  0.00    +0.000 A 
ATOM      9  C   UNL     1      -1.322   9.829  17.835  0.00  0.00    +0.000 A 
ATOM     10  C   UNL     1      -0.510  10.244  18.875  0.00  0.00    +0.000 A 
ENDROOT
BRANCH   4  11
ATOM     11  C   UNL     1      -1.417  12.429  22.590  0.00  0.00    +0.000 A 
ATOM     12  C   UNL     1      -2.412  11.707  23.247  0.00  0.00    +0.000 A 
ATOM     13  C   UNL     1      -3.555  12.361  23.739  0.00  0.00    +0.000 A 
ATOM     14  C   UNL     1      -3.664  13.728  23.534  0.00  0.00    +0.000 A 
ATOM     15  N   UNL     1      -2.730  14.463  22.896  0.00  0.00    +0.000 NA
ATOM     16  C   UNL     1      -1.632  13.803  22.448  0.00  0.00    +0.000 A 
ENDBRANCH   4  11
BRANCH   1  18
ATOM     17  O   UNL     1       1.956   9.162  17.246  0.00  0.00    +0.000 OA
ATOM     18  C   UNL     1       1.764   8.967  18.438  0.00  0.00    +0.000 C 
BRANCH  18  19
ATOM     19  O   UNL     1       2.368   7.988  19.164  0.00  0.00    +0.000 OA
BRANCH  19  20
ATOM     20  C   UNL     1       1.784   6.644  19.106  0.00  0.00    +0.000 C 
ATOM     21  C   UNL     1       2.108   5.810  20.369  0.00  0.00    +0.000 C 
ATOM     22  N   UNL     1       3.142   4.766  20.116  0.00  0.00    +0.000 NA
ATOM     23  C   UNL     1       2.540   3.745  19.240  0.00  0.00    +0.000 C 
ATOM     24  C   UNL     1       2.076   4.376  17.914  0.00  0.00    +0.000 C 
ATOM     25  C   UNL     1       2.404   5.892  17.894  0.00  0.00    +0.000 C 
ATOM     26  C   UNL     1       3.929   5.988  18.060  0.00  0.00    +0.000 C 
ATOM     27  C   UNL     1       4.306   5.362  19.415  0.00  0.00    +0.000 C 
ENDBRANCH  19  20
ENDBRANCH  18  19
ENDBRANCH   1  18
TORSDOF 4
ENDMDL
MODEL 8
REMARK VINA RESULT:      -7.3      1.195      1.521
REMARK  Name = 
REMARK  4 active torsions:
REMARK  status: ('A' for Active; 'I' for Inactive)
REMARK    1  A    between atoms: C_2  and  O_3
REMARK    2  A    between atoms: C_2  and  C_12
REMARK    3  A    between atoms: O_3  and  C_4
REMARK    4  A    between atoms: C_15  and  C_16
REMARK                            x       y       z     vdW  Elec       q    Type
REMARK                         _______ _______ _______ _____ _____    ______ ____
ROOT
ATOM      1  C   UNL     1       1.720   8.093  19.918  0.00  0.00    +0.000 C 
ATOM      2  C   UNL     1       1.820   8.880  18.824  0.00  0.00    +0.000 C 
ATOM      3  C   UNL     1       1.273  10.214  19.100  0.00  0.00    +0.000 C 
ATOM      4  C   UNL     1       1.465  11.306  18.332  0.00  0.00    +0.000 C 
ATOM      5  C   UNL     1       0.652  10.142  20.424  0.00  0.00    +0.000 A 
ATOM      6  C   UNL     1      -0.200  10.986  21.117  0.00  0.00    +0.000 A 
ATOM      7  C   UNL     1      -0.508  10.676  22.439  0.00  0.00    +0.000 A 
ATOM      8  C   UNL     1       0.062   9.541  23.052  0.00  0.00    +0.000 A 
ATOM      9  C   UNL     1       0.847   8.655  22.310  0.00  0.00    +0.000 A 
ATOM     10  C   UNL     1       1.083   8.917  20.972  0.00  0.00    +0.000 A 
ENDROOT
BRANCH   4  11
ATOM     11  C   UNL     1       1.130  12.692  18.705  0.00  0.00    +0.000 A 
ATOM     12  C   UNL     1      -0.101  13.272  18.400  0.00  0.00    +0.000 A 
ATOM     13  C   UNL     1      -0.385  14.587  18.806  0.00  0.00    +0.000 A 
ATOM     14  C   UNL     1       0.596  15.284  19.495  0.00  0.00    +0.000 A 
ATOM     15  N   UNL     1       1.802  14.765  19.803  0.00  0.00    +0.000 NA
ATOM     16  C   UNL     1       2.038  13.487  19.409  0.00  0.00    +0.000 A 
ENDBRANCH   4  11
BRANCH   1  18
ATOM     17  O   UNL     1       1.289   5.818  20.539  0.00  0.00    +0.000 OA
ATOM     18  C   UNL     1       2.056   6.636  20.053  0.00  0.00    +0.000 C 
BRANCH  18  19
ATOM     19  O   UNL     1       3.281   6.336  19.545  0.00  0.00    +0.000 OA
BRANCH  19  20
ATOM     20  C   UNL     1       3.355   5.967  18.127  0.00  0.00    +0.000 C 
ATOM     21  C   UNL     1       3.160   4.447  17.906  0.00  0.00    +0.000 C 
ATOM     22  N   UNL     1       4.436   3.748  17.580  0.00  0.00    +0.000 NA
ATOM     23  C   UNL     1       4.854   4.186  16.236  0.00  0.00    +0.000 C 
ATOM     24  C   UNL     1       5.052   5.713  16.202  0.00  0.00    +0.000 C 
ATOM     25  C   UNL     1       4.775   6.324  17.601  0.00  0.00    +0.000 C 
ATOM     26  C   UNL     1       5.772   5.647  18.555  0.00  0.00    +0.000 C 
ATOM     27  C   UNL     1       5.490   4.134  18.550  0.00  0.00    +0.000 C 
ENDBRANCH  19  20
ENDBRANCH  18  19
ENDBRANCH   1  18
TORSDOF 4
ENDMDL
MODEL 9
REMARK VINA RESULT:      -7.3      0.770      1.436
REMARK  Name = 
REMARK  4 active torsions:
REMARK  status: ('A' for Active; 'I' for Inactive)
REMARK    1  A    between atoms: C_2  and  O_3
REMARK    2  A    between atoms: C_2  and  C_12
REMARK    3  A    between atoms: O_3  and  C_4
REMARK    4  A    between atoms: C_15  and  C_16
REMARK                            x       y       z     vdW  Elec       q    Type
REMARK                         _______ _______ _______ _____ _____    ______ ____
ROOT
ATOM      1  C   UNL     1       2.171   7.908  18.859  0.00  0.00    +0.000 C 
ATOM      2  C   UNL     1       2.355   8.896  17.956  0.00  0.00    +0.000 C 
ATOM      3  C   UNL     1       1.767  10.151  18.441  0.00  0.00    +0.000 C 
ATOM      4  C   UNL     1       2.010  11.373  17.926  0.00  0.00    +0.000 C 
ATOM      5  C   UNL     1       1.035   9.819  19.666  0.00  0.00    +0.000 A 
ATOM      6  C   UNL     1       0.114  10.511  20.435  0.00  0.00    +0.000 A 
ATOM      7  C   UNL     1      -0.303   9.946  21.637  0.00  0.00    +0.000 A 
ATOM      8  C   UNL     1       0.229   8.710  22.060  0.00  0.00    +0.000 A 
ATOM      9  C   UNL     1       1.087   7.986  21.229  0.00  0.00    +0.000 A 
ATOM     10  C   UNL     1       1.434   8.508  19.996  0.00  0.00    +0.000 A 
ENDROOT
BRANCH   4  11
ATOM     11  C   UNL     1       1.624  12.658  18.535  0.00  0.00    +0.000 A 
ATOM     12  C   UNL     1       0.379  13.245  18.318  0.00  0.00    +0.000 A 
ATOM     13  C   UNL     1       0.046  14.457  18.948  0.00  0.00    +0.000 A 
ATOM     14  C   UNL     1       0.996  15.048  19.768  0.00  0.00    +0.000 A 
ATOM     15  N   UNL     1       2.215  14.520  19.998  0.00  0.00    +0.000 NA
ATOM     16  C   UNL     1       2.498  13.341  19.386  0.00  0.00    +0.000 A 
ENDBRANCH   4  11
BRANCH   1  18
ATOM     17  O   UNL     1       2.137   5.606  19.528  0.00  0.00    +0.000 OA
ATOM     18  C   UNL     1       2.515   6.452  18.731  0.00  0.00    +0.000 C 
BRANCH  18  19
ATOM     19  O   UNL     1       3.253   6.188  17.620  0.00  0.00    +0.000 OA
BRANCH  19  20
ATOM     20  C   UNL     1       4.713   6.226  17.751  0.00  0.00    +0.000 C 
ATOM     21  C   UNL     1       5.412   6.589  16.419  0.00  0.00    +0.000 C 
ATOM     22  N   UNL     1       6.059   5.411  15.773  0.00  0.00    +0.000 NA
ATOM     23  C   UNL     1       7.209   5.021  16.607  0.00  0.00    +0.000 C 
ATOM     24  C   UNL     1       6.747   4.667  18.034  0.00  0.00    +0.000 C 
ATOM     25  C   UNL     1       5.207   4.807  18.152  0.00  0.00    +0.000 C 
ATOM     26  C   UNL     1       4.622   3.837  17.113  0.00  0.00    +0.000 C 
ATOM     27  C   UNL     1       5.108   4.273  15.719  0.00  0.00    +0.000 C 
ENDBRANCH  19  20
ENDBRANCH  18  19
ENDBRANCH   1  18
TORSDOF 4
ENDMDL
