MODEL 1
REMARK VINA RESULT:      -7.5      0.000      0.000
REMARK  Name = 
REMARK  7 active torsions:
REMARK  status: ('A' for Active; 'I' for Inactive)
REMARK    1  A    between atoms: C_1  and  C_2
REMARK    2  A    between atoms: C_2  and  C_3
REMARK    3  A    between atoms: CA_4  and  C_5
REMARK    4  A    between atoms: C_5  and  OXT_7
REMARK    5  A    between atoms: CA_11  and  N_12
REMARK    6  A    between atoms: C_13  and  C_15
REMARK    7  A    between atoms: C_15  and  C_16
REMARK                            x       y       z     vdW  Elec       q    Type
REMARK                         _______ _______ _______ _____ _____    ______ ____
ROOT
ATOM      1  C   UNL     1       4.013   7.078  16.513  0.00  0.00    +0.000 C 
ATOM      2  C   UNL     1       3.888   5.872  17.482  0.00  0.00    +0.000 C 
ATOM      3  C   UNL     1       2.432   5.924  17.972  0.00  0.00    +0.000 C 
ATOM      4  CA  UNL     1       4.373   4.531  16.848  0.00  0.00    +0.000 C 
ATOM      5  N   UNL     1       5.846   4.550  16.857  0.00  0.00    +0.000 N 
ATOM      6  C   UNL     1       6.512   5.302  15.915  0.00  0.00    +0.000 C 
ATOM      7  O   UNL     1       6.269   5.447  14.751  0.00  0.00    +0.000 OA
ATOM      8  CA  UNL     1       7.390   5.992  17.006  0.00  0.00    +0.000 C 
ATOM      9  C   UNL     1       6.464   5.251  18.006  0.00  0.00    +0.000 C 
ATOM     10  S   UNL     1       5.050   6.168  18.911  0.00  0.00    +0.000 S 
ATOM     11  O   UNL     1       4.585   5.223  20.076  0.00  0.00    +0.000 OA
ENDROOT
BRANCH   8  12
ATOM     12  N   UNL     1       7.364   7.481  17.059  0.00  0.00    +0.000 N 
ATOM     13  C   UNL     1       8.071   8.157  18.034  0.00  0.00    +0.000 C 
ATOM     14  O   UNL     1       8.729   7.570  18.884  0.00  0.00    +0.000 OA
ATOM     15  H   UNL     1       6.952   8.040  16.323  0.00  0.00    +0.000 HD
BRANCH  13  16
ATOM     16  C   UNL     1       7.930   9.671  17.998  0.00  0.00    +0.000 C 
BRANCH  16  17
ATOM     17  C   UNL     1       9.110  10.410  18.581  0.00  0.00    +0.000 A 
ATOM     18  C   UNL     1      10.109  10.936  17.749  0.00  0.00    +0.000 A 
ATOM     19  C   UNL     1      11.187  11.638  18.295  0.00  0.00    +0.000 A 
ATOM     20  C   UNL     1      11.274  11.829  19.673  0.00  0.00    +0.000 A 
ATOM     21  C   UNL     1      10.276  11.327  20.505  0.00  0.00    +0.000 A 
ATOM     22  C   UNL     1       9.198  10.626  19.963  0.00  0.00    +0.000 A 
ENDBRANCH  16  17
ENDBRANCH  13  16
ENDBRANCH   8  12
BRANCH   4  23
ATOM     23  C   UNL     1       3.894   3.226  17.530  0.00  0.00    +0.000 C 
ATOM     24  O   UNL     1       2.848   2.665  17.224  0.00  0.00    +0.000 OA
BRANCH  23  25
ATOM     25  OXT UNL     1       4.746   2.655  18.415  0.00  0.00    +0.000 OA
ATOM     26  HXT UNL     1       5.659   2.526  18.097  0.00  0.00    +0.000 HD
ENDBRANCH  23  25
ENDBRANCH   4  23
TORSDOF 5
ENDMDL
MODEL 2
REMARK VINA RESULT:      -7.3      4.915      5.952
REMARK  Name = 
REMARK  7 active torsions:
REMARK  status: ('A' for Active; 'I' for Inactive)
REMARK    1  A    between atoms: C_1  and  C_2
REMARK    2  A    between atoms: C_2  and  C_3
REMARK    3  A    between atoms: CA_4  and  C_5
REMARK    4  A    between atoms: C_5  and  OXT_7
REMARK    5  A    between atoms: CA_11  and  N_12
REMARK    6  A    between atoms: C_13  and  C_15
REMARK    7  A    between atoms: C_15  and  C_16
REMARK                            x       y       z     vdW  Elec       q    Type
REMARK                         _______ _______ _______ _____ _____    ______ ____
ROOT
ATOM      1  C   UNL     1       1.323   4.170  17.651  0.00  0.00    +0.000 C 
ATOM      2  C   UNL     1       2.051   3.348  18.747  0.00  0.00    +0.000 C 
ATOM      3  C   UNL     1       1.178   2.095  18.928  0.00  0.00    +0.000 C 
ATOM      4  CA  UNL     1       3.562   3.117  18.433  0.00  0.00    +0.000 C 
ATOM      5  N   UNL     1       4.267   4.376  18.728  0.00  0.00    +0.000 N 
ATOM      6  C   UNL     1       4.181   5.418  17.832  0.00  0.00    +0.000 C 
ATOM      7  O   UNL     1       4.208   5.393  16.635  0.00  0.00    +0.000 OA
ATOM      8  CA  UNL     1       3.780   6.425  18.957  0.00  0.00    +0.000 C 
ATOM      9  C   UNL     1       3.716   5.162  19.855  0.00  0.00    +0.000 C 
ATOM     10  S   UNL     1       2.042   4.358  20.316  0.00  0.00    +0.000 S 
ATOM     11  O   UNL     1       2.338   3.366  21.496  0.00  0.00    +0.000 OA
ENDROOT
BRANCH   8  12
ATOM     12  N   UNL     1       2.505   7.175  18.777  0.00  0.00    +0.000 N 
ATOM     13  C   UNL     1       2.456   8.277  17.949  0.00  0.00    +0.000 C 
ATOM     14  O   UNL     1       3.442   8.683  17.345  0.00  0.00    +0.000 OA
ATOM     15  H   UNL     1       1.623   6.832  19.137  0.00  0.00    +0.000 HD
BRANCH  13  16
ATOM     16  C   UNL     1       1.104   8.973  17.883  0.00  0.00    +0.000 C 
BRANCH  16  17
ATOM     17  C   UNL     1       0.907  10.030  18.941  0.00  0.00    +0.000 A 
ATOM     18  C   UNL     1       0.260   9.727  20.148  0.00  0.00    +0.000 A 
ATOM     19  C   UNL     1       0.100  10.707  21.131  0.00  0.00    +0.000 A 
ATOM     20  C   UNL     1       0.592  11.994  20.925  0.00  0.00    +0.000 A 
ATOM     21  C   UNL     1       1.253  12.300  19.738  0.00  0.00    +0.000 A 
ATOM     22  C   UNL     1       1.414  11.324  18.753  0.00  0.00    +0.000 A 
ENDBRANCH  16  17
ENDBRANCH  13  16
ENDBRANCH   8  12
BRANCH   4  23
ATOM     23  C   UNL     1       4.264   1.968  19.197  0.00  0.00    +0.000 C 
ATOM     24  O   UNL     1       4.831   2.136  20.270  0.00  0.00    +0.000 OA
BRANCH  23  25
ATOM     25  OXT UNL     1       4.130   0.724  18.678  0.00  0.00    +0.000 OA
ATOM     26  HXT UNL     1       4.558   0.008  19.185  0.00  0.00    +0.000 HD
ENDBRANCH  23  25
ENDBRANCH   4  23
TORSDOF 5
ENDMDL
MODEL 3
REMARK VINA RESULT:      -7.1      4.915      5.766
REMARK  Name = 
REMARK  7 active torsions:
REMARK  status: ('A' for Active; 'I' for Inactive)
REMARK    1  A    between atoms: C_1  and  C_2
REMARK    2  A    between atoms: C_2  and  C_3
REMARK    3  A    between atoms: CA_4  and  C_5
REMARK    4  A    between atoms: C_5  and  OXT_7
REMARK    5  A    between atoms: CA_11  and  N_12
REMARK    6  A    between atoms: C_13  and  C_15
REMARK    7  A    between atoms: C_15  and  C_16
REMARK                            x       y       z     vdW  Elec       q    Type
REMARK                         _______ _______ _______ _____ _____    ______ ____
ROOT
ATOM      1  C   UNL     1       1.238   4.307  17.588  0.00  0.00    +0.000 C 
ATOM      2  C   UNL     1       1.935   3.421  18.654  0.00  0.00    +0.000 C 
ATOM      3  C   UNL     1       1.018   2.195  18.791  0.00  0.00    +0.000 C 
ATOM      4  CA  UNL     1       3.437   3.147  18.330  0.00  0.00    +0.000 C 
ATOM      5  N   UNL     1       4.187   4.369  18.669  0.00  0.00    +0.000 N 
ATOM      6  C   UNL     1       4.139   5.444  17.811  0.00  0.00    +0.000 C 
ATOM      7  O   UNL     1       4.166   5.461  16.613  0.00  0.00    +0.000 OA
ATOM      8  CA  UNL     1       3.774   6.424  18.971  0.00  0.00    +0.000 C 
ATOM      9  C   UNL     1       3.664   5.134  19.824  0.00  0.00    +0.000 C 
ATOM     10  S   UNL     1       1.962   4.375  20.257  0.00  0.00    +0.000 S 
ATOM     11  O   UNL     1       2.221   3.331  21.401  0.00  0.00    +0.000 OA
ENDROOT
BRANCH   8  12
ATOM     12  N   UNL     1       2.527   7.225  18.819  0.00  0.00    +0.000 N 
ATOM     13  C   UNL     1       2.483   8.286  17.937  0.00  0.00    +0.000 C 
ATOM     14  O   UNL     1       3.451   8.611  17.261  0.00  0.00    +0.000 OA
ATOM     15  H   UNL     1       1.651   6.946  19.242  0.00  0.00    +0.000 HD
BRANCH  13  16
ATOM     16  C   UNL     1       1.163   9.042  17.905  0.00  0.00    +0.000 C 
BRANCH  16  17
ATOM     17  C   UNL     1       1.071  10.156  18.918  0.00  0.00    +0.000 A 
ATOM     18  C   UNL     1       1.608  11.423  18.644  0.00  0.00    +0.000 A 
ATOM     19  C   UNL     1       1.499  12.455  19.579  0.00  0.00    +0.000 A 
ATOM     20  C   UNL     1       0.847  12.238  20.791  0.00  0.00    +0.000 A 
ATOM     21  C   UNL     1       0.292  10.990  21.064  0.00  0.00    +0.000 A 
ATOM     22  C   UNL     1       0.400   9.956  20.133  0.00  0.00    +0.000 A 
ENDBRANCH  16  17
ENDBRANCH  13  16
ENDBRANCH   8  12
BRANCH   4  23
ATOM     23  C   UNL     1       4.098   1.948  19.052  0.00  0.00    +0.000 C 
ATOM     24  O   UNL     1       3.965   0.790  18.670  0.00  0.00    +0.000 OA
BRANCH  23  25
ATOM     25  OXT UNL     1       4.935   2.241  20.075  0.00  0.00    +0.000 OA
ATOM     26  HXT UNL     1       4.690   1.866  20.942  0.00  0.00    +0.000 HD
ENDBRANCH  23  25
ENDBRANCH   4  23
TORSDOF 5
ENDMDL
MODEL 4
REMARK VINA RESULT:      -7.1      3.397      6.429
REMARK  Name = 
REMARK  7 active torsions:
REMARK  status: ('A' for Active; 'I' for Inactive)
REMARK    1  A    between atoms: C_1  and  C_2
REMARK    2  A    between atoms: C_2  and  C_3
REMARK    3  A    between atoms: CA_4  and  C_5
REMARK    4  A    between atoms: C_5  and  OXT_7
REMARK    5  A    between atoms: CA_11  and  N_12
REMARK    6  A    between atoms: C_13  and  C_15
REMARK    7  A    between atoms: C_15  and  C_16
REMARK                            x       y       z     vdW  Elec       q    Type
REMARK                         _______ _______ _______ _____ _____    ______ ____
ROOT
ATOM      1  C   UNL     1       6.385   5.939  19.227  0.00  0.00    +0.000 C 
ATOM      2  C   UNL     1       6.394   5.891  17.676  0.00  0.00    +0.000 C 
ATOM      3  C   UNL     1       7.575   6.790  17.273  0.00  0.00    +0.000 C 
ATOM      4  CA  UNL     1       6.388   4.437  17.112  0.00  0.00    +0.000 C 
ATOM      5  N   UNL     1       5.015   3.921  17.248  0.00  0.00    +0.000 N 
ATOM      6  C   UNL     1       4.576   3.504  18.484  0.00  0.00    +0.000 C 
ATOM      7  O   UNL     1       5.158   2.883  19.327  0.00  0.00    +0.000 OA
ATOM      8  CA  UNL     1       3.280   4.370  18.377  0.00  0.00    +0.000 C 
ATOM      9  C   UNL     1       3.941   4.928  17.089  0.00  0.00    +0.000 C 
ATOM     10  S   UNL     1       4.795   6.640  17.075  0.00  0.00    +0.000 S 
ATOM     11  O   UNL     1       5.009   7.015  15.565  0.00  0.00    +0.000 OA
ENDROOT
BRANCH   8  12
ATOM     12  N   UNL     1       3.025   5.353  19.468  0.00  0.00    +0.000 N 
ATOM     13  C   UNL     1       1.834   5.328  20.164  0.00  0.00    +0.000 C 
ATOM     14  O   UNL     1       0.950   4.518  19.912  0.00  0.00    +0.000 OA
ATOM     15  H   UNL     1       3.749   5.967  19.820  0.00  0.00    +0.000 HD
BRANCH  13  16
ATOM     16  C   UNL     1       1.686   6.407  21.226  0.00  0.00    +0.000 C 
BRANCH  16  17
ATOM     17  C   UNL     1       1.279   7.753  20.680  0.00  0.00    +0.000 A 
ATOM     18  C   UNL     1       1.747   8.194  19.434  0.00  0.00    +0.000 A 
ATOM     19  C   UNL     1       1.348   9.433  18.926  0.00  0.00    +0.000 A 
ATOM     20  C   UNL     1       0.473  10.239  19.650  0.00  0.00    +0.000 A 
ATOM     21  C   UNL     1      -0.013   9.801  20.880  0.00  0.00    +0.000 A 
ATOM     22  C   UNL     1       0.384   8.565  21.391  0.00  0.00    +0.000 A 
ENDBRANCH  16  17
ENDBRANCH  13  16
ENDBRANCH   8  12
BRANCH   4  23
ATOM     23  C   UNL     1       6.838   4.258  15.641  0.00  0.00    +0.000 C 
ATOM     24  O   UNL     1       7.793   4.860  15.164  0.00  0.00    +0.000 OA
BRANCH  23  25
ATOM     25  OXT UNL     1       6.193   3.310  14.920  0.00  0.00    +0.000 OA
ATOM     26  HXT UNL     1       6.703   2.497  14.742  0.00  0.00    +0.000 HD
ENDBRANCH  23  25
ENDBRANCH   4  23
TORSDOF 5
ENDMDL
MODEL 5
REMARK VINA RESULT:      -6.9      4.391      7.030
REMARK  Name = 
REMARK  7 active torsions:
REMARK  status: ('A' for Active; 'I' for Inactive)
REMARK    1  A    between atoms: C_1  and  C_2
REMARK    2  A    between atoms: C_2  and  C_3
REMARK    3  A    between atoms: CA_4  and  C_5
REMARK    4  A    between atoms: C_5  and  OXT_7
REMARK    5  A    between atoms: CA_11  and  N_12
REMARK    6  A    between atoms: C_13  and  C_15
REMARK    7  A    between atoms: C_15  and  C_16
REMARK                            x       y       z     vdW  Elec       q    Type
REMARK                         _______ _______ _______ _____ _____    ______ ____
ROOT
ATOM      1  C   UNL     1       4.519   2.522  18.911  0.00  0.00    +0.000 C 
ATOM      2  C   UNL     1       3.128   3.202  19.026  0.00  0.00    +0.000 C 
ATOM      3  C   UNL     1       2.179   2.064  19.435  0.00  0.00    +0.000 C 
ATOM      4  CA  UNL     1       3.145   4.471  19.934  0.00  0.00    +0.000 C 
ATOM      5  N   UNL     1       3.756   5.559  19.153  0.00  0.00    +0.000 N 
ATOM      6  C   UNL     1       5.123   5.585  18.995  0.00  0.00    +0.000 C 
ATOM      7  O   UNL     1       5.983   5.338  19.792  0.00  0.00    +0.000 OA
ATOM      8  CA  UNL     1       4.997   5.755  17.448  0.00  0.00    +0.000 C 
ATOM      9  C   UNL     1       3.484   5.526  17.698  0.00  0.00    +0.000 C 
ATOM     10  S   UNL     1       2.665   3.836  17.333  0.00  0.00    +0.000 S 
ATOM     11  O   UNL     1       1.114   4.083  17.351  0.00  0.00    +0.000 OA
ENDROOT
BRANCH   8  12
ATOM     12  N   UNL     1       5.687   4.748  16.593  0.00  0.00    +0.000 N 
ATOM     13  C   UNL     1       6.098   5.079  15.318  0.00  0.00    +0.000 C 
ATOM     14  O   UNL     1       5.909   6.192  14.842  0.00  0.00    +0.000 OA
ATOM     15  H   UNL     1       5.993   3.853  16.954  0.00  0.00    +0.000 HD
BRANCH  13  16
ATOM     16  C   UNL     1       6.755   3.950  14.539  0.00  0.00    +0.000 C 
BRANCH  16  17
ATOM     17  C   UNL     1       5.985   3.520  13.315  0.00  0.00    +0.000 A 
ATOM     18  C   UNL     1       4.712   4.044  13.047  0.00  0.00    +0.000 A 
ATOM     19  C   UNL     1       4.015   3.657  11.900  0.00  0.00    +0.000 A 
ATOM     20  C   UNL     1       4.583   2.753  11.005  0.00  0.00    +0.000 A 
ATOM     21  C   UNL     1       5.855   2.242  11.253  0.00  0.00    +0.000 A 
ATOM     22  C   UNL     1       6.554   2.626  12.398  0.00  0.00    +0.000 A 
ENDBRANCH  16  17
ENDBRANCH  13  16
ENDBRANCH   8  12
BRANCH   4  23
ATOM     23  C   UNL     1       1.778   4.958  20.473  0.00  0.00    +0.000 C 
ATOM     24  O   UNL     1       0.825   4.205  20.639  0.00  0.00    +0.000 OA
BRANCH  23  25
ATOM     25  OXT UNL     1       1.708   6.252  20.868  0.00  0.00    +0.000 OA
ATOM     26  HXT UNL     1       1.023   6.790  20.428  0.00  0.00    +0.000 HD
ENDBRANCH  23  25
ENDBRANCH   4  23
TORSDOF 5
ENDMDL
MODEL 6
REMARK VINA RESULT:      -6.9      4.479      6.975
REMARK  Name = 
REMARK  7 active torsions:
REMARK  status: ('A' for Active; 'I' for Inactive)
REMARK    1  A    between atoms: C_1  and  C_2
REMARK    2  A    between atoms: C_2  and  C_3
REMARK    3  A    between atoms: CA_4  and  C_5
REMARK    4  A    between atoms: C_5  and  OXT_7
REMARK    5  A    between atoms: CA_11  and  N_12
REMARK    6  A    between atoms: C_13  and  C_15
REMARK    7  A    between atoms: C_15  and  C_16
REMARK                            x       y       z     vdW  Elec       q    Type
REMARK                         _______ _______ _______ _____ _____    ______ ____
ROOT
ATOM      1  C   UNL     1       4.452   2.456  18.911  0.00  0.00    +0.000 C 
ATOM      2  C   UNL     1       3.031   3.073  18.999  0.00  0.00    +0.000 C 
ATOM      3  C   UNL     1       2.124   1.891  19.377  0.00  0.00    +0.000 C 
ATOM      4  CA  UNL     1       2.971   4.333  19.919  0.00  0.00    +0.000 C 
ATOM      5  N   UNL     1       3.551   5.455  19.161  0.00  0.00    +0.000 N 
ATOM      6  C   UNL     1       4.919   5.542  19.036  0.00  0.00    +0.000 C 
ATOM      7  O   UNL     1       5.771   5.326  19.849  0.00  0.00    +0.000 OA
ATOM      8  CA  UNL     1       4.820   5.722  17.487  0.00  0.00    +0.000 C 
ATOM      9  C   UNL     1       3.313   5.424  17.700  0.00  0.00    +0.000 C 
ATOM     10  S   UNL     1       2.578   3.703  17.303  0.00  0.00    +0.000 S 
ATOM     11  O   UNL     1       1.018   3.881  17.287  0.00  0.00    +0.000 OA
ENDROOT
BRANCH   8  12
ATOM     12  N   UNL     1       5.573   4.754  16.640  0.00  0.00    +0.000 N 
ATOM     13  C   UNL     1       6.052   5.136  15.404  0.00  0.00    +0.000 C 
ATOM     14  O   UNL     1       5.875   6.263  14.956  0.00  0.00    +0.000 OA
ATOM     15  H   UNL     1       5.870   3.851  16.987  0.00  0.00    +0.000 HD
BRANCH  13  16
ATOM     16  C   UNL     1       6.770   4.043  14.626  0.00  0.00    +0.000 C 
BRANCH  16  17
ATOM     17  C   UNL     1       6.058   3.619  13.365  0.00  0.00    +0.000 A 
ATOM     18  C   UNL     1       6.709   2.836  12.401  0.00  0.00    +0.000 A 
ATOM     19  C   UNL     1       6.035   2.430  11.246  0.00  0.00    +0.000 A 
ATOM     20  C   UNL     1       4.704   2.792  11.047  0.00  0.00    +0.000 A 
ATOM     21  C   UNL     1       4.043   3.553  12.008  0.00  0.00    +0.000 A 
ATOM     22  C   UNL     1       4.713   3.961  13.162  0.00  0.00    +0.000 A 
ENDBRANCH  16  17
ENDBRANCH  13  16
ENDBRANCH   8  12
BRANCH   4  23
ATOM     23  C   UNL     1       1.572   4.754  20.431  0.00  0.00    +0.000 C 
ATOM     24  O   UNL     1       1.308   5.903  20.766  0.00  0.00    +0.000 OA
BRANCH  23  25
ATOM     25  OXT UNL     1       0.600   3.812  20.386  0.00  0.00    +0.000 OA
ATOM     26  HXT UNL     1       0.490   3.361  19.528  0.00  0.00    +0.000 HD
ENDBRANCH  23  25
ENDBRANCH   4  23
TORSDOF 5
ENDMDL
MODEL 7
REMARK VINA RESULT:      -6.8      0.230      1.200
REMARK  Name = 
REMARK  7 active torsions:
REMARK  status: ('A' for Active; 'I' for Inactive)
REMARK    1  A    between atoms: C_1  and  C_2
REMARK    2  A    between atoms: C_2  and  C_3
REMARK    3  A    between atoms: CA_4  and  C_5
REMARK    4  A    between atoms: C_5  and  OXT_7
REMARK    5  A    between atoms: CA_11  and  N_12
REMARK    6  A    between atoms: C_13  and  C_15
REMARK    7  A    between atoms: C_15  and  C_16
REMARK                            x       y       z     vdW  Elec       q    Type
REMARK                         _______ _______ _______ _____ _____    ______ ____
ROOT
ATOM      1  C   UNL     1       3.780   7.203  16.718  0.00  0.00    +0.000 C 
ATOM      2  C   UNL     1       3.706   5.947  17.627  0.00  0.00    +0.000 C 
ATOM      3  C   UNL     1       2.278   5.971  18.196  0.00  0.00    +0.000 C 
ATOM      4  CA  UNL     1       4.156   4.642  16.900  0.00  0.00    +0.000 C 
ATOM      5  N   UNL     1       5.627   4.664  16.831  0.00  0.00    +0.000 N 
ATOM      6  C   UNL     1       6.242   5.465  15.896  0.00  0.00    +0.000 C 
ATOM      7  O   UNL     1       5.938   5.671  14.756  0.00  0.00    +0.000 OA
ATOM      8  CA  UNL     1       7.178   6.099  16.974  0.00  0.00    +0.000 C 
ATOM      9  C   UNL     1       6.305   5.305  17.981  0.00  0.00    +0.000 C 
ATOM     10  S   UNL     1       4.942   6.170  19.007  0.00  0.00    +0.000 S 
ATOM     11  O   UNL     1       4.539   5.165  20.144  0.00  0.00    +0.000 OA
ENDROOT
BRANCH   8  12
ATOM     12  N   UNL     1       7.156   7.583  17.106  0.00  0.00    +0.000 N 
ATOM     13  C   UNL     1       7.985   8.214  18.011  0.00  0.00    +0.000 C 
ATOM     14  O   UNL     1       8.752   7.592  18.735  0.00  0.00    +0.000 OA
ATOM     15  H   UNL     1       6.648   8.175  16.461  0.00  0.00    +0.000 HD
BRANCH  13  16
ATOM     16  C   UNL     1       7.838   9.727  18.073  0.00  0.00    +0.000 C 
BRANCH  16  17
ATOM     17  C   UNL     1       9.056  10.441  18.604  0.00  0.00    +0.000 A 
ATOM     18  C   UNL     1       9.234  10.628  19.983  0.00  0.00    +0.000 A 
ATOM     19  C   UNL     1      10.376  11.271  20.468  0.00  0.00    +0.000 A 
ATOM     20  C   UNL     1      11.355  11.723  19.585  0.00  0.00    +0.000 A 
ATOM     21  C   UNL     1      11.196  11.524  18.216  0.00  0.00    +0.000 A 
ATOM     22  C   UNL     1      10.057  10.883  17.728  0.00  0.00    +0.000 A 
ENDBRANCH  16  17
ENDBRANCH  13  16
ENDBRANCH   8  12
BRANCH   4  23
ATOM     23  C   UNL     1       3.712   3.302  17.536  0.00  0.00    +0.000 C 
ATOM     24  O   UNL     1       4.383   2.714  18.376  0.00  0.00    +0.000 OA
BRANCH  23  25
ATOM     25  OXT UNL     1       2.477   2.853  17.205  0.00  0.00    +0.000 OA
ATOM     26  HXT UNL     1       1.736   3.269  17.684  0.00  0.00    +0.000 HD
ENDBRANCH  23  25
ENDBRANCH   4  23
TORSDOF 5
ENDMDL
MODEL 8
REMARK VINA RESULT:      -6.8      3.877      5.351
REMARK  Name = 
REMARK  7 active torsions:
REMARK  status: ('A' for Active; 'I' for Inactive)
REMARK    1  A    between atoms: C_1  and  C_2
REMARK    2  A    between atoms: C_2  and  C_3
REMARK    3  A    between atoms: CA_4  and  C_5
REMARK    4  A    between atoms: C_5  and  OXT_7
REMARK    5  A    between atoms: CA_11  and  N_12
REMARK    6  A    between atoms: C_13  and  C_15
REMARK    7  A    between atoms: C_15  and  C_16
REMARK                            x       y       z     vdW  Elec       q    Type
REMARK                         _______ _______ _______ _____ _____    ______ ____
ROOT
ATOM      1  C   UNL     1       3.324   3.452  17.044  0.00  0.00    +0.000 C 
ATOM      2  C   UNL     1       2.342   3.848  18.178  0.00  0.00    +0.000 C 
ATOM      3  C   UNL     1       1.077   4.318  17.441  0.00  0.00    +0.000 C 
ATOM      4  CA  UNL     1       2.161   2.726  19.247  0.00  0.00    +0.000 C 
ATOM      5  N   UNL     1       3.359   2.741  20.104  0.00  0.00    +0.000 N 
ATOM      6  C   UNL     1       4.527   2.184  19.634  0.00  0.00    +0.000 C 
ATOM      7  O   UNL     1       4.687   1.179  19.002  0.00  0.00    +0.000 OA
ATOM      8  CA  UNL     1       5.348   3.462  19.999  0.00  0.00    +0.000 C 
ATOM      9  C   UNL     1       3.962   4.075  20.327  0.00  0.00    +0.000 C 
ATOM     10  S   UNL     1       3.098   5.275  19.113  0.00  0.00    +0.000 S 
ATOM     11  O   UNL     1       1.935   5.957  19.917  0.00  0.00    +0.000 OA
ENDROOT
BRANCH   8  12
ATOM     12  N   UNL     1       6.118   4.114  18.902  0.00  0.00    +0.000 N 
ATOM     13  C   UNL     1       7.080   5.059  19.192  0.00  0.00    +0.000 C 
ATOM     14  O   UNL     1       7.332   5.400  20.342  0.00  0.00    +0.000 OA
ATOM     15  H   UNL     1       6.061   3.798  17.942  0.00  0.00    +0.000 HD
BRANCH  13  16
ATOM     16  C   UNL     1       7.766   5.673  17.981  0.00  0.00    +0.000 C 
BRANCH  16  17
ATOM     17  C   UNL     1       6.994   5.516  16.694  0.00  0.00    +0.000 A 
ATOM     18  C   UNL     1       7.327   4.511  15.775  0.00  0.00    +0.000 A 
ATOM     19  C   UNL     1       6.593   4.359  14.596  0.00  0.00    +0.000 A 
ATOM     20  C   UNL     1       5.515   5.200  14.327  0.00  0.00    +0.000 A 
ATOM     21  C   UNL     1       5.164   6.188  15.243  0.00  0.00    +0.000 A 
ATOM     22  C   UNL     1       5.895   6.343  16.422  0.00  0.00    +0.000 A 
ENDBRANCH  16  17
ENDBRANCH  13  16
ENDBRANCH   8  12
BRANCH   4  23
ATOM     23  C   UNL     1       0.907   2.820  20.150  0.00  0.00    +0.000 C 
ATOM     24  O   UNL     1       0.968   3.121  21.337  0.00  0.00    +0.000 OA
BRANCH  23  25
ATOM     25  OXT UNL     1      -0.292   2.663  19.541  0.00  0.00    +0.000 OA
ATOM     26  HXT UNL     1      -1.061   2.591  20.138  0.00  0.00    +0.000 HD
ENDBRANCH  23  25
ENDBRANCH   4  23
TORSDOF 5
ENDMDL
MODEL 9
REMARK VINA RESULT:      -6.7      4.508      6.447
REMARK  Name = 
REMARK  7 active torsions:
REMARK  status: ('A' for Active; 'I' for Inactive)
REMARK    1  A    between atoms: C_1  and  C_2
REMARK    2  A    between atoms: C_2  and  C_3
REMARK    3  A    between atoms: CA_4  and  C_5
REMARK    4  A    between atoms: C_5  and  OXT_7
REMARK    5  A    between atoms: CA_11  and  N_12
REMARK    6  A    between atoms: C_13  and  C_15
REMARK    7  A    between atoms: C_15  and  C_16
REMARK                            x       y       z     vdW  Elec       q    Type
REMARK                         _______ _______ _______ _____ _____    ______ ____
ROOT
ATOM      1  C   UNL     1       5.351   3.623  19.910  0.00  0.00    +0.000 C 
ATOM      2  C   UNL     1       3.969   2.921  19.988  0.00  0.00    +0.000 C 
ATOM      3  C   UNL     1       4.203   1.721  20.920  0.00  0.00    +0.000 C 
ATOM      4  CA  UNL     1       2.812   3.896  20.368  0.00  0.00    +0.000 C 
ATOM      5  N   UNL     1       2.488   4.681  19.165  0.00  0.00    +0.000 N 
ATOM      6  C   UNL     1       3.317   5.717  18.798  0.00  0.00    +0.000 C 
ATOM      7  O   UNL     1       3.863   6.532  19.486  0.00  0.00    +0.000 OA
ATOM      8  CA  UNL     1       3.420   5.189  17.332  0.00  0.00    +0.000 C 
ATOM      9  C   UNL     1       2.643   3.963  17.879  0.00  0.00    +0.000 C 
ATOM     10  S   UNL     1       3.539   2.319  18.275  0.00  0.00    +0.000 S 
ATOM     11  O   UNL     1       2.417   1.234  18.445  0.00  0.00    +0.000 OA
ENDROOT
BRANCH   8  12
ATOM     12  N   UNL     1       4.786   4.922  16.798  0.00  0.00    +0.000 N 
ATOM     13  C   UNL     1       5.422   5.860  16.011  0.00  0.00    +0.000 C 
ATOM     14  O   UNL     1       4.896   6.928  15.717  0.00  0.00    +0.000 OA
ATOM     15  H   UNL     1       5.336   4.127  17.096  0.00  0.00    +0.000 HD
BRANCH  13  16
ATOM     16  C   UNL     1       6.795   5.449  15.501  0.00  0.00    +0.000 C 
BRANCH  16  17
ATOM     17  C   UNL     1       6.775   4.813  14.133  0.00  0.00    +0.000 A 
ATOM     18  C   UNL     1       5.811   3.850  13.803  0.00  0.00    +0.000 A 
ATOM     19  C   UNL     1       5.787   3.281  12.527  0.00  0.00    +0.000 A 
ATOM     20  C   UNL     1       6.717   3.673  11.566  0.00  0.00    +0.000 A 
ATOM     21  C   UNL     1       7.666   4.644  11.879  0.00  0.00    +0.000 A 
ATOM     22  C   UNL     1       7.693   5.214  13.152  0.00  0.00    +0.000 A 
ENDBRANCH  16  17
ENDBRANCH  13  16
ENDBRANCH   8  12
BRANCH   4  23
ATOM     23  C   UNL     1       1.508   3.254  20.903  0.00  0.00    +0.000 C 
ATOM     24  O   UNL     1       1.374   2.900  22.069  0.00  0.00    +0.000 OA
BRANCH  23  25
ATOM     25  OXT UNL     1       0.461   3.202  20.045  0.00  0.00    +0.000 OA
ATOM     26  HXT UNL     1       0.433   3.907  19.371  0.00  0.00    +0.000 HD
ENDBRANCH  23  25
ENDBRANCH   4  23
TORSDOF 5
ENDMDL
