MODEL 1
REMARK VINA RESULT:      -7.7      0.000      0.000
REMARK  Name = 
REMARK  6 active torsions:
REMARK  status: ('A' for Active; 'I' for Inactive)
REMARK    1  A    between atoms: C_2  and  C_3
REMARK    2  A    between atoms: C_3  and  C_4
REMARK    3  A    between atoms: C_7  and  O_8
REMARK    4  A    between atoms: O_8  and  C_9
REMARK    5  A    between atoms: C_9  and  C_10
REMARK    6  A    between atoms: C_13  and  C_14
REMARK                            x       y       z     vdW  Elec       q    Type
REMARK                         _______ _______ _______ _____ _____    ______ ____
ROOT
ATOM      1  C   UNL     1       7.121   5.845  17.789  0.00  0.00    +0.000 A 
ATOM      2  C   UNL     1       8.005   6.075  18.842  0.00  0.00    +0.000 A 
ATOM      3  C   UNL     1       8.511   7.359  19.066  0.00  0.00    +0.000 A 
ATOM      4  C   UNL     1       8.164   8.446  18.243  0.00  0.00    +0.000 A 
ATOM      5  C   UNL     1       7.296   8.186  17.166  0.00  0.00    +0.000 A 
ATOM      6  C   UNL     1       6.776   6.908  16.947  0.00  0.00    +0.000 A 
ENDROOT
BRANCH   4   7
ATOM      7  C   UNL     1       8.662   9.812  18.527  0.00  0.00    +0.000 A 
ATOM      8  C   UNL     1       8.413  10.883  17.648  0.00  0.00    +0.000 A 
ATOM      9  C   UNL     1       8.940  12.154  17.877  0.00  0.00    +0.000 A 
ATOM     10  C   UNL     1       9.716  12.394  19.004  0.00  0.00    +0.000 A 
ATOM     11  C   UNL     1       9.962  11.362  19.906  0.00  0.00    +0.000 A 
ATOM     12  C   UNL     1       9.444  10.085  19.665  0.00  0.00    +0.000 A 
ENDBRANCH   4   7
BRANCH   1  13
ATOM     13  C   UNL     1       6.530   4.479  17.563  0.00  0.00    +0.000 C 
BRANCH  13  14
ATOM     14  O   UNL     1       5.366   4.649  16.759  0.00  0.00    +0.000 OA
BRANCH  14  18
ATOM     15  C   UNL     1       1.864   3.830  18.847  0.00  0.00    +0.000 A 
ATOM     16  C   UNL     1       2.775   2.823  18.507  0.00  0.00    +0.000 A 
ATOM     17  C   UNL     1       3.928   3.138  17.791  0.00  0.00    +0.000 A 
ATOM     18  C   UNL     1       4.174   4.453  17.394  0.00  0.00    +0.000 A 
ATOM     19  C   UNL     1       3.263   5.457  17.717  0.00  0.00    +0.000 A 
ATOM     20  C   UNL     1       2.112   5.148  18.439  0.00  0.00    +0.000 A 
BRANCH  15  21
ATOM     21  C   UNL     1       0.727   3.537  19.789  0.00  0.00    +0.000 C 
BRANCH  21  23
ATOM     22  N   UNL     1       1.777   2.463  22.129  0.00  0.00    +0.000 NA
ATOM     23  C   UNL     1       1.301   2.950  21.068  0.00  0.00    +0.000 C 
ENDBRANCH  21  23
ENDBRANCH  15  21
ENDBRANCH  14  18
ENDBRANCH  13  14
ENDBRANCH   1  13
TORSDOF 6
ENDMDL
MODEL 2
REMARK VINA RESULT:      -7.6      0.831      1.575
REMARK  Name = 
REMARK  6 active torsions:
REMARK  status: ('A' for Active; 'I' for Inactive)
REMARK    1  A    between atoms: C_2  and  C_3
REMARK    2  A    between atoms: C_3  and  C_4
REMARK    3  A    between atoms: C_7  and  O_8
REMARK    4  A    between atoms: O_8  and  C_9
REMARK    5  A    between atoms: C_9  and  C_10
REMARK    6  A    between atoms: C_13  and  C_14
REMARK                            x       y       z     vdW  Elec       q    Type
REMARK                         _______ _______ _______ _____ _____    ______ ____
ROOT
ATOM      1  C   UNL     1       7.017   6.566  17.628  0.00  0.00    +0.000 A 
ATOM      2  C   UNL     1       6.799   7.797  17.010  0.00  0.00    +0.000 A 
ATOM      3  C   UNL     1       7.503   8.929  17.433  0.00  0.00    +0.000 A 
ATOM      4  C   UNL     1       8.432   8.873  18.488  0.00  0.00    +0.000 A 
ATOM      5  C   UNL     1       8.614   7.628  19.119  0.00  0.00    +0.000 A 
ATOM      6  C   UNL     1       7.924   6.490  18.691  0.00  0.00    +0.000 A 
ENDROOT
BRANCH   4   7
ATOM      7  C   UNL     1       9.212  10.067  18.886  0.00  0.00    +0.000 A 
ATOM      8  C   UNL     1       9.324  10.456  20.234  0.00  0.00    +0.000 A 
ATOM      9  C   UNL     1       9.998  11.619  20.607  0.00  0.00    +0.000 A 
ATOM     10  C   UNL     1      10.598  12.416  19.639  0.00  0.00    +0.000 A 
ATOM     11  C   UNL     1      10.525  12.048  18.299  0.00  0.00    +0.000 A 
ATOM     12  C   UNL     1       9.835  10.889  17.929  0.00  0.00    +0.000 A 
ENDBRANCH   4   7
BRANCH   1  13
ATOM     13  C   UNL     1       6.304   5.329  17.154  0.00  0.00    +0.000 C 
BRANCH  13  14
ATOM     14  O   UNL     1       5.025   5.734  16.672  0.00  0.00    +0.000 OA
BRANCH  14  18
ATOM     15  C   UNL     1       1.925   3.601  18.440  0.00  0.00    +0.000 A 
ATOM     16  C   UNL     1       2.863   2.985  17.603  0.00  0.00    +0.000 A 
ATOM     17  C   UNL     1       3.877   3.740  17.016  0.00  0.00    +0.000 A 
ATOM     18  C   UNL     1       3.953   5.115  17.245  0.00  0.00    +0.000 A 
ATOM     19  C   UNL     1       3.012   5.736  18.064  0.00  0.00    +0.000 A 
ATOM     20  C   UNL     1       2.001   4.983  18.659  0.00  0.00    +0.000 A 
BRANCH  15  21
ATOM     21  C   UNL     1       0.956   2.767  19.235  0.00  0.00    +0.000 C 
BRANCH  21  23
ATOM     22  N   UNL     1       1.711   2.854  21.910  0.00  0.00    +0.000 NA
ATOM     23  C   UNL     1       1.368   2.814  20.697  0.00  0.00    +0.000 C 
ENDBRANCH  21  23
ENDBRANCH  15  21
ENDBRANCH  14  18
ENDBRANCH  13  14
ENDBRANCH   1  13
TORSDOF 6
ENDMDL
MODEL 3
REMARK VINA RESULT:      -7.4      4.379      6.593
REMARK  Name = 
REMARK  6 active torsions:
REMARK  status: ('A' for Active; 'I' for Inactive)
REMARK    1  A    between atoms: C_2  and  C_3
REMARK    2  A    between atoms: C_3  and  C_4
REMARK    3  A    between atoms: C_7  and  O_8
REMARK    4  A    between atoms: O_8  and  C_9
REMARK    5  A    between atoms: C_9  and  C_10
REMARK    6  A    between atoms: C_13  and  C_14
REMARK                            x       y       z     vdW  Elec       q    Type
REMARK                         _______ _______ _______ _____ _____    ______ ____
ROOT
ATOM      1  C   UNL     1       4.778   5.227  18.347  0.00  0.00    +0.000 A 
ATOM      2  C   UNL     1       5.834   5.992  17.852  0.00  0.00    +0.000 A 
ATOM      3  C   UNL     1       6.340   5.744  16.573  0.00  0.00    +0.000 A 
ATOM      4  C   UNL     1       5.822   4.722  15.756  0.00  0.00    +0.000 A 
ATOM      5  C   UNL     1       4.779   3.941  16.287  0.00  0.00    +0.000 A 
ATOM      6  C   UNL     1       4.259   4.194  17.560  0.00  0.00    +0.000 A 
ENDROOT
BRANCH   4   7
ATOM      7  C   UNL     1       6.330   4.508  14.381  0.00  0.00    +0.000 A 
ATOM      8  C   UNL     1       7.428   5.234  13.882  0.00  0.00    +0.000 A 
ATOM      9  C   UNL     1       7.864   5.086  12.565  0.00  0.00    +0.000 A 
ATOM     10  C   UNL     1       7.225   4.192  11.715  0.00  0.00    +0.000 A 
ATOM     11  C   UNL     1       6.150   3.442  12.185  0.00  0.00    +0.000 A 
ATOM     12  C   UNL     1       5.706   3.605  13.501  0.00  0.00    +0.000 A 
ENDBRANCH   4   7
BRANCH   1  13
ATOM     13  C   UNL     1       4.190   5.512  19.703  0.00  0.00    +0.000 C 
BRANCH  13  14
ATOM     14  O   UNL     1       2.779   5.627  19.538  0.00  0.00    +0.000 OA
BRANCH  14  18
ATOM     15  C   UNL     1       1.217   9.442  19.000  0.00  0.00    +0.000 A 
ATOM     16  C   UNL     1       1.796   8.725  17.946  0.00  0.00    +0.000 A 
ATOM     17  C   UNL     1       2.324   7.456  18.173  0.00  0.00    +0.000 A 
ATOM     18  C   UNL     1       2.295   6.899  19.453  0.00  0.00    +0.000 A 
ATOM     19  C   UNL     1       1.733   7.616  20.509  0.00  0.00    +0.000 A 
ATOM     20  C   UNL     1       1.198   8.882  20.285  0.00  0.00    +0.000 A 
BRANCH  15  21
ATOM     21  C   UNL     1       0.466  10.718  18.725  0.00  0.00    +0.000 C 
BRANCH  21  23
ATOM     22  N   UNL     1      -2.058  10.065  17.760  0.00  0.00    +0.000 NA
ATOM     23  C   UNL     1      -0.913  10.361  18.198  0.00  0.00    +0.000 C 
ENDBRANCH  21  23
ENDBRANCH  15  21
ENDBRANCH  14  18
ENDBRANCH  13  14
ENDBRANCH   1  13
TORSDOF 6
ENDMDL
MODEL 4
REMARK VINA RESULT:      -7.3      4.682      7.196
REMARK  Name = 
REMARK  6 active torsions:
REMARK  status: ('A' for Active; 'I' for Inactive)
REMARK    1  A    between atoms: C_2  and  C_3
REMARK    2  A    between atoms: C_3  and  C_4
REMARK    3  A    between atoms: C_7  and  O_8
REMARK    4  A    between atoms: O_8  and  C_9
REMARK    5  A    between atoms: C_9  and  C_10
REMARK    6  A    between atoms: C_13  and  C_14
REMARK                            x       y       z     vdW  Elec       q    Type
REMARK                         _______ _______ _______ _____ _____    ______ ____
ROOT
ATOM      1  C   UNL     1       2.664   5.399  19.468  0.00  0.00    +0.000 A 
ATOM      2  C   UNL     1       1.900   5.322  20.632  0.00  0.00    +0.000 A 
ATOM      3  C   UNL     1       1.271   6.464  21.136  0.00  0.00    +0.000 A 
ATOM      4  C   UNL     1       1.394   7.716  20.506  0.00  0.00    +0.000 A 
ATOM      5  C   UNL     1       2.196   7.779  19.352  0.00  0.00    +0.000 A 
ATOM      6  C   UNL     1       2.815   6.637  18.835  0.00  0.00    +0.000 A 
ENDROOT
BRANCH   4   7
ATOM      7  C   UNL     1       0.676   8.906  21.019  0.00  0.00    +0.000 A 
ATOM      8  C   UNL     1       0.430  10.025  20.201  0.00  0.00    +0.000 A 
ATOM      9  C   UNL     1      -0.183  11.174  20.700  0.00  0.00    +0.000 A 
ATOM     10  C   UNL     1      -0.587  11.228  22.028  0.00  0.00    +0.000 A 
ATOM     11  C   UNL     1      -0.380  10.129  22.858  0.00  0.00    +0.000 A 
ATOM     12  C   UNL     1       0.249   8.985  22.357  0.00  0.00    +0.000 A 
ENDBRANCH   4   7
BRANCH   1  13
ATOM     13  C   UNL     1       3.308   4.169  18.886  0.00  0.00    +0.000 C 
BRANCH  13  14
ATOM     14  O   UNL     1       4.720   4.344  18.981  0.00  0.00    +0.000 OA
BRANCH  14  18
ATOM     15  C   UNL     1       6.529   4.462  15.239  0.00  0.00    +0.000 A 
ATOM     16  C   UNL     1       5.177   4.134  15.397  0.00  0.00    +0.000 A 
ATOM     17  C   UNL     1       4.614   4.089  16.671  0.00  0.00    +0.000 A 
ATOM     18  C   UNL     1       5.396   4.353  17.797  0.00  0.00    +0.000 A 
ATOM     19  C   UNL     1       6.746   4.665  17.646  0.00  0.00    +0.000 A 
ATOM     20  C   UNL     1       7.311   4.718  16.374  0.00  0.00    +0.000 A 
BRANCH  15  21
ATOM     21  C   UNL     1       7.092   4.712  13.866  0.00  0.00    +0.000 C 
BRANCH  21  23
ATOM     22  N   UNL     1       5.813   3.019  12.069  0.00  0.00    +0.000 NA
ATOM     23  C   UNL     1       6.393   3.787  12.884  0.00  0.00    +0.000 C 
ENDBRANCH  21  23
ENDBRANCH  15  21
ENDBRANCH  14  18
ENDBRANCH  13  14
ENDBRANCH   1  13
TORSDOF 6
ENDMDL
MODEL 5
REMARK VINA RESULT:      -7.3      4.708      7.026
REMARK  Name = 
REMARK  6 active torsions:
REMARK  status: ('A' for Active; 'I' for Inactive)
REMARK    1  A    between atoms: C_2  and  C_3
REMARK    2  A    between atoms: C_3  and  C_4
REMARK    3  A    between atoms: C_7  and  O_8
REMARK    4  A    between atoms: O_8  and  C_9
REMARK    5  A    between atoms: C_9  and  C_10
REMARK    6  A    between atoms: C_13  and  C_14
REMARK                            x       y       z     vdW  Elec       q    Type
REMARK                         _______ _______ _______ _____ _____    ______ ____
ROOT
ATOM      1  C   UNL     1       4.332   5.564  18.139  0.00  0.00    +0.000 A 
ATOM      2  C   UNL     1       4.881   6.549  17.319  0.00  0.00    +0.000 A 
ATOM      3  C   UNL     1       5.456   6.200  16.093  0.00  0.00    +0.000 A 
ATOM      4  C   UNL     1       5.515   4.865  15.654  0.00  0.00    +0.000 A 
ATOM      5  C   UNL     1       4.985   3.883  16.512  0.00  0.00    +0.000 A 
ATOM      6  C   UNL     1       4.395   4.228  17.732  0.00  0.00    +0.000 A 
ENDROOT
BRANCH   4   7
ATOM      7  C   UNL     1       6.075   4.517  14.328  0.00  0.00    +0.000 A 
ATOM      8  C   UNL     1       7.247   5.128  13.843  0.00  0.00    +0.000 A 
ATOM      9  C   UNL     1       7.738   4.856  12.566  0.00  0.00    +0.000 A 
ATOM     10  C   UNL     1       7.080   3.947  11.745  0.00  0.00    +0.000 A 
ATOM     11  C   UNL     1       5.932   3.308  12.205  0.00  0.00    +0.000 A 
ATOM     12  C   UNL     1       5.434   3.596  13.480  0.00  0.00    +0.000 A 
ENDBRANCH   4   7
BRANCH   1  13
ATOM     13  C   UNL     1       3.666   5.927  19.439  0.00  0.00    +0.000 C 
BRANCH  13  14
ATOM     14  O   UNL     1       2.303   6.222  19.150  0.00  0.00    +0.000 OA
BRANCH  14  18
ATOM     15  C   UNL     1       1.056  10.182  19.387  0.00  0.00    +0.000 A 
ATOM     16  C   UNL     1       1.499   9.617  18.185  0.00  0.00    +0.000 A 
ATOM     17  C   UNL     1       1.925   8.291  18.153  0.00  0.00    +0.000 A 
ATOM     18  C   UNL     1       1.929   7.524  19.319  0.00  0.00    +0.000 A 
ATOM     19  C   UNL     1       1.504   8.086  20.521  0.00  0.00    +0.000 A 
ATOM     20  C   UNL     1       1.070   9.410  20.557  0.00  0.00    +0.000 A 
BRANCH  15  21
ATOM     21  C   UNL     1       0.406  11.540  19.392  0.00  0.00    +0.000 C 
BRANCH  21  23
ATOM     22  N   UNL     1       1.675  13.116  21.299  0.00  0.00    +0.000 NA
ATOM     23  C   UNL     1       1.100  12.401  20.434  0.00  0.00    +0.000 C 
ENDBRANCH  21  23
ENDBRANCH  15  21
ENDBRANCH  14  18
ENDBRANCH  13  14
ENDBRANCH   1  13
TORSDOF 6
ENDMDL
MODEL 6
REMARK VINA RESULT:      -7.3      4.421      6.687
REMARK  Name = 
REMARK  6 active torsions:
REMARK  status: ('A' for Active; 'I' for Inactive)
REMARK    1  A    between atoms: C_2  and  C_3
REMARK    2  A    between atoms: C_3  and  C_4
REMARK    3  A    between atoms: C_7  and  O_8
REMARK    4  A    between atoms: O_8  and  C_9
REMARK    5  A    between atoms: C_9  and  C_10
REMARK    6  A    between atoms: C_13  and  C_14
REMARK                            x       y       z     vdW  Elec       q    Type
REMARK                         _______ _______ _______ _____ _____    ______ ____
ROOT
ATOM      1  C   UNL     1       4.614   5.287  18.293  0.00  0.00    +0.000 A 
ATOM      2  C   UNL     1       5.592   6.125  17.760  0.00  0.00    +0.000 A 
ATOM      3  C   UNL     1       6.107   5.879  16.484  0.00  0.00    +0.000 A 
ATOM      4  C   UNL     1       5.676   4.788  15.708  0.00  0.00    +0.000 A 
ATOM      5  C   UNL     1       4.711   3.936  16.278  0.00  0.00    +0.000 A 
ATOM      6  C   UNL     1       4.182   4.186  17.547  0.00  0.00    +0.000 A 
ENDROOT
BRANCH   4   7
ATOM      7  C   UNL     1       6.188   4.573  14.335  0.00  0.00    +0.000 A 
ATOM      8  C   UNL     1       5.611   3.619  13.476  0.00  0.00    +0.000 A 
ATOM      9  C   UNL     1       6.135   3.365  12.208  0.00  0.00    +0.000 A 
ATOM     10  C   UNL     1       7.242   4.074  11.757  0.00  0.00    +0.000 A 
ATOM     11  C   UNL     1       7.822   5.040  12.573  0.00  0.00    +0.000 A 
ATOM     12  C   UNL     1       7.303   5.281  13.849  0.00  0.00    +0.000 A 
ENDBRANCH   4   7
BRANCH   1  13
ATOM     13  C   UNL     1       4.015   5.565  19.646  0.00  0.00    +0.000 C 
BRANCH  13  14
ATOM     14  O   UNL     1       2.609   5.713  19.464  0.00  0.00    +0.000 OA
BRANCH  14  18
ATOM     15  C   UNL     1       1.351   9.659  19.098  0.00  0.00    +0.000 A 
ATOM     16  C   UNL     1       1.273   8.968  20.313  0.00  0.00    +0.000 A 
ATOM     17  C   UNL     1       1.689   7.640  20.388  0.00  0.00    +0.000 A 
ATOM     18  C   UNL     1       2.169   6.987  19.252  0.00  0.00    +0.000 A 
ATOM     19  C   UNL     1       2.234   7.665  18.037  0.00  0.00    +0.000 A 
ATOM     20  C   UNL     1       1.826   8.995  17.959  0.00  0.00    +0.000 A 
BRANCH  15  21
ATOM     21  C   UNL     1       1.098  11.143  19.053  0.00  0.00    +0.000 C 
BRANCH  21  23
ATOM     22  N   UNL     1       0.450  12.002  21.616  0.00  0.00    +0.000 NA
ATOM     23  C   UNL     1       0.744  11.613  20.454  0.00  0.00    +0.000 C 
ENDBRANCH  21  23
ENDBRANCH  15  21
ENDBRANCH  14  18
ENDBRANCH  13  14
ENDBRANCH   1  13
TORSDOF 6
ENDMDL
MODEL 7
REMARK VINA RESULT:      -7.2      3.949      9.420
REMARK  Name = 
REMARK  6 active torsions:
REMARK  status: ('A' for Active; 'I' for Inactive)
REMARK    1  A    between atoms: C_2  and  C_3
REMARK    2  A    between atoms: C_3  and  C_4
REMARK    3  A    between atoms: C_7  and  O_8
REMARK    4  A    between atoms: O_8  and  C_9
REMARK    5  A    between atoms: C_9  and  C_10
REMARK    6  A    between atoms: C_13  and  C_14
REMARK                            x       y       z     vdW  Elec       q    Type
REMARK                         _______ _______ _______ _____ _____    ______ ____
ROOT
ATOM      1  C   UNL     1       7.286   7.466  17.816  0.00  0.00    +0.000 A 
ATOM      2  C   UNL     1       7.627   6.355  18.585  0.00  0.00    +0.000 A 
ATOM      3  C   UNL     1       6.740   5.281  18.699  0.00  0.00    +0.000 A 
ATOM      4  C   UNL     1       5.484   5.285  18.064  0.00  0.00    +0.000 A 
ATOM      5  C   UNL     1       5.146   6.430  17.318  0.00  0.00    +0.000 A 
ATOM      6  C   UNL     1       6.036   7.500  17.189  0.00  0.00    +0.000 A 
ENDROOT
BRANCH   4   7
ATOM      7  C   UNL     1       4.579   4.116  18.147  0.00  0.00    +0.000 A 
ATOM      8  C   UNL     1       3.593   3.880  17.170  0.00  0.00    +0.000 A 
ATOM      9  C   UNL     1       2.692   2.820  17.282  0.00  0.00    +0.000 A 
ATOM     10  C   UNL     1       2.767   1.954  18.366  0.00  0.00    +0.000 A 
ATOM     11  C   UNL     1       3.745   2.147  19.337  0.00  0.00    +0.000 A 
ATOM     12  C   UNL     1       4.636   3.219  19.229  0.00  0.00    +0.000 A 
ENDBRANCH   4   7
BRANCH   1  13
ATOM     13  C   UNL     1       8.249   8.609  17.643  0.00  0.00    +0.000 C 
BRANCH  13  14
ATOM     14  O   UNL     1       8.819   8.880  18.921  0.00  0.00    +0.000 OA
BRANCH  14  18
ATOM     15  C   UNL     1      10.027  12.845  19.255  0.00  0.00    +0.000 A 
ATOM     16  C   UNL     1       9.873  12.221  18.011  0.00  0.00    +0.000 A 
ATOM     17  C   UNL     1       9.483  10.885  17.944  0.00  0.00    +0.000 A 
ATOM     18  C   UNL     1       9.261  10.156  19.114  0.00  0.00    +0.000 A 
ATOM     19  C   UNL     1       9.428  10.768  20.355  0.00  0.00    +0.000 A 
ATOM     20  C   UNL     1       9.810  12.106  20.427  0.00  0.00    +0.000 A 
BRANCH  15  21
ATOM     21  C   UNL     1      10.246  14.332  19.335  0.00  0.00    +0.000 C 
BRANCH  21  23
ATOM     22  N   UNL     1      11.175  15.217  16.868  0.00  0.00    +0.000 NA
ATOM     23  C   UNL     1      10.754  14.816  17.987  0.00  0.00    +0.000 C 
ENDBRANCH  21  23
ENDBRANCH  15  21
ENDBRANCH  14  18
ENDBRANCH  13  14
ENDBRANCH   1  13
TORSDOF 6
ENDMDL
MODEL 8
REMARK VINA RESULT:      -7.2      4.805      7.018
REMARK  Name = 
REMARK  6 active torsions:
REMARK  status: ('A' for Active; 'I' for Inactive)
REMARK    1  A    between atoms: C_2  and  C_3
REMARK    2  A    between atoms: C_3  and  C_4
REMARK    3  A    between atoms: C_7  and  O_8
REMARK    4  A    between atoms: O_8  and  C_9
REMARK    5  A    between atoms: C_9  and  C_10
REMARK    6  A    between atoms: C_13  and  C_14
REMARK                            x       y       z     vdW  Elec       q    Type
REMARK                         _______ _______ _______ _____ _____    ______ ____
ROOT
ATOM      1  C   UNL     1       3.506   5.570  18.021  0.00  0.00    +0.000 A 
ATOM      2  C   UNL     1       4.323   6.525  17.418  0.00  0.00    +0.000 A 
ATOM      3  C   UNL     1       5.081   6.190  16.292  0.00  0.00    +0.000 A 
ATOM      4  C   UNL     1       5.059   4.895  15.742  0.00  0.00    +0.000 A 
ATOM      5  C   UNL     1       4.252   3.938  16.384  0.00  0.00    +0.000 A 
ATOM      6  C   UNL     1       3.480   4.272  17.501  0.00  0.00    +0.000 A 
ENDROOT
BRANCH   4   7
ATOM      7  C   UNL     1       5.822   4.571  14.515  0.00  0.00    +0.000 A 
ATOM      8  C   UNL     1       7.047   5.200  14.223  0.00  0.00    +0.000 A 
ATOM      9  C   UNL     1       7.734   4.949  13.035  0.00  0.00    +0.000 A 
ATOM     10  C   UNL     1       7.223   4.043  12.113  0.00  0.00    +0.000 A 
ATOM     11  C   UNL     1       6.025   3.386  12.382  0.00  0.00    +0.000 A 
ATOM     12  C   UNL     1       5.332   3.653  13.568  0.00  0.00    +0.000 A 
ENDBRANCH   4   7
BRANCH   1  13
ATOM     13  C   UNL     1       2.647   5.927  19.204  0.00  0.00    +0.000 C 
BRANCH  13  14
ATOM     14  O   UNL     1       2.998   7.250  19.599  0.00  0.00    +0.000 OA
BRANCH  14  18
ATOM     15  C   UNL     1      -0.125   9.965  19.184  0.00  0.00    +0.000 A 
ATOM     16  C   UNL     1       0.709   9.628  18.112  0.00  0.00    +0.000 A 
ATOM     17  C   UNL     1       1.756   8.727  18.298  0.00  0.00    +0.000 A 
ATOM     18  C   UNL     1       1.989   8.168  19.556  0.00  0.00    +0.000 A 
ATOM     19  C   UNL     1       1.171   8.512  20.631  0.00  0.00    +0.000 A 
ATOM     20  C   UNL     1       0.119   9.407  20.447  0.00  0.00    +0.000 A 
BRANCH  15  21
ATOM     21  C   UNL     1      -1.373  10.773  18.948  0.00  0.00    +0.000 C 
BRANCH  21  23
ATOM     22  N   UNL     1      -2.554   9.897  16.588  0.00  0.00    +0.000 NA
ATOM     23  C   UNL     1      -2.019  10.294  17.659  0.00  0.00    +0.000 C 
ENDBRANCH  21  23
ENDBRANCH  15  21
ENDBRANCH  14  18
ENDBRANCH  13  14
ENDBRANCH   1  13
TORSDOF 6
ENDMDL
MODEL 9
REMARK VINA RESULT:      -7.2      4.762      7.054
REMARK  Name = 
REMARK  6 active torsions:
REMARK  status: ('A' for Active; 'I' for Inactive)
REMARK    1  A    between atoms: C_2  and  C_3
REMARK    2  A    between atoms: C_3  and  C_4
REMARK    3  A    between atoms: C_7  and  O_8
REMARK    4  A    between atoms: O_8  and  C_9
REMARK    5  A    between atoms: C_9  and  C_10
REMARK    6  A    between atoms: C_13  and  C_14
REMARK                            x       y       z     vdW  Elec       q    Type
REMARK                         _______ _______ _______ _____ _____    ______ ____
ROOT
ATOM      1  C   UNL     1       4.226   5.648  18.096  0.00  0.00    +0.000 A 
ATOM      2  C   UNL     1       4.220   4.319  17.676  0.00  0.00    +0.000 A 
ATOM      3  C   UNL     1       4.771   3.971  16.439  0.00  0.00    +0.000 A 
ATOM      4  C   UNL     1       5.330   4.934  15.579  0.00  0.00    +0.000 A 
ATOM      5  C   UNL     1       5.296   6.274  16.007  0.00  0.00    +0.000 A 
ATOM      6  C   UNL     1       4.760   6.626  17.250  0.00  0.00    +0.000 A 
ENDROOT
BRANCH   4   7
ATOM      7  C   UNL     1       5.961   4.544  14.298  0.00  0.00    +0.000 A 
ATOM      8  C   UNL     1       7.182   5.104  13.879  0.00  0.00    +0.000 A 
ATOM      9  C   UNL     1       7.744   4.792  12.641  0.00  0.00    +0.000 A 
ATOM     10  C   UNL     1       7.107   3.892  11.794  0.00  0.00    +0.000 A 
ATOM     11  C   UNL     1       5.910   3.302  12.188  0.00  0.00    +0.000 A 
ATOM     12  C   UNL     1       5.343   3.630  13.424  0.00  0.00    +0.000 A 
ENDBRANCH   4   7
BRANCH   1  13
ATOM     13  C   UNL     1       3.681   6.033  19.445  0.00  0.00    +0.000 C 
BRANCH  13  14
ATOM     14  O   UNL     1       2.286   6.278  19.285  0.00  0.00    +0.000 OA
BRANCH  14  18
ATOM     15  C   UNL     1       0.945  10.198  19.631  0.00  0.00    +0.000 A 
ATOM     16  C   UNL     1       1.381   9.671  18.409  0.00  0.00    +0.000 A 
ATOM     17  C   UNL     1       1.839   8.357  18.341  0.00  0.00    +0.000 A 
ATOM     18  C   UNL     1       1.883   7.565  19.489  0.00  0.00    +0.000 A 
ATOM     19  C   UNL     1       1.465   8.090  20.711  0.00  0.00    +0.000 A 
ATOM     20  C   UNL     1       0.999   9.401  20.783  0.00  0.00    +0.000 A 
BRANCH  15  21
ATOM     21  C   UNL     1       0.262  11.539  19.676  0.00  0.00    +0.000 C 
BRANCH  21  23
ATOM     22  N   UNL     1       1.720  13.212  21.351  0.00  0.00    +0.000 NA
ATOM     23  C   UNL     1       1.059  12.454  20.591  0.00  0.00    +0.000 C 
ENDBRANCH  21  23
ENDBRANCH  15  21
ENDBRANCH  14  18
ENDBRANCH  13  14
ENDBRANCH   1  13
TORSDOF 6
ENDMDL
