MODEL 1
REMARK VINA RESULT:      -8.6      0.000      0.000
REMARK  Name = 
REMARK  4 active torsions:
REMARK  status: ('A' for Active; 'I' for Inactive)
REMARK    1  A    between atoms: C_1  and  C_2
REMARK    2  A    between atoms: C_2  and  C_3
REMARK    3  A    between atoms: C_3  and  C_4
REMARK    4  A    between atoms: C_12  and  C_13
REMARK                            x       y       z     vdW  Elec       q    Type
REMARK                         _______ _______ _______ _____ _____    ______ ____
ROOT
ATOM      1  C   UNL     1       6.139   3.359  12.517  0.00  0.00    +0.000 C 
ATOM      2  O   UNL     1       4.953   3.666  12.601  0.00  0.00    +0.000 OA
ATOM      3  N   UNL     1       7.143   3.750  13.376  0.00  0.00    +0.000 N 
ATOM      4  C   UNL     1       6.886   4.522  14.484  0.00  0.00    +0.000 A 
ATOM      5  N   UNL     1       7.729   5.507  14.796  0.00  0.00    +0.000 NA
ATOM      6  N   UNL     1       7.120   6.125  15.823  0.00  0.00    +0.000 N 
ATOM      7  C   UNL     1       6.015   5.471  16.298  0.00  0.00    +0.000 A 
ATOM      8  C   UNL     1       5.173   5.729  17.389  0.00  0.00    +0.000 A 
ATOM      9  C   UNL     1       4.119   4.831  17.662  0.00  0.00    +0.000 A 
ATOM     10  C   UNL     1       3.959   3.719  16.812  0.00  0.00    +0.000 A 
ATOM     11  C   UNL     1       4.797   3.490  15.708  0.00  0.00    +0.000 A 
ATOM     12  C   UNL     1       5.839   4.394  15.441  0.00  0.00    +0.000 A 
ATOM     13  H   UNL     1       8.073   3.876  13.002  0.00  0.00    +0.000 HD
ATOM     14  H   UNL     1       7.527   6.983  16.175  0.00  0.00    +0.000 HD
ENDROOT
BRANCH   9  15
ATOM     15  C   UNL     1       3.212   5.045  18.818  0.00  0.00    +0.000 A 
ATOM     16  C   UNL     1       2.725   3.961  19.572  0.00  0.00    +0.000 A 
ATOM     17  C   UNL     1       1.866   4.170  20.661  0.00  0.00    +0.000 A 
ATOM     18 CL   UNL     1       1.276   2.810  21.543  0.00  0.00    +0.000 Cl
ATOM     19  C   UNL     1       1.486   5.448  21.040  0.00  0.00    +0.000 A 
ATOM     20  C   UNL     1       1.968   6.530  20.312  0.00  0.00    +0.000 A 
ATOM     21 CL   UNL     1       1.521   8.128  20.768  0.00  0.00    +0.000 Cl
ATOM     22  C   UNL     1       2.808   6.334  19.211  0.00  0.00    +0.000 A 
ENDBRANCH   9  15
BRANCH   1  23
ATOM     23  C   UNL     1       6.631   2.465  11.400  0.00  0.00    +0.000 C 
BRANCH  23  25
ATOM     24  C   UNL     1       6.251  -0.024  11.336  0.00  0.00    +0.000 C 
ATOM     25  C   UNL     1       5.623   1.348  11.167  0.00  0.00    +0.000 C 
ENDBRANCH  23  25
ENDBRANCH   1  23
TORSDOF 3
ENDMDL
MODEL 2
REMARK VINA RESULT:      -8.6      3.037      4.773
REMARK  Name = 
REMARK  4 active torsions:
REMARK  status: ('A' for Active; 'I' for Inactive)
REMARK    1  A    between atoms: C_1  and  C_2
REMARK    2  A    between atoms: C_2  and  C_3
REMARK    3  A    between atoms: C_3  and  C_4
REMARK    4  A    between atoms: C_12  and  C_13
REMARK                            x       y       z     vdW  Elec       q    Type
REMARK                         _______ _______ _______ _____ _____    ______ ____
ROOT
ATOM      1  C   UNL     1       6.270   5.263  15.909  0.00  0.00    +0.000 C 
ATOM      2  O   UNL     1       6.501   6.380  16.363  0.00  0.00    +0.000 OA
ATOM      3  N   UNL     1       5.392   4.338  16.432  0.00  0.00    +0.000 N 
ATOM      4  C   UNL     1       4.626   4.615  17.539  0.00  0.00    +0.000 A 
ATOM      5  N   UNL     1       4.465   3.670  18.467  0.00  0.00    +0.000 NA
ATOM      6  N   UNL     1       3.796   4.304  19.446  0.00  0.00    +0.000 N 
ATOM      7  C   UNL     1       3.364   5.559  19.109  0.00  0.00    +0.000 A 
ATOM      8  C   UNL     1       2.572   6.490  19.797  0.00  0.00    +0.000 A 
ATOM      9  C   UNL     1       2.249   7.708  19.161  0.00  0.00    +0.000 A 
ATOM     10  C   UNL     1       2.751   7.932  17.864  0.00  0.00    +0.000 A 
ATOM     11  C   UNL     1       3.564   6.998  17.201  0.00  0.00    +0.000 A 
ATOM     12  C   UNL     1       3.886   5.792  17.845  0.00  0.00    +0.000 A 
ATOM     13  H   UNL     1       5.607   3.357  16.324  0.00  0.00    +0.000 HD
ATOM     14  H   UNL     1       3.641   3.812  20.317  0.00  0.00    +0.000 HD
ENDROOT
BRANCH   9  15
ATOM     15  C   UNL     1       1.396   8.720  19.835  0.00  0.00    +0.000 A 
ATOM     16  C   UNL     1       0.830   9.790  19.117  0.00  0.00    +0.000 A 
ATOM     17  C   UNL     1       0.027  10.743  19.760  0.00  0.00    +0.000 A 
ATOM     18 CL   UNL     1      -0.627  12.050  18.844  0.00  0.00    +0.000 Cl
ATOM     19  C   UNL     1      -0.249  10.651  21.115  0.00  0.00    +0.000 A 
ATOM     20  C   UNL     1       0.293   9.594  21.836  0.00  0.00    +0.000 A 
ATOM     21 CL   UNL     1      -0.043   9.450  23.518  0.00  0.00    +0.000 Cl
ATOM     22  C   UNL     1       1.113   8.648  21.211  0.00  0.00    +0.000 A 
ENDBRANCH   9  15
BRANCH   1  23
ATOM     23  C   UNL     1       6.964   4.776  14.657  0.00  0.00    +0.000 C 
BRANCH  23  25
ATOM     24  C   UNL     1       6.538   3.635  12.452  0.00  0.00    +0.000 C 
ATOM     25  C   UNL     1       5.997   3.931  13.839  0.00  0.00    +0.000 C 
ENDBRANCH  23  25
ENDBRANCH   1  23
TORSDOF 3
ENDMDL
MODEL 3
REMARK VINA RESULT:      -8.6      0.032      1.875
REMARK  Name = 
REMARK  4 active torsions:
REMARK  status: ('A' for Active; 'I' for Inactive)
REMARK    1  A    between atoms: C_1  and  C_2
REMARK    2  A    between atoms: C_2  and  C_3
REMARK    3  A    between atoms: C_3  and  C_4
REMARK    4  A    between atoms: C_12  and  C_13
REMARK                            x       y       z     vdW  Elec       q    Type
REMARK                         _______ _______ _______ _____ _____    ______ ____
ROOT
ATOM      1  C   UNL     1       6.129   3.358  12.527  0.00  0.00    +0.000 C 
ATOM      2  O   UNL     1       4.943   3.664  12.613  0.00  0.00    +0.000 OA
ATOM      3  N   UNL     1       7.134   3.754  13.381  0.00  0.00    +0.000 N 
ATOM      4  C   UNL     1       6.879   4.532  14.486  0.00  0.00    +0.000 A 
ATOM      5  N   UNL     1       7.723   5.519  14.791  0.00  0.00    +0.000 NA
ATOM      6  N   UNL     1       7.116   6.142  15.816  0.00  0.00    +0.000 N 
ATOM      7  C   UNL     1       6.013   5.490  16.297  0.00  0.00    +0.000 A 
ATOM      8  C   UNL     1       5.174   5.753  17.389  0.00  0.00    +0.000 A 
ATOM      9  C   UNL     1       4.122   4.856  17.670  0.00  0.00    +0.000 A 
ATOM     10  C   UNL     1       3.960   3.739  16.826  0.00  0.00    +0.000 A 
ATOM     11  C   UNL     1       4.795   3.505  15.721  0.00  0.00    +0.000 A 
ATOM     12  C   UNL     1       5.835   4.408  15.446  0.00  0.00    +0.000 A 
ATOM     13  H   UNL     1       8.063   3.880  13.004  0.00  0.00    +0.000 HD
ATOM     14  H   UNL     1       7.523   7.002  16.163  0.00  0.00    +0.000 HD
ENDROOT
BRANCH   9  15
ATOM     15  C   UNL     1       3.217   5.075  18.827  0.00  0.00    +0.000 A 
ATOM     16  C   UNL     1       2.818   6.370  19.205  0.00  0.00    +0.000 A 
ATOM     17  C   UNL     1       1.965   6.570  20.300  0.00  0.00    +0.000 A 
ATOM     18 CL   UNL     1       1.520   8.177  20.740  0.00  0.00    +0.000 Cl
ATOM     19  C   UNL     1       1.475   5.500  21.032  0.00  0.00    +0.000 A 
ATOM     20  C   UNL     1       1.851   4.213  20.665  0.00  0.00    +0.000 A 
ATOM     21 CL   UNL     1       1.248   2.865  21.549  0.00  0.00    +0.000 Cl
ATOM     22  C   UNL     1       2.718   4.001  19.587  0.00  0.00    +0.000 A 
ENDBRANCH   9  15
BRANCH   1  23
ATOM     23  C   UNL     1       6.618   2.459  11.414  0.00  0.00    +0.000 C 
BRANCH  23  25
ATOM     24  C   UNL     1       6.242  -0.031  11.360  0.00  0.00    +0.000 C 
ATOM     25  C   UNL     1       5.611   1.339  11.189  0.00  0.00    +0.000 C 
ENDBRANCH  23  25
ENDBRANCH   1  23
TORSDOF 3
ENDMDL
MODEL 4
REMARK VINA RESULT:      -8.5      3.055      4.559
REMARK  Name = 
REMARK  4 active torsions:
REMARK  status: ('A' for Active; 'I' for Inactive)
REMARK    1  A    between atoms: C_1  and  C_2
REMARK    2  A    between atoms: C_2  and  C_3
REMARK    3  A    between atoms: C_3  and  C_4
REMARK    4  A    between atoms: C_12  and  C_13
REMARK                            x       y       z     vdW  Elec       q    Type
REMARK                         _______ _______ _______ _____ _____    ______ ____
ROOT
ATOM      1  C   UNL     1       6.176   5.164  15.912  0.00  0.00    +0.000 C 
ATOM      2  O   UNL     1       6.414   6.294  16.328  0.00  0.00    +0.000 OA
ATOM      3  N   UNL     1       5.312   4.254  16.480  0.00  0.00    +0.000 N 
ATOM      4  C   UNL     1       4.570   4.561  17.596  0.00  0.00    +0.000 A 
ATOM      5  N   UNL     1       4.432   3.643  18.554  0.00  0.00    +0.000 NA
ATOM      6  N   UNL     1       3.784   4.304  19.529  0.00  0.00    +0.000 N 
ATOM      7  C   UNL     1       3.342   5.548  19.166  0.00  0.00    +0.000 A 
ATOM      8  C   UNL     1       2.563   6.497  19.844  0.00  0.00    +0.000 A 
ATOM      9  C   UNL     1       2.223   7.696  19.181  0.00  0.00    +0.000 A 
ATOM     10  C   UNL     1       2.695   7.883  17.866  0.00  0.00    +0.000 A 
ATOM     11  C   UNL     1       3.495   6.932  17.213  0.00  0.00    +0.000 A 
ATOM     12  C   UNL     1       3.834   5.745  17.884  0.00  0.00    +0.000 A 
ATOM     13  H   UNL     1       5.527   3.270  16.396  0.00  0.00    +0.000 HD
ATOM     14  H   UNL     1       3.649   3.838  20.417  0.00  0.00    +0.000 HD
ENDROOT
BRANCH   9  15
ATOM     15  C   UNL     1       1.383   8.725  19.844  0.00  0.00    +0.000 A 
ATOM     16  C   UNL     1       1.095   8.656  21.219  0.00  0.00    +0.000 A 
ATOM     17  C   UNL     1       0.299   9.630  21.839  0.00  0.00    +0.000 A 
ATOM     18 CL   UNL     1      -0.046   9.492  23.523  0.00  0.00    +0.000 Cl
ATOM     19  C   UNL     1      -0.213  10.700  21.121  0.00  0.00    +0.000 A 
ATOM     20  C   UNL     1       0.071  10.790  19.763  0.00  0.00    +0.000 A 
ATOM     21 CL   UNL     1      -0.542  12.113  18.851  0.00  0.00    +0.000 Cl
ATOM     22  C   UNL     1       0.847   9.812  19.129  0.00  0.00    +0.000 A 
ENDBRANCH   9  15
BRANCH   1  23
ATOM     23  C   UNL     1       6.843   4.643  14.658  0.00  0.00    +0.000 C 
BRANCH  23  25
ATOM     24  C   UNL     1       6.370   3.580  12.424  0.00  0.00    +0.000 C 
ATOM     25  C   UNL     1       5.804   3.958  13.780  0.00  0.00    +0.000 C 
ENDBRANCH  23  25
ENDBRANCH   1  23
TORSDOF 3
ENDMDL
MODEL 5
REMARK VINA RESULT:      -8.2      4.536      8.450
REMARK  Name = 
REMARK  4 active torsions:
REMARK  status: ('A' for Active; 'I' for Inactive)
REMARK    1  A    between atoms: C_1  and  C_2
REMARK    2  A    between atoms: C_2  and  C_3
REMARK    3  A    between atoms: C_3  and  C_4
REMARK    4  A    between atoms: C_12  and  C_13
REMARK                            x       y       z     vdW  Elec       q    Type
REMARK                         _______ _______ _______ _____ _____    ______ ____
ROOT
ATOM      1  C   UNL     1       1.977   7.502  20.081  0.00  0.00    +0.000 C 
ATOM      2  O   UNL     1       1.788   7.849  18.918  0.00  0.00    +0.000 OA
ATOM      3  N   UNL     1       2.475   6.287  20.496  0.00  0.00    +0.000 N 
ATOM      4  C   UNL     1       2.865   5.321  19.598  0.00  0.00    +0.000 A 
ATOM      5  N   UNL     1       2.559   4.047  19.845  0.00  0.00    +0.000 NA
ATOM      6  N   UNL     1       2.958   3.408  18.731  0.00  0.00    +0.000 N 
ATOM      7  C   UNL     1       3.669   4.190  17.860  0.00  0.00    +0.000 A 
ATOM      8  C   UNL     1       4.326   3.889  16.658  0.00  0.00    +0.000 A 
ATOM      9  C   UNL     1       5.029   4.916  15.993  0.00  0.00    +0.000 A 
ATOM     10  C   UNL     1       5.027   6.202  16.568  0.00  0.00    +0.000 A 
ATOM     11  C   UNL     1       4.342   6.490  17.760  0.00  0.00    +0.000 A 
ATOM     12  C   UNL     1       3.639   5.462  18.411  0.00  0.00    +0.000 A 
ATOM     13  H   UNL     1       2.155   5.913  21.378  0.00  0.00    +0.000 HD
ATOM     14  H   UNL     1       2.737   2.425  18.636  0.00  0.00    +0.000 HD
ENDROOT
BRANCH   9  15
ATOM     15  C   UNL     1       5.761   4.648  14.728  0.00  0.00    +0.000 A 
ATOM     16  C   UNL     1       5.291   3.698  13.803  0.00  0.00    +0.000 A 
ATOM     17  C   UNL     1       5.988   3.448  12.611  0.00  0.00    +0.000 A 
ATOM     18 CL   UNL     1       5.386   2.258  11.516  0.00  0.00    +0.000 Cl
ATOM     19  C   UNL     1       7.148   4.140  12.300  0.00  0.00    +0.000 A 
ATOM     20  C   UNL     1       7.619   5.090  13.199  0.00  0.00    +0.000 A 
ATOM     21 CL   UNL     1       9.050   5.972  12.832  0.00  0.00    +0.000 Cl
ATOM     22  C   UNL     1       6.944   5.334  14.401  0.00  0.00    +0.000 A 
ENDBRANCH   9  15
BRANCH   1  23
ATOM     23  C   UNL     1       1.668   8.438  21.228  0.00  0.00    +0.000 C 
BRANCH  23  25
ATOM     24  C   UNL     1      -0.343   9.186  22.549  0.00  0.00    +0.000 C 
ATOM     25  C   UNL     1       0.198   8.835  21.175  0.00  0.00    +0.000 C 
ENDBRANCH  23  25
ENDBRANCH   1  23
TORSDOF 3
ENDMDL
MODEL 6
REMARK VINA RESULT:      -8.1      4.523      8.579
REMARK  Name = 
REMARK  4 active torsions:
REMARK  status: ('A' for Active; 'I' for Inactive)
REMARK    1  A    between atoms: C_1  and  C_2
REMARK    2  A    between atoms: C_2  and  C_3
REMARK    3  A    between atoms: C_3  and  C_4
REMARK    4  A    between atoms: C_12  and  C_13
REMARK                            x       y       z     vdW  Elec       q    Type
REMARK                         _______ _______ _______ _____ _____    ______ ____
ROOT
ATOM      1  C   UNL     1       1.993   7.281  20.136  0.00  0.00    +0.000 C 
ATOM      2  O   UNL     1       1.759   7.615  18.978  0.00  0.00    +0.000 OA
ATOM      3  N   UNL     1       2.559   6.091  20.540  0.00  0.00    +0.000 N 
ATOM      4  C   UNL     1       2.972   5.143  19.634  0.00  0.00    +0.000 A 
ATOM      5  N   UNL     1       2.734   3.856  19.892  0.00  0.00    +0.000 NA
ATOM      6  N   UNL     1       3.135   3.234  18.769  0.00  0.00    +0.000 N 
ATOM      7  C   UNL     1       3.786   4.046  17.879  0.00  0.00    +0.000 A 
ATOM      8  C   UNL     1       4.425   3.774  16.661  0.00  0.00    +0.000 A 
ATOM      9  C   UNL     1       5.062   4.831  15.976  0.00  0.00    +0.000 A 
ATOM     10  C   UNL     1       5.012   6.117  16.549  0.00  0.00    +0.000 A 
ATOM     11  C   UNL     1       4.344   6.376  17.758  0.00  0.00    +0.000 A 
ATOM     12  C   UNL     1       3.708   5.318  18.428  0.00  0.00    +0.000 A 
ATOM     13  H   UNL     1       2.280   5.705  21.431  0.00  0.00    +0.000 HD
ATOM     14  H   UNL     1       2.959   2.241  18.682  0.00  0.00    +0.000 HD
ENDROOT
BRANCH   9  15
ATOM     15  C   UNL     1       5.773   4.594  14.694  0.00  0.00    +0.000 A 
ATOM     16  C   UNL     1       6.950   5.296  14.373  0.00  0.00    +0.000 A 
ATOM     17  C   UNL     1       7.615   5.069  13.160  0.00  0.00    +0.000 A 
ATOM     18 CL   UNL     1       9.042   5.968  12.800  0.00  0.00    +0.000 Cl
ATOM     19  C   UNL     1       7.146   4.136  12.248  0.00  0.00    +0.000 A 
ATOM     20  C   UNL     1       5.991   3.426  12.555  0.00  0.00    +0.000 A 
ATOM     21 CL   UNL     1       5.393   2.254  11.447  0.00  0.00    +0.000 Cl
ATOM     22  C   UNL     1       5.306   3.659  13.754  0.00  0.00    +0.000 A 
ENDBRANCH   9  15
BRANCH   1  23
ATOM     23  C   UNL     1       1.668   8.203  21.289  0.00  0.00    +0.000 C 
BRANCH  23  25
ATOM     24  C   UNL     1      -0.236   9.287  22.531  0.00  0.00    +0.000 C 
ATOM     25  C   UNL     1       0.166   8.454  21.329  0.00  0.00    +0.000 C 
ENDBRANCH  23  25
ENDBRANCH   1  23
TORSDOF 3
ENDMDL
MODEL 7
REMARK VINA RESULT:      -8.1      5.588      7.109
REMARK  Name = 
REMARK  4 active torsions:
REMARK  status: ('A' for Active; 'I' for Inactive)
REMARK    1  A    between atoms: C_1  and  C_2
REMARK    2  A    between atoms: C_2  and  C_3
REMARK    3  A    between atoms: C_3  and  C_4
REMARK    4  A    between atoms: C_12  and  C_13
REMARK                            x       y       z     vdW  Elec       q    Type
REMARK                         _______ _______ _______ _____ _____    ______ ____
ROOT
ATOM      1  C   UNL     1       6.659   4.504  15.541  0.00  0.00    +0.000 C 
ATOM      2  O   UNL     1       7.552   5.180  15.040  0.00  0.00    +0.000 OA
ATOM      3  N   UNL     1       6.371   4.404  16.884  0.00  0.00    +0.000 N 
ATOM      4  C   UNL     1       7.067   5.122  17.828  0.00  0.00    +0.000 A 
ATOM      5  N   UNL     1       7.407   4.527  18.972  0.00  0.00    +0.000 NA
ATOM      6  N   UNL     1       8.172   5.447  19.586  0.00  0.00    +0.000 N 
ATOM      7  C   UNL     1       8.188   6.668  18.968  0.00  0.00    +0.000 A 
ATOM      8  C   UNL     1       8.774   7.890  19.328  0.00  0.00    +0.000 A 
ATOM      9  C   UNL     1       8.574   9.012  18.495  0.00  0.00    +0.000 A 
ATOM     10  C   UNL     1       7.800   8.843  17.330  0.00  0.00    +0.000 A 
ATOM     11  C   UNL     1       7.242   7.604  16.972  0.00  0.00    +0.000 A 
ATOM     12  C   UNL     1       7.453   6.493  17.805  0.00  0.00    +0.000 A 
ATOM     13  H   UNL     1       6.001   3.530  17.233  0.00  0.00    +0.000 HD
ATOM     14  H   UNL     1       8.640   5.185  20.445  0.00  0.00    +0.000 HD
ENDROOT
BRANCH   9  15
ATOM     15  C   UNL     1       9.153  10.335  18.841  0.00  0.00    +0.000 A 
ATOM     16  C   UNL     1       9.127  10.819  20.161  0.00  0.00    +0.000 A 
ATOM     17  C   UNL     1       9.673  12.071  20.481  0.00  0.00    +0.000 A 
ATOM     18 CL   UNL     1       9.599  12.633  22.110  0.00  0.00    +0.000 Cl
ATOM     19  C   UNL     1      10.272  12.860  19.511  0.00  0.00    +0.000 A 
ATOM     20  C   UNL     1      10.316  12.391  18.203  0.00  0.00    +0.000 A 
ATOM     21 CL   UNL     1      11.063  13.346  16.982  0.00  0.00    +0.000 Cl
ATOM     22  C   UNL     1       9.755  11.153  17.868  0.00  0.00    +0.000 A 
ENDBRANCH   9  15
BRANCH   1  23
ATOM     23  C   UNL     1       5.734   3.677  14.675  0.00  0.00    +0.000 C 
BRANCH  23  25
ATOM     24  C   UNL     1       6.099   3.155  12.238  0.00  0.00    +0.000 C 
ATOM     25  C   UNL     1       5.748   4.226  13.254  0.00  0.00    +0.000 C 
ENDBRANCH  23  25
ENDBRANCH   1  23
TORSDOF 3
ENDMDL
MODEL 8
REMARK VINA RESULT:      -8.0      3.953      6.051
REMARK  Name = 
REMARK  4 active torsions:
REMARK  status: ('A' for Active; 'I' for Inactive)
REMARK    1  A    between atoms: C_1  and  C_2
REMARK    2  A    between atoms: C_2  and  C_3
REMARK    3  A    between atoms: C_3  and  C_4
REMARK    4  A    between atoms: C_12  and  C_13
REMARK                            x       y       z     vdW  Elec       q    Type
REMARK                         _______ _______ _______ _____ _____    ______ ____
ROOT
ATOM      1  C   UNL     1       5.615   5.200  17.480  0.00  0.00    +0.000 C 
ATOM      2  O   UNL     1       5.906   6.362  17.751  0.00  0.00    +0.000 OA
ATOM      3  N   UNL     1       4.576   4.475  18.022  0.00  0.00    +0.000 N 
ATOM      4  C   UNL     1       3.704   5.029  18.929  0.00  0.00    +0.000 A 
ATOM      5  N   UNL     1       3.314   4.304  19.978  0.00  0.00    +0.000 NA
ATOM      6  N   UNL     1       2.594   5.174  20.709  0.00  0.00    +0.000 N 
ATOM      7  C   UNL     1       2.356   6.369  20.085  0.00  0.00    +0.000 A 
ATOM      8  C   UNL     1       1.588   7.481  20.459  0.00  0.00    +0.000 A 
ATOM      9  C   UNL     1       1.492   8.571  19.568  0.00  0.00    +0.000 A 
ATOM     10  C   UNL     1       2.187   8.491  18.345  0.00  0.00    +0.000 A 
ATOM     11  C   UNL     1       2.971   7.379  17.998  0.00  0.00    +0.000 A 
ATOM     12  C   UNL     1       3.066   6.302  18.895  0.00  0.00    +0.000 A 
ATOM     13  H   UNL     1       4.693   3.478  18.131  0.00  0.00    +0.000 HD
ATOM     14  H   UNL     1       2.269   4.879  21.621  0.00  0.00    +0.000 HD
ENDROOT
BRANCH   9  15
ATOM     15  C   UNL     1       0.675   9.765  19.905  0.00  0.00    +0.000 A 
ATOM     16  C   UNL     1       0.398  10.753  18.942  0.00  0.00    +0.000 A 
ATOM     17  C   UNL     1      -0.373  11.879  19.267  0.00  0.00    +0.000 A 
ATOM     18 CL   UNL     1      -0.668  13.076  18.060  0.00  0.00    +0.000 Cl
ATOM     19  C   UNL     1      -0.900  12.044  20.538  0.00  0.00    +0.000 A 
ATOM     20  C   UNL     1      -0.645  11.071  21.498  0.00  0.00    +0.000 A 
ATOM     21 CL   UNL     1      -1.297  11.246  23.081  0.00  0.00    +0.000 Cl
ATOM     22  C   UNL     1       0.140   9.954  21.192  0.00  0.00    +0.000 A 
ENDBRANCH   9  15
BRANCH   1  23
ATOM     23  C   UNL     1       6.413   4.419  16.461  0.00  0.00    +0.000 C 
BRANCH  23  25
ATOM     24  C   UNL     1       6.285   4.202  13.955  0.00  0.00    +0.000 C 
ATOM     25  C   UNL     1       5.526   4.096  15.265  0.00  0.00    +0.000 C 
ENDBRANCH  23  25
ENDBRANCH   1  23
TORSDOF 3
ENDMDL
MODEL 9
REMARK VINA RESULT:      -8.0      5.516      9.637
REMARK  Name = 
REMARK  4 active torsions:
REMARK  status: ('A' for Active; 'I' for Inactive)
REMARK    1  A    between atoms: C_1  and  C_2
REMARK    2  A    between atoms: C_2  and  C_3
REMARK    3  A    between atoms: C_3  and  C_4
REMARK    4  A    between atoms: C_12  and  C_13
REMARK                            x       y       z     vdW  Elec       q    Type
REMARK                         _______ _______ _______ _____ _____    ______ ____
ROOT
ATOM      1  C   UNL     1       0.021  10.513  22.136  0.00  0.00    +0.000 C 
ATOM      2  O   UNL     1       1.108  10.060  22.484  0.00  0.00    +0.000 OA
ATOM      3  N   UNL     1      -0.419  10.664  20.839  0.00  0.00    +0.000 N 
ATOM      4  C   UNL     1       0.340  10.260  19.767  0.00  0.00    +0.000 A 
ATOM      5  N   UNL     1       0.393  11.035  18.682  0.00  0.00    +0.000 NA
ATOM      6  N   UNL     1       1.306  10.424  17.906  0.00  0.00    +0.000 N 
ATOM      7  C   UNL     1       1.704   9.198  18.367  0.00  0.00    +0.000 A 
ATOM      8  C   UNL     1       2.551   8.224  17.817  0.00  0.00    +0.000 A 
ATOM      9  C   UNL     1       2.739   7.014  18.518  0.00  0.00    +0.000 A 
ATOM     10  C   UNL     1       2.072   6.849  19.748  0.00  0.00    +0.000 A 
ATOM     11  C   UNL     1       1.248   7.847  20.295  0.00  0.00    +0.000 A 
ATOM     12  C   UNL     1       1.073   9.051  19.593  0.00  0.00    +0.000 A 
ATOM     13  H   UNL     1      -1.038  11.434  20.628  0.00  0.00    +0.000 HD
ATOM     14  H   UNL     1       1.597  10.887  17.054  0.00  0.00    +0.000 HD
ENDROOT
BRANCH   9  15
ATOM     15  C   UNL     1       3.606   5.940  17.971  0.00  0.00    +0.000 A 
ATOM     16  C   UNL     1       4.808   6.242  17.304  0.00  0.00    +0.000 A 
ATOM     17  C   UNL     1       5.621   5.223  16.788  0.00  0.00    +0.000 A 
ATOM     18 CL   UNL     1       7.074   5.642  15.959  0.00  0.00    +0.000 Cl
ATOM     19  C   UNL     1       5.277   3.888  16.935  0.00  0.00    +0.000 A 
ATOM     20  C   UNL     1       4.099   3.572  17.601  0.00  0.00    +0.000 A 
ATOM     21 CL   UNL     1       3.654   1.922  17.806  0.00  0.00    +0.000 Cl
ATOM     22  C   UNL     1       3.268   4.581  18.102  0.00  0.00    +0.000 A 
ENDBRANCH   9  15
BRANCH   1  23
ATOM     23  C   UNL     1      -0.994  10.966  23.161  0.00  0.00    +0.000 C 
BRANCH  23  25
ATOM     24  C   UNL     1      -3.034  12.416  23.452  0.00  0.00    +0.000 C 
ATOM     25  C   UNL     1      -1.841  12.087  22.572  0.00  0.00    +0.000 C 
ENDBRANCH  23  25
ENDBRANCH   1  23
TORSDOF 3
ENDMDL
