MODEL 1
REMARK VINA RESULT:      -7.3      0.000      0.000
REMARK  Name = 
REMARK  8 active torsions:
REMARK  status: ('A' for Active; 'I' for Inactive)
REMARK    1  A    between atoms: C_1  and  C_2
REMARK    2  A    between atoms: C_5  and  C_6
REMARK    3  A    between atoms: C_6  and  N_7
REMARK    4  A    between atoms: C_10  and  C_11
REMARK    5  A    between atoms: N_13  and  C_14
REMARK    6  A    between atoms: N_13  and  C_16
REMARK    7  A    between atoms: C_16  and  C_17
REMARK    8  A    between atoms: C_24  and  C_25
REMARK                            x       y       z     vdW  Elec       q    Type
REMARK                         _______ _______ _______ _____ _____    ______ ____
ROOT
ATOM      1  N   UNL     1      -0.310  12.246  18.989  0.00  0.00    +0.000 N 
ATOM      2  C   UNL     1       0.980  12.553  19.300  0.00  0.00    +0.000 A 
ATOM      3  N   UNL     1       1.766  11.517  19.145  0.00  0.00    +0.000 NA
ATOM      4  C   UNL     1       0.966  10.468  18.708  0.00  0.00    +0.000 A 
ATOM      5  C   UNL     1      -0.335  10.947  18.514  0.00  0.00    +0.000 A 
ATOM      6  C   UNL     1      -1.585  10.342  17.986  0.00  0.00    +0.000 C 
ENDROOT
BRANCH   4   7
ATOM      7  C   UNL     1       1.549   9.125  18.433  0.00  0.00    +0.000 C 
ATOM      8  O   UNL     1       1.964   8.819  17.315  0.00  0.00    +0.000 OA
ATOM      9  N   UNL     1       1.650   8.248  19.534  0.00  0.00    +0.000 N 
BRANCH   9  10
ATOM     10  C   UNL     1       1.083   8.418  20.743  0.00  0.00    +0.000 C 
ATOM     11  N   UNL     1       0.640   8.510  21.820  0.00  0.00    +0.000 NA
ENDBRANCH   9  10
BRANCH   9  12
ATOM     12  C   UNL     1       2.706   7.219  19.548  0.00  0.00    +0.000 C 
BRANCH  12  13
ATOM     13  C   UNL     1       2.275   5.803  19.230  0.00  0.00    +0.000 A 
ATOM     14  C   UNL     1       2.264   5.346  17.910  0.00  0.00    +0.000 A 
ATOM     15  C   UNL     1       1.788   4.067  17.598  0.00  0.00    +0.000 A 
ATOM     16  C   UNL     1       1.312   3.226  18.603  0.00  0.00    +0.000 A 
ATOM     17  C   UNL     1       1.397   3.630  19.933  0.00  0.00    +0.000 A 
ATOM     18  C   UNL     1       1.911   4.893  20.238  0.00  0.00    +0.000 A 
ATOM     19  F   UNL     1       2.066   5.216  21.531  0.00  0.00    +0.000 F 
ENDBRANCH  12  13
ENDBRANCH   9  12
ENDBRANCH   4   7
BRANCH   1  20
ATOM     20  C   UNL     1      -1.455  13.108  19.261  0.00  0.00    +0.000 C 
BRANCH  20  25
ATOM     21  C   UNL     1      -4.065  12.405  24.422  0.00  0.00    +0.000 C 
ATOM     22  C   UNL     1      -3.406  12.494  23.078  0.00  0.00    +0.000 A 
ATOM     23  C   UNL     1      -2.029  12.309  22.932  0.00  0.00    +0.000 A 
ATOM     24  C   UNL     1      -1.426  12.472  21.683  0.00  0.00    +0.000 A 
ATOM     25  C   UNL     1      -2.184  12.811  20.549  0.00  0.00    +0.000 A 
ATOM     26  C   UNL     1      -3.569  12.958  20.699  0.00  0.00    +0.000 A 
ATOM     27  C   UNL     1      -4.173  12.802  21.950  0.00  0.00    +0.000 A 
ENDBRANCH  20  25
ENDBRANCH   1  20
TORSDOF 6
ENDMDL
MODEL 2
REMARK VINA RESULT:      -7.2      0.905      1.277
REMARK  Name = 
REMARK  8 active torsions:
REMARK  status: ('A' for Active; 'I' for Inactive)
REMARK    1  A    between atoms: C_1  and  C_2
REMARK    2  A    between atoms: C_5  and  C_6
REMARK    3  A    between atoms: C_6  and  N_7
REMARK    4  A    between atoms: C_10  and  C_11
REMARK    5  A    between atoms: N_13  and  C_14
REMARK    6  A    between atoms: N_13  and  C_16
REMARK    7  A    between atoms: C_16  and  C_17
REMARK    8  A    between atoms: C_24  and  C_25
REMARK                            x       y       z     vdW  Elec       q    Type
REMARK                         _______ _______ _______ _____ _____    ______ ____
ROOT
ATOM      1  N   UNL     1      -0.404  12.154  19.142  0.00  0.00    +0.000 N 
ATOM      2  C   UNL     1       0.905  12.456  19.368  0.00  0.00    +0.000 A 
ATOM      3  N   UNL     1       1.665  11.396  19.251  0.00  0.00    +0.000 NA
ATOM      4  C   UNL     1       0.826  10.335  18.929  0.00  0.00    +0.000 A 
ATOM      5  C   UNL     1      -0.475  10.825  18.765  0.00  0.00    +0.000 A 
ATOM      6  C   UNL     1      -1.759  10.211  18.343  0.00  0.00    +0.000 C 
ENDROOT
BRANCH   4   7
ATOM      7  C   UNL     1       1.372   8.964  18.725  0.00  0.00    +0.000 C 
ATOM      8  O   UNL     1       1.707   8.563  17.610  0.00  0.00    +0.000 OA
ATOM      9  N   UNL     1       1.535   8.175  19.883  0.00  0.00    +0.000 N 
BRANCH   9  10
ATOM     10  C   UNL     1       1.054   8.450  21.110  0.00  0.00    +0.000 C 
ATOM     11  N   UNL     1       0.687   8.747  22.179  0.00  0.00    +0.000 NA
ENDBRANCH   9  10
BRANCH   9  12
ATOM     12  C   UNL     1       2.576   7.131  19.909  0.00  0.00    +0.000 C 
BRANCH  12  13
ATOM     13  C   UNL     1       2.124   5.717  19.610  0.00  0.00    +0.000 A 
ATOM     14  C   UNL     1       1.385   4.997  20.552  0.00  0.00    +0.000 A 
ATOM     15  C   UNL     1       1.035   3.661  20.318  0.00  0.00    +0.000 A 
ATOM     16  C   UNL     1       1.423   3.025  19.140  0.00  0.00    +0.000 A 
ATOM     17  C   UNL     1       2.084   3.753  18.152  0.00  0.00    +0.000 A 
ATOM     18  C   UNL     1       2.393   5.096  18.378  0.00  0.00    +0.000 A 
ATOM     19  F   UNL     1       2.946   5.794  17.373  0.00  0.00    +0.000 F 
ENDBRANCH  12  13
ENDBRANCH   9  12
ENDBRANCH   4   7
BRANCH   1  20
ATOM     20  C   UNL     1      -1.519  13.057  19.406  0.00  0.00    +0.000 C 
BRANCH  20  25
ATOM     21  C   UNL     1      -4.181  12.399  24.547  0.00  0.00    +0.000 C 
ATOM     22  C   UNL     1      -3.518  12.479  23.204  0.00  0.00    +0.000 A 
ATOM     23  C   UNL     1      -2.170  12.153  23.040  0.00  0.00    +0.000 A 
ATOM     24  C   UNL     1      -1.555  12.309  21.796  0.00  0.00    +0.000 A 
ATOM     25  C   UNL     1      -2.274  12.781  20.684  0.00  0.00    +0.000 A 
ATOM     26  C   UNL     1      -3.635  13.069  20.850  0.00  0.00    +0.000 A 
ATOM     27  C   UNL     1      -4.249  12.921  22.097  0.00  0.00    +0.000 A 
ENDBRANCH  20  25
ENDBRANCH   1  20
TORSDOF 6
ENDMDL
MODEL 3
REMARK VINA RESULT:      -7.1      1.012      1.637
REMARK  Name = 
REMARK  8 active torsions:
REMARK  status: ('A' for Active; 'I' for Inactive)
REMARK    1  A    between atoms: C_1  and  C_2
REMARK    2  A    between atoms: C_5  and  C_6
REMARK    3  A    between atoms: C_6  and  N_7
REMARK    4  A    between atoms: C_10  and  C_11
REMARK    5  A    between atoms: N_13  and  C_14
REMARK    6  A    between atoms: N_13  and  C_16
REMARK    7  A    between atoms: C_16  and  C_17
REMARK    8  A    between atoms: C_24  and  C_25
REMARK                            x       y       z     vdW  Elec       q    Type
REMARK                         _______ _______ _______ _____ _____    ______ ____
ROOT
ATOM      1  N   UNL     1       0.189  12.209  18.675  0.00  0.00    +0.000 N 
ATOM      2  C   UNL     1       1.526  12.460  18.728  0.00  0.00    +0.000 A 
ATOM      3  N   UNL     1       2.221  11.354  18.636  0.00  0.00    +0.000 NA
ATOM      4  C   UNL     1       1.306  10.315  18.514  0.00  0.00    +0.000 A 
ATOM      5  C   UNL     1       0.018  10.857  18.442  0.00  0.00    +0.000 A 
ATOM      6  C   UNL     1      -1.331  10.276  18.223  0.00  0.00    +0.000 C 
ENDROOT
BRANCH   4   7
ATOM      7  C   UNL     1       1.766   8.902  18.390  0.00  0.00    +0.000 C 
ATOM      8  O   UNL     1       2.169   8.448  17.319  0.00  0.00    +0.000 OA
ATOM      9  N   UNL     1       1.765   8.136  19.574  0.00  0.00    +0.000 N 
BRANCH   9  10
ATOM     10  C   UNL     1       1.196   8.479  20.745  0.00  0.00    +0.000 C 
ATOM     11  N   UNL     1       0.635   8.786  21.723  0.00  0.00    +0.000 NA
ENDBRANCH   9  10
BRANCH   9  12
ATOM     12  C   UNL     1       2.719   7.021  19.719  0.00  0.00    +0.000 C 
BRANCH  12  13
ATOM     13  C   UNL     1       2.164   5.626  19.525  0.00  0.00    +0.000 A 
ATOM     14  C   UNL     1       1.385   5.030  20.519  0.00  0.00    +0.000 A 
ATOM     15  C   UNL     1       0.938   3.711  20.384  0.00  0.00    +0.000 A 
ATOM     16  C   UNL     1       1.267   2.965  19.253  0.00  0.00    +0.000 A 
ATOM     17  C   UNL     1       1.969   3.571  18.213  0.00  0.00    +0.000 A 
ATOM     18  C   UNL     1       2.376   4.901  18.339  0.00  0.00    +0.000 A 
ATOM     19  F   UNL     1       2.967   5.483  17.284  0.00  0.00    +0.000 F 
ENDBRANCH  12  13
ENDBRANCH   9  12
ENDBRANCH   4   7
BRANCH   1  20
ATOM     20  C   UNL     1      -0.850  13.192  18.966  0.00  0.00    +0.000 C 
BRANCH  20  25
ATOM     21  C   UNL     1      -3.569  12.153  24.012  0.00  0.00    +0.000 C 
ATOM     22  C   UNL     1      -2.869  12.511  22.736  0.00  0.00    +0.000 A 
ATOM     23  C   UNL     1      -3.585  12.828  21.580  0.00  0.00    +0.000 A 
ATOM     24  C   UNL     1      -2.912  13.084  20.383  0.00  0.00    +0.000 A 
ATOM     25  C   UNL     1      -1.509  13.043  20.316  0.00  0.00    +0.000 A 
ATOM     26  C   UNL     1      -0.798  12.761  21.490  0.00  0.00    +0.000 A 
ATOM     27  C   UNL     1      -1.471  12.497  22.686  0.00  0.00    +0.000 A 
ENDBRANCH  20  25
ENDBRANCH   1  20
TORSDOF 6
ENDMDL
MODEL 4
REMARK VINA RESULT:      -7.1      2.720      8.593
REMARK  Name = 
REMARK  8 active torsions:
REMARK  status: ('A' for Active; 'I' for Inactive)
REMARK    1  A    between atoms: C_1  and  C_2
REMARK    2  A    between atoms: C_5  and  C_6
REMARK    3  A    between atoms: C_6  and  N_7
REMARK    4  A    between atoms: C_10  and  C_11
REMARK    5  A    between atoms: N_13  and  C_14
REMARK    6  A    between atoms: N_13  and  C_16
REMARK    7  A    between atoms: C_16  and  C_17
REMARK    8  A    between atoms: C_24  and  C_25
REMARK                            x       y       z     vdW  Elec       q    Type
REMARK                         _______ _______ _______ _____ _____    ______ ____
ROOT
ATOM      1  N   UNL     1       2.092   8.009  18.581  0.00  0.00    +0.000 N 
ATOM      2  C   UNL     1       2.204   9.087  17.756  0.00  0.00    +0.000 A 
ATOM      3  N   UNL     1       1.698  10.162  18.308  0.00  0.00    +0.000 NA
ATOM      4  C   UNL     1       1.229   9.786  19.561  0.00  0.00    +0.000 A 
ATOM      5  C   UNL     1       1.560   8.444  19.781  0.00  0.00    +0.000 A 
ATOM      6  C   UNL     1       1.410   7.524  20.937  0.00  0.00    +0.000 C 
ENDROOT
BRANCH   4   7
ATOM      7  C   UNL     1       0.582  10.779  20.465  0.00  0.00    +0.000 C 
ATOM      8  O   UNL     1       1.165  11.225  21.454  0.00  0.00    +0.000 OA
ATOM      9  N   UNL     1      -0.705  11.220  20.094  0.00  0.00    +0.000 N 
BRANCH   9  10
ATOM     10  C   UNL     1      -1.488  10.682  19.140  0.00  0.00    +0.000 C 
ATOM     11  N   UNL     1      -2.107  10.220  18.263  0.00  0.00    +0.000 NA
ENDBRANCH   9  10
BRANCH   9  12
ATOM     12  C   UNL     1      -1.159  12.563  20.501  0.00  0.00    +0.000 C 
BRANCH  12  13
ATOM     13  C   UNL     1      -2.359  12.621  21.422  0.00  0.00    +0.000 A 
ATOM     14  C   UNL     1      -3.607  13.014  20.934  0.00  0.00    +0.000 A 
ATOM     15  C   UNL     1      -4.703  13.151  21.794  0.00  0.00    +0.000 A 
ATOM     16  C   UNL     1      -4.565  12.900  23.159  0.00  0.00    +0.000 A 
ATOM     17  C   UNL     1      -3.352  12.422  23.649  0.00  0.00    +0.000 A 
ATOM     18  C   UNL     1      -2.276  12.250  22.776  0.00  0.00    +0.000 A 
ATOM     19  F   UNL     1      -1.151  11.701  23.261  0.00  0.00    +0.000 F 
ENDBRANCH  12  13
ENDBRANCH   9  12
ENDBRANCH   4   7
BRANCH   1  20
ATOM     20  C   UNL     1       2.357   6.630  18.182  0.00  0.00    +0.000 C 
BRANCH  20  25
ATOM     21  C   UNL     1       7.840   4.674  17.929  0.00  0.00    +0.000 C 
ATOM     22  C   UNL     1       6.461   5.254  18.037  0.00  0.00    +0.000 A 
ATOM     23  C   UNL     1       5.653   5.001  19.147  0.00  0.00    +0.000 A 
ATOM     24  C   UNL     1       4.345   5.489  19.192  0.00  0.00    +0.000 A 
ATOM     25  C   UNL     1       3.818   6.251  18.134  0.00  0.00    +0.000 A 
ATOM     26  C   UNL     1       4.649   6.531  17.042  0.00  0.00    +0.000 A 
ATOM     27  C   UNL     1       5.955   6.037  16.993  0.00  0.00    +0.000 A 
ENDBRANCH  20  25
ENDBRANCH   1  20
TORSDOF 6
ENDMDL
MODEL 5
REMARK VINA RESULT:      -6.9      2.323      8.182
REMARK  Name = 
REMARK  8 active torsions:
REMARK  status: ('A' for Active; 'I' for Inactive)
REMARK    1  A    between atoms: C_1  and  C_2
REMARK    2  A    between atoms: C_5  and  C_6
REMARK    3  A    between atoms: C_6  and  N_7
REMARK    4  A    between atoms: C_10  and  C_11
REMARK    5  A    between atoms: N_13  and  C_14
REMARK    6  A    between atoms: N_13  and  C_16
REMARK    7  A    between atoms: C_16  and  C_17
REMARK    8  A    between atoms: C_24  and  C_25
REMARK                            x       y       z     vdW  Elec       q    Type
REMARK                         _______ _______ _______ _____ _____    ______ ____
ROOT
ATOM      1  N   UNL     1       1.441   8.332  20.115  0.00  0.00    +0.000 N 
ATOM      2  C   UNL     1       0.727   8.459  21.268  0.00  0.00    +0.000 A 
ATOM      3  N   UNL     1      -0.084   9.485  21.214  0.00  0.00    +0.000 NA
ATOM      4  C   UNL     1       0.092  10.070  19.966  0.00  0.00    +0.000 A 
ATOM      5  C   UNL     1       0.987   9.290  19.226  0.00  0.00    +0.000 A 
ATOM      6  C   UNL     1       1.491   9.347  17.830  0.00  0.00    +0.000 C 
ENDROOT
BRANCH   4   7
ATOM      7  C   UNL     1      -0.686  11.279  19.572  0.00  0.00    +0.000 C 
ATOM      8  O   UNL     1      -1.707  11.193  18.890  0.00  0.00    +0.000 OA
ATOM      9  N   UNL     1      -0.221  12.514  20.069  0.00  0.00    +0.000 N 
BRANCH   9  10
ATOM     10  C   UNL     1       0.961  12.736  20.675  0.00  0.00    +0.000 C 
ATOM     11  N   UNL     1       1.983  13.001  21.174  0.00  0.00    +0.000 NA
ENDBRANCH   9  10
BRANCH   9  12
ATOM     12  C   UNL     1      -1.175  13.619  20.278  0.00  0.00    +0.000 C 
BRANCH  12  13
ATOM     13  C   UNL     1      -1.981  13.583  21.559  0.00  0.00    +0.000 A 
ATOM     14  C   UNL     1      -1.495  14.193  22.718  0.00  0.00    +0.000 A 
ATOM     15  C   UNL     1      -2.193  14.094  23.927  0.00  0.00    +0.000 A 
ATOM     16  C   UNL     1      -3.388  13.378  23.996  0.00  0.00    +0.000 A 
ATOM     17  C   UNL     1      -3.932  12.839  22.833  0.00  0.00    +0.000 A 
ATOM     18  C   UNL     1      -3.248  12.978  21.623  0.00  0.00    +0.000 A 
ATOM     19  F   UNL     1      -3.842  12.528  20.507  0.00  0.00    +0.000 F 
ENDBRANCH  12  13
ENDBRANCH   9  12
ENDBRANCH   4   7
BRANCH   1  20
ATOM     20  C   UNL     1       2.575   7.431  19.938  0.00  0.00    +0.000 C 
BRANCH  20  25
ATOM     21  C   UNL     1       0.668   2.067  18.697  0.00  0.00    +0.000 C 
ATOM     22  C   UNL     1       1.245   3.411  19.029  0.00  0.00    +0.000 A 
ATOM     23  C   UNL     1       1.279   3.880  20.344  0.00  0.00    +0.000 A 
ATOM     24  C   UNL     1       1.751   5.166  20.619  0.00  0.00    +0.000 A 
ATOM     25  C   UNL     1       2.210   6.007  19.591  0.00  0.00    +0.000 A 
ATOM     26  C   UNL     1       2.206   5.513  18.280  0.00  0.00    +0.000 A 
ATOM     27  C   UNL     1       1.728   4.229  18.003  0.00  0.00    +0.000 A 
ENDBRANCH  20  25
ENDBRANCH   1  20
TORSDOF 6
ENDMDL
MODEL 6
REMARK VINA RESULT:      -6.9      2.468      8.237
REMARK  Name = 
REMARK  8 active torsions:
REMARK  status: ('A' for Active; 'I' for Inactive)
REMARK    1  A    between atoms: C_1  and  C_2
REMARK    2  A    between atoms: C_5  and  C_6
REMARK    3  A    between atoms: C_6  and  N_7
REMARK    4  A    between atoms: C_10  and  C_11
REMARK    5  A    between atoms: N_13  and  C_14
REMARK    6  A    between atoms: N_13  and  C_16
REMARK    7  A    between atoms: C_16  and  C_17
REMARK    8  A    between atoms: C_24  and  C_25
REMARK                            x       y       z     vdW  Elec       q    Type
REMARK                         _______ _______ _______ _____ _____    ______ ____
ROOT
ATOM      1  N   UNL     1       1.442   8.349  20.116  0.00  0.00    +0.000 N 
ATOM      2  C   UNL     1       0.776   8.444  21.301  0.00  0.00    +0.000 A 
ATOM      3  N   UNL     1      -0.047   9.462  21.303  0.00  0.00    +0.000 NA
ATOM      4  C   UNL     1       0.070  10.075  20.061  0.00  0.00    +0.000 A 
ATOM      5  C   UNL     1       0.941   9.319  19.268  0.00  0.00    +0.000 A 
ATOM      6  C   UNL     1       1.385   9.412  17.854  0.00  0.00    +0.000 C 
ENDROOT
BRANCH   4   7
ATOM      7  C   UNL     1      -0.737  11.282  19.725  0.00  0.00    +0.000 C 
ATOM      8  O   UNL     1      -1.799  11.196  19.110  0.00  0.00    +0.000 OA
ATOM      9  N   UNL     1      -0.245  12.516  20.198  0.00  0.00    +0.000 N 
BRANCH   9  10
ATOM     10  C   UNL     1       0.972  12.739  20.729  0.00  0.00    +0.000 C 
ATOM     11  N   UNL     1       1.997  12.922  21.259  0.00  0.00    +0.000 NA
ENDBRANCH   9  10
BRANCH   9  12
ATOM     12  C   UNL     1      -1.188  13.616  20.475  0.00  0.00    +0.000 C 
BRANCH  12  13
ATOM     13  C   UNL     1      -1.886  13.586  21.819  0.00  0.00    +0.000 A 
ATOM     14  C   UNL     1      -3.007  12.777  22.016  0.00  0.00    +0.000 A 
ATOM     15  C   UNL     1      -3.708  12.807  23.227  0.00  0.00    +0.000 A 
ATOM     16  C   UNL     1      -3.299  13.650  24.259  0.00  0.00    +0.000 A 
ATOM     17  C   UNL     1      -2.133  14.397  24.113  0.00  0.00    +0.000 A 
ATOM     18  C   UNL     1      -1.417  14.331  22.915  0.00  0.00    +0.000 A 
ATOM     19  F   UNL     1      -0.251  14.990  22.839  0.00  0.00    +0.000 F 
ENDBRANCH  12  13
ENDBRANCH   9  12
ENDBRANCH   4   7
BRANCH   1  20
ATOM     20  C   UNL     1       2.577   7.464  19.873  0.00  0.00    +0.000 C 
BRANCH  20  25
ATOM     21  C   UNL     1       0.677   2.079  18.716  0.00  0.00    +0.000 C 
ATOM     22  C   UNL     1       1.252   3.429  19.025  0.00  0.00    +0.000 A 
ATOM     23  C   UNL     1       1.315   3.908  20.335  0.00  0.00    +0.000 A 
ATOM     24  C   UNL     1       1.784   5.199  20.591  0.00  0.00    +0.000 A 
ATOM     25  C   UNL     1       2.213   6.036  19.546  0.00  0.00    +0.000 A 
ATOM     26  C   UNL     1       2.181   5.532  18.239  0.00  0.00    +0.000 A 
ATOM     27  C   UNL     1       1.705   4.244  17.981  0.00  0.00    +0.000 A 
ENDBRANCH  20  25
ENDBRANCH   1  20
TORSDOF 6
ENDMDL
MODEL 7
REMARK VINA RESULT:      -6.9      2.996      8.710
REMARK  Name = 
REMARK  8 active torsions:
REMARK  status: ('A' for Active; 'I' for Inactive)
REMARK    1  A    between atoms: C_1  and  C_2
REMARK    2  A    between atoms: C_5  and  C_6
REMARK    3  A    between atoms: C_6  and  N_7
REMARK    4  A    between atoms: C_10  and  C_11
REMARK    5  A    between atoms: N_13  and  C_14
REMARK    6  A    between atoms: N_13  and  C_16
REMARK    7  A    between atoms: C_16  and  C_17
REMARK    8  A    between atoms: C_24  and  C_25
REMARK                            x       y       z     vdW  Elec       q    Type
REMARK                         _______ _______ _______ _____ _____    ______ ____
ROOT
ATOM      1  N   UNL     1       2.039   7.980  18.586  0.00  0.00    +0.000 N 
ATOM      2  C   UNL     1       2.133   8.994  17.681  0.00  0.00    +0.000 A 
ATOM      3  N   UNL     1       1.608  10.099  18.149  0.00  0.00    +0.000 NA
ATOM      4  C   UNL     1       1.145   9.812  19.428  0.00  0.00    +0.000 A 
ATOM      5  C   UNL     1       1.498   8.497  19.750  0.00  0.00    +0.000 A 
ATOM      6  C   UNL     1       1.364   7.666  20.973  0.00  0.00    +0.000 C 
ENDROOT
BRANCH   4   7
ATOM      7  C   UNL     1       0.480  10.861  20.253  0.00  0.00    +0.000 C 
ATOM      8  O   UNL     1       1.046  11.375  21.217  0.00  0.00    +0.000 OA
ATOM      9  N   UNL     1      -0.804  11.268  19.835  0.00  0.00    +0.000 N 
BRANCH   9  10
ATOM     10  C   UNL     1      -1.570  10.663  18.908  0.00  0.00    +0.000 C 
ATOM     11  N   UNL     1      -2.236  10.205  18.065  0.00  0.00    +0.000 NA
ENDBRANCH   9  10
BRANCH   9  12
ATOM     12  C   UNL     1      -1.269  12.633  20.144  0.00  0.00    +0.000 C 
BRANCH  12  13
ATOM     13  C   UNL     1      -2.323  12.760  21.223  0.00  0.00    +0.000 A 
ATOM     14  C   UNL     1      -1.953  12.853  22.567  0.00  0.00    +0.000 A 
ATOM     15  C   UNL     1      -2.922  12.887  23.576  0.00  0.00    +0.000 A 
ATOM     16  C   UNL     1      -4.277  12.824  23.257  0.00  0.00    +0.000 A 
ATOM     17  C   UNL     1      -4.668  12.819  21.920  0.00  0.00    +0.000 A 
ATOM     18  C   UNL     1      -3.694  12.827  20.918  0.00  0.00    +0.000 A 
ATOM     19  F   UNL     1      -4.102  12.916  19.643  0.00  0.00    +0.000 F 
ENDBRANCH  12  13
ENDBRANCH   9  12
ENDBRANCH   4   7
BRANCH   1  20
ATOM     20  C   UNL     1       2.328   6.580  18.294  0.00  0.00    +0.000 C 
BRANCH  20  25
ATOM     21  C   UNL     1       7.850   4.755  17.929  0.00  0.00    +0.000 C 
ATOM     22  C   UNL     1       6.460   5.301  18.067  0.00  0.00    +0.000 A 
ATOM     23  C   UNL     1       5.673   5.006  19.182  0.00  0.00    +0.000 A 
ATOM     24  C   UNL     1       4.354   5.463  19.254  0.00  0.00    +0.000 A 
ATOM     25  C   UNL     1       3.797   6.235  18.220  0.00  0.00    +0.000 A 
ATOM     26  C   UNL     1       4.606   6.557  17.123  0.00  0.00    +0.000 A 
ATOM     27  C   UNL     1       5.923   6.094  17.047  0.00  0.00    +0.000 A 
ENDBRANCH  20  25
ENDBRANCH   1  20
TORSDOF 6
ENDMDL
MODEL 8
REMARK VINA RESULT:      -6.9      6.684      8.488
REMARK  Name = 
REMARK  8 active torsions:
REMARK  status: ('A' for Active; 'I' for Inactive)
REMARK    1  A    between atoms: C_1  and  C_2
REMARK    2  A    between atoms: C_5  and  C_6
REMARK    3  A    between atoms: C_6  and  N_7
REMARK    4  A    between atoms: C_10  and  C_11
REMARK    5  A    between atoms: N_13  and  C_14
REMARK    6  A    between atoms: N_13  and  C_16
REMARK    7  A    between atoms: C_16  and  C_17
REMARK    8  A    between atoms: C_24  and  C_25
REMARK                            x       y       z     vdW  Elec       q    Type
REMARK                         _______ _______ _______ _____ _____    ______ ____
ROOT
ATOM      1  N   UNL     1       7.907   7.714  18.279  0.00  0.00    +0.000 N 
ATOM      2  C   UNL     1       7.261   8.275  17.218  0.00  0.00    +0.000 A 
ATOM      3  N   UNL     1       6.490   7.404  16.617  0.00  0.00    +0.000 NA
ATOM      4  C   UNL     1       6.623   6.206  17.309  0.00  0.00    +0.000 A 
ATOM      5  C   UNL     1       7.445   6.419  18.422  0.00  0.00    +0.000 A 
ATOM      6  C   UNL     1       7.876   5.567  19.559  0.00  0.00    +0.000 C 
ENDROOT
BRANCH   4   7
ATOM      7  C   UNL     1       5.874   4.990  16.883  0.00  0.00    +0.000 C 
ATOM      8  O   UNL     1       6.433   4.060  16.302  0.00  0.00    +0.000 OA
ATOM      9  N   UNL     1       4.507   4.941  17.230  0.00  0.00    +0.000 N 
BRANCH   9  10
ATOM     10  C   UNL     1       3.769   5.960  17.709  0.00  0.00    +0.000 C 
ATOM     11  N   UNL     1       3.118   6.868  18.052  0.00  0.00    +0.000 NA
ENDBRANCH   9  10
BRANCH   9  12
ATOM     12  C   UNL     1       3.854   3.634  17.426  0.00  0.00    +0.000 C 
BRANCH  12  13
ATOM     13  C   UNL     1       3.023   3.474  18.682  0.00  0.00    +0.000 A 
ATOM     14  C   UNL     1       3.631   3.140  19.894  0.00  0.00    +0.000 A 
ATOM     15  C   UNL     1       2.862   2.909  21.041  0.00  0.00    +0.000 A 
ATOM     16  C   UNL     1       1.472   3.006  20.991  0.00  0.00    +0.000 A 
ATOM     17  C   UNL     1       0.855   3.424  19.815  0.00  0.00    +0.000 A 
ATOM     18  C   UNL     1       1.634   3.691  18.686  0.00  0.00    +0.000 A 
ATOM     19  F   UNL     1       1.021   4.181  17.597  0.00  0.00    +0.000 F 
ENDBRANCH  12  13
ENDBRANCH   9  12
ENDBRANCH   4   7
BRANCH   1  20
ATOM     20  C   UNL     1       8.993   8.351  19.017  0.00  0.00    +0.000 C 
BRANCH  20  25
ATOM     21  C   UNL     1       9.443  14.160  19.029  0.00  0.00    +0.000 C 
ATOM     22  C   UNL     1       9.236  12.674  19.044  0.00  0.00    +0.000 A 
ATOM     23  C   UNL     1       9.369  11.936  20.222  0.00  0.00    +0.000 A 
ATOM     24  C   UNL     1       9.247  10.544  20.198  0.00  0.00    +0.000 A 
ATOM     25  C   UNL     1       8.976   9.860  19.001  0.00  0.00    +0.000 A 
ATOM     26  C   UNL     1       8.806  10.613  17.832  0.00  0.00    +0.000 A 
ATOM     27  C   UNL     1       8.936  12.005  17.854  0.00  0.00    +0.000 A 
ENDBRANCH  20  25
ENDBRANCH   1  20
TORSDOF 6
ENDMDL
MODEL 9
REMARK VINA RESULT:      -6.8      2.513      8.051
REMARK  Name = 
REMARK  8 active torsions:
REMARK  status: ('A' for Active; 'I' for Inactive)
REMARK    1  A    between atoms: C_1  and  C_2
REMARK    2  A    between atoms: C_5  and  C_6
REMARK    3  A    between atoms: C_6  and  N_7
REMARK    4  A    between atoms: C_10  and  C_11
REMARK    5  A    between atoms: N_13  and  C_14
REMARK    6  A    between atoms: N_13  and  C_16
REMARK    7  A    between atoms: C_16  and  C_17
REMARK    8  A    between atoms: C_24  and  C_25
REMARK                            x       y       z     vdW  Elec       q    Type
REMARK                         _______ _______ _______ _____ _____    ______ ____
ROOT
ATOM      1  N   UNL     1       2.213   8.164  19.123  0.00  0.00    +0.000 N 
ATOM      2  C   UNL     1       2.475   8.558  17.845  0.00  0.00    +0.000 A 
ATOM      3  N   UNL     1       1.629   9.475  17.448  0.00  0.00    +0.000 NA
ATOM      4  C   UNL     1       0.763   9.708  18.510  0.00  0.00    +0.000 A 
ATOM      5  C   UNL     1       1.184   8.950  19.608  0.00  0.00    +0.000 A 
ATOM      6  C   UNL     1       0.731   8.843  21.018  0.00  0.00    +0.000 C 
ENDROOT
BRANCH   4   7
ATOM      7  C   UNL     1      -0.339  10.705  18.393  0.00  0.00    +0.000 C 
ATOM      8  O   UNL     1      -1.476  10.372  18.060  0.00  0.00    +0.000 OA
ATOM      9  N   UNL     1      -0.020  12.035  18.736  0.00  0.00    +0.000 N 
BRANCH   9  10
ATOM     10  C   UNL     1       1.214  12.530  18.948  0.00  0.00    +0.000 C 
ATOM     11  N   UNL     1       2.255  13.031  19.123  0.00  0.00    +0.000 NA
ENDBRANCH   9  10
BRANCH   9  12
ATOM     12  C   UNL     1      -1.078  12.928  19.246  0.00  0.00    +0.000 C 
BRANCH  12  13
ATOM     13  C   UNL     1      -1.131  13.125  20.746  0.00  0.00    +0.000 A 
ATOM     14  C   UNL     1      -1.454  12.059  21.588  0.00  0.00    +0.000 A 
ATOM     15  C   UNL     1      -1.588  12.252  22.969  0.00  0.00    +0.000 A 
ATOM     16  C   UNL     1      -1.404  13.516  23.526  0.00  0.00    +0.000 A 
ATOM     17  C   UNL     1      -0.996  14.571  22.714  0.00  0.00    +0.000 A 
ATOM     18  C   UNL     1      -0.825  14.360  21.344  0.00  0.00    +0.000 A 
ATOM     19  F   UNL     1      -0.343  15.371  20.605  0.00  0.00    +0.000 F 
ENDBRANCH  12  13
ENDBRANCH   9  12
ENDBRANCH   4   7
BRANCH   1  20
ATOM     20  C   UNL     1       2.830   7.014  19.777  0.00  0.00    +0.000 C 
BRANCH  20  25
ATOM     21  C   UNL     1       0.648   1.711  18.748  0.00  0.00    +0.000 C 
ATOM     22  C   UNL     1       1.125   3.111  18.991  0.00  0.00    +0.000 A 
ATOM     23  C   UNL     1       1.687   3.874  17.965  0.00  0.00    +0.000 A 
ATOM     24  C   UNL     1       2.195   5.148  18.232  0.00  0.00    +0.000 A 
ATOM     25  C   UNL     1       2.141   5.694  19.526  0.00  0.00    +0.000 A 
ATOM     26  C   UNL     1       1.542   4.936  20.540  0.00  0.00    +0.000 A 
ATOM     27  C   UNL     1       1.040   3.659  20.276  0.00  0.00    +0.000 A 
ENDBRANCH  20  25
ENDBRANCH   1  20
TORSDOF 6
ENDMDL
