MODEL 1
REMARK VINA RESULT:      -8.4      0.000      0.000
REMARK  Name = 
REMARK  6 active torsions:
REMARK  status: ('A' for Active; 'I' for Inactive)
REMARK    1  A    between atoms: C_2  and  C_12
REMARK    2  A    between atoms: N_3  and  C_4
REMARK    3  A    between atoms: C_4  and  C_5
REMARK    4  A    between atoms: N_15  and  S_16
REMARK    5  A    between atoms: S_16  and  C_19
REMARK    6  A    between atoms: C_19  and  C_20
REMARK                            x       y       z     vdW  Elec       q    Type
REMARK                         _______ _______ _______ _____ _____    ______ ____
ROOT
ATOM      1  C   UNL     1       2.792   2.868  19.132  0.00  0.00    +0.000 C 
ATOM      2  C   UNL     1       4.205   2.860  19.717  0.00  0.00    +0.000 C 
ATOM      3  C   UNL     1       5.038   4.038  19.218  0.00  0.00    +0.000 C 
ATOM      4  N   UNL     1       5.153   3.976  17.732  0.00  0.00    +0.000 NA
ATOM      5  C   UNL     1       3.791   4.133  17.114  0.00  0.00    +0.000 C 
ATOM      6  C   UNL     1       2.829   3.051  17.611  0.00  0.00    +0.000 C 
ENDROOT
BRANCH   1   8
ATOM      7  O   UNL     1       0.740   3.686  20.134  0.00  0.00    +0.000 OA
ATOM      8  C   UNL     1       1.913   3.893  19.857  0.00  0.00    +0.000 C 
ATOM      9  N   UNL     1       2.560   5.089  20.099  0.00  0.00    +0.000 N 
ATOM     10  H   UNL     1       3.530   5.196  19.832  0.00  0.00    +0.000 HD
BRANCH   9  11
ATOM     11  C   UNL     1       1.929   6.239  20.715  0.00  0.00    +0.000 C 
BRANCH  11  12
ATOM     12  C   UNL     1       1.838   7.443  19.801  0.00  0.00    +0.000 A 
ATOM     13  C   UNL     1       2.442   7.375  18.532  0.00  0.00    +0.000 A 
ATOM     14  C   UNL     1       2.435   8.470  17.663  0.00  0.00    +0.000 A 
ATOM     15  C   UNL     1       1.819   9.659  18.043  0.00  0.00    +0.000 A 
ATOM     16  C   UNL     1       1.219   9.750  19.300  0.00  0.00    +0.000 A 
ATOM     17  C   UNL     1       1.234   8.658  20.173  0.00  0.00    +0.000 A 
ATOM     18 CL   UNL     1       0.506   8.872  21.728  0.00  0.00    +0.000 Cl
ENDBRANCH  11  12
ENDBRANCH   9  11
ENDBRANCH   1   8
BRANCH   4  19
ATOM     19  S   UNL     1       6.281   5.121  17.063  0.00  0.00    +0.000 S 
ATOM     20  O   UNL     1       6.364   6.214  18.009  0.00  0.00    +0.000 OA
ATOM     21  O   UNL     1       7.454   4.356  16.689  0.00  0.00    +0.000 OA
BRANCH  19  22
ATOM     22  C   UNL     1       5.435   5.702  15.570  0.00  0.00    +0.000 C 
BRANCH  22  23
ATOM     23  C   UNL     1       6.032   5.023  14.359  0.00  0.00    +0.000 A 
ATOM     24  C   UNL     1       7.257   5.463  13.829  0.00  0.00    +0.000 A 
ATOM     25  C   UNL     1       7.795   4.866  12.687  0.00  0.00    +0.000 A 
ATOM     26  C   UNL     1       7.120   3.821  12.064  0.00  0.00    +0.000 A 
ATOM     27  C   UNL     1       5.916   3.360  12.591  0.00  0.00    +0.000 A 
ATOM     28  C   UNL     1       5.374   3.955  13.734  0.00  0.00    +0.000 A 
ENDBRANCH  22  23
ENDBRANCH  19  22
ENDBRANCH   4  19
TORSDOF 6
ENDMDL
MODEL 2
REMARK VINA RESULT:      -8.3      5.220      7.380
REMARK  Name = 
REMARK  6 active torsions:
REMARK  status: ('A' for Active; 'I' for Inactive)
REMARK    1  A    between atoms: C_2  and  C_12
REMARK    2  A    between atoms: N_3  and  C_4
REMARK    3  A    between atoms: C_4  and  C_5
REMARK    4  A    between atoms: N_15  and  S_16
REMARK    5  A    between atoms: S_16  and  C_19
REMARK    6  A    between atoms: C_19  and  C_20
REMARK                            x       y       z     vdW  Elec       q    Type
REMARK                         _______ _______ _______ _____ _____    ______ ____
ROOT
ATOM      1  C   UNL     1       7.737   5.989  18.698  0.00  0.00    +0.000 C 
ATOM      2  C   UNL     1       7.875   4.833  17.707  0.00  0.00    +0.000 C 
ATOM      3  C   UNL     1       6.590   4.599  16.917  0.00  0.00    +0.000 C 
ATOM      4  N   UNL     1       5.478   4.273  17.855  0.00  0.00    +0.000 NA
ATOM      5  C   UNL     1       5.211   5.451  18.751  0.00  0.00    +0.000 C 
ATOM      6  C   UNL     1       6.464   5.843  19.539  0.00  0.00    +0.000 C 
ENDROOT
BRANCH   1   8
ATOM      7  O   UNL     1       7.407   7.528  16.852  0.00  0.00    +0.000 OA
ATOM      8  C   UNL     1       7.849   7.336  17.975  0.00  0.00    +0.000 C 
ATOM      9  N   UNL     1       8.557   8.281  18.693  0.00  0.00    +0.000 N 
ATOM     10  H   UNL     1       8.905   8.051  19.615  0.00  0.00    +0.000 HD
BRANCH   9  11
ATOM     11  C   UNL     1       8.854   9.613  18.204  0.00  0.00    +0.000 C 
BRANCH  11  12
ATOM     12  C   UNL     1       9.424  10.534  19.262  0.00  0.00    +0.000 A 
ATOM     13  C   UNL     1       8.855  10.517  20.550  0.00  0.00    +0.000 A 
ATOM     14  C   UNL     1       9.305  11.379  21.555  0.00  0.00    +0.000 A 
ATOM     15  C   UNL     1      10.337  12.276  21.296  0.00  0.00    +0.000 A 
ATOM     16  C   UNL     1      10.911  12.314  20.024  0.00  0.00    +0.000 A 
ATOM     17  C   UNL     1      10.455  11.458  19.015  0.00  0.00    +0.000 A 
ATOM     18 CL   UNL     1      11.192  11.602  17.457  0.00  0.00    +0.000 Cl
ENDBRANCH  11  12
ENDBRANCH   9  11
ENDBRANCH   1   8
BRANCH   4  19
ATOM     19  S   UNL     1       4.020   3.744  17.065  0.00  0.00    +0.000 S 
ATOM     20  O   UNL     1       2.996   4.712  17.406  0.00  0.00    +0.000 OA
ATOM     21  O   UNL     1       4.383   3.484  15.687  0.00  0.00    +0.000 OA
BRANCH  19  22
ATOM     22  C   UNL     1       3.646   2.180  17.900  0.00  0.00    +0.000 C 
BRANCH  22  23
ATOM     23  C   UNL     1       2.804   2.454  19.124  0.00  0.00    +0.000 A 
ATOM     24  C   UNL     1       3.406   2.580  20.388  0.00  0.00    +0.000 A 
ATOM     25  C   UNL     1       2.631   2.794  21.529  0.00  0.00    +0.000 A 
ATOM     26  C   UNL     1       1.247   2.888  21.423  0.00  0.00    +0.000 A 
ATOM     27  C   UNL     1       0.638   2.787  20.174  0.00  0.00    +0.000 A 
ATOM     28  C   UNL     1       1.410   2.573  19.029  0.00  0.00    +0.000 A 
ENDBRANCH  22  23
ENDBRANCH  19  22
ENDBRANCH   4  19
TORSDOF 6
ENDMDL
MODEL 3
REMARK VINA RESULT:      -8.2      0.868      1.353
REMARK  Name = 
REMARK  6 active torsions:
REMARK  status: ('A' for Active; 'I' for Inactive)
REMARK    1  A    between atoms: C_2  and  C_12
REMARK    2  A    between atoms: N_3  and  C_4
REMARK    3  A    between atoms: C_4  and  C_5
REMARK    4  A    between atoms: N_15  and  S_16
REMARK    5  A    between atoms: S_16  and  C_19
REMARK    6  A    between atoms: C_19  and  C_20
REMARK                            x       y       z     vdW  Elec       q    Type
REMARK                         _______ _______ _______ _____ _____    ______ ____
ROOT
ATOM      1  C   UNL     1       2.882   3.329  19.241  0.00  0.00    +0.000 C 
ATOM      2  C   UNL     1       4.323   3.528  19.713  0.00  0.00    +0.000 C 
ATOM      3  C   UNL     1       4.973   4.749  19.068  0.00  0.00    +0.000 C 
ATOM      4  N   UNL     1       4.992   4.581  17.586  0.00  0.00    +0.000 NA
ATOM      5  C   UNL     1       3.582   4.533  17.066  0.00  0.00    +0.000 C 
ATOM      6  C   UNL     1       2.792   3.393  17.713  0.00  0.00    +0.000 C 
ENDROOT
BRANCH   1   8
ATOM      7  O   UNL     1       0.760   4.055  20.166  0.00  0.00    +0.000 OA
ATOM      8  C   UNL     1       1.939   4.302  19.957  0.00  0.00    +0.000 C 
ATOM      9  N   UNL     1       2.540   5.505  20.275  0.00  0.00    +0.000 N 
ATOM     10  H   UNL     1       3.519   5.647  20.063  0.00  0.00    +0.000 HD
BRANCH   9  11
ATOM     11  C   UNL     1       1.847   6.614  20.900  0.00  0.00    +0.000 C 
BRANCH  11  12
ATOM     12  C   UNL     1       1.676   7.813  19.990  0.00  0.00    +0.000 A 
ATOM     13  C   UNL     1       2.275   7.784  18.717  0.00  0.00    +0.000 A 
ATOM     14  C   UNL     1       2.194   8.879  17.850  0.00  0.00    +0.000 A 
ATOM     15  C   UNL     1       1.510  10.027  18.238  0.00  0.00    +0.000 A 
ATOM     16  C   UNL     1       0.914  10.079  19.499  0.00  0.00    +0.000 A 
ATOM     17  C   UNL     1       1.003   8.988  20.370  0.00  0.00    +0.000 A 
ATOM     18 CL   UNL     1       0.274   9.153  21.930  0.00  0.00    +0.000 Cl
ENDBRANCH  11  12
ENDBRANCH   9  11
ENDBRANCH   1   8
BRANCH   4  19
ATOM     19  S   UNL     1       5.927   5.789  16.751  0.00  0.00    +0.000 S 
ATOM     20  O   UNL     1       5.092   6.278  15.672  0.00  0.00    +0.000 OA
ATOM     21  O   UNL     1       6.436   6.680  17.774  0.00  0.00    +0.000 OA
BRANCH  19  22
ATOM     22  C   UNL     1       7.294   4.832  16.045  0.00  0.00    +0.000 C 
BRANCH  22  23
ATOM     23  C   UNL     1       7.025   4.581  14.580  0.00  0.00    +0.000 A 
ATOM     24  C   UNL     1       6.027   3.673  14.186  0.00  0.00    +0.000 A 
ATOM     25  C   UNL     1       5.799   3.406  12.834  0.00  0.00    +0.000 A 
ATOM     26  C   UNL     1       6.562   4.042  11.860  0.00  0.00    +0.000 A 
ATOM     27  C   UNL     1       7.541   4.960  12.235  0.00  0.00    +0.000 A 
ATOM     28  C   UNL     1       7.772   5.231  13.587  0.00  0.00    +0.000 A 
ENDBRANCH  22  23
ENDBRANCH  19  22
ENDBRANCH   4  19
TORSDOF 6
ENDMDL
MODEL 4
REMARK VINA RESULT:      -8.2      0.568      1.087
REMARK  Name = 
REMARK  6 active torsions:
REMARK  status: ('A' for Active; 'I' for Inactive)
REMARK    1  A    between atoms: C_2  and  C_12
REMARK    2  A    between atoms: N_3  and  C_4
REMARK    3  A    between atoms: C_4  and  C_5
REMARK    4  A    between atoms: N_15  and  S_16
REMARK    5  A    between atoms: S_16  and  C_19
REMARK    6  A    between atoms: C_19  and  C_20
REMARK                            x       y       z     vdW  Elec       q    Type
REMARK                         _______ _______ _______ _____ _____    ______ ____
ROOT
ATOM      1  C   UNL     1       3.075   3.088  19.428  0.00  0.00    +0.000 C 
ATOM      2  C   UNL     1       4.540   2.739  19.698  0.00  0.00    +0.000 C 
ATOM      3  C   UNL     1       5.489   3.829  19.204  0.00  0.00    +0.000 C 
ATOM      4  N   UNL     1       5.321   4.009  17.734  0.00  0.00    +0.000 NA
ATOM      5  C   UNL     1       3.929   4.500  17.441  0.00  0.00    +0.000 C 
ATOM      6  C   UNL     1       2.875   3.526  17.973  0.00  0.00    +0.000 C 
ENDROOT
BRANCH   1   8
ATOM      7  O   UNL     1       2.301   3.806  21.612  0.00  0.00    +0.000 OA
ATOM      8  C   UNL     1       2.563   4.103  20.456  0.00  0.00    +0.000 C 
ATOM      9  N   UNL     1       2.365   5.362  19.923  0.00  0.00    +0.000 N 
ATOM     10  H   UNL     1       2.592   5.536  18.952  0.00  0.00    +0.000 HD
BRANCH   9  11
ATOM     11  C   UNL     1       1.829   6.482  20.671  0.00  0.00    +0.000 C 
BRANCH  11  12
ATOM     12  C   UNL     1       1.679   7.745  19.849  0.00  0.00    +0.000 A 
ATOM     13  C   UNL     1       2.258   7.789  18.567  0.00  0.00    +0.000 A 
ATOM     14  C   UNL     1       2.197   8.943  17.780  0.00  0.00    +0.000 A 
ATOM     15  C   UNL     1       1.550  10.079  18.257  0.00  0.00    +0.000 A 
ATOM     16  C   UNL     1       0.974  10.059  19.528  0.00  0.00    +0.000 A 
ATOM     17  C   UNL     1       1.044   8.908  20.319  0.00  0.00    +0.000 A 
ATOM     18 CL   UNL     1       0.342   8.984  21.898  0.00  0.00    +0.000 Cl
ENDBRANCH  11  12
ENDBRANCH   9  11
ENDBRANCH   1   8
BRANCH   4  19
ATOM     19  S   UNL     1       6.516   5.047  17.009  0.00  0.00    +0.000 S 
ATOM     20  O   UNL     1       6.773   6.105  17.965  0.00  0.00    +0.000 OA
ATOM     21  O   UNL     1       7.577   4.174  16.547  0.00  0.00    +0.000 OA
BRANCH  19  22
ATOM     22  C   UNL     1       5.642   5.745  15.584  0.00  0.00    +0.000 C 
BRANCH  22  23
ATOM     23  C   UNL     1       6.108   5.056  14.323  0.00  0.00    +0.000 A 
ATOM     24  C   UNL     1       5.367   3.992  13.779  0.00  0.00    +0.000 A 
ATOM     25  C   UNL     1       5.812   3.324  12.637  0.00  0.00    +0.000 A 
ATOM     26  C   UNL     1       6.998   3.711  12.022  0.00  0.00    +0.000 A 
ATOM     27  C   UNL     1       7.732   4.777  12.537  0.00  0.00    +0.000 A 
ATOM     28  C   UNL     1       7.290   5.449  13.681  0.00  0.00    +0.000 A 
ENDBRANCH  22  23
ENDBRANCH  19  22
ENDBRANCH   4  19
TORSDOF 6
ENDMDL
MODEL 5
REMARK VINA RESULT:      -7.9      5.096      7.494
REMARK  Name = 
REMARK  6 active torsions:
REMARK  status: ('A' for Active; 'I' for Inactive)
REMARK    1  A    between atoms: C_2  and  C_12
REMARK    2  A    between atoms: N_3  and  C_4
REMARK    3  A    between atoms: C_4  and  C_5
REMARK    4  A    between atoms: N_15  and  S_16
REMARK    5  A    between atoms: S_16  and  C_19
REMARK    6  A    between atoms: C_19  and  C_20
REMARK                            x       y       z     vdW  Elec       q    Type
REMARK                         _______ _______ _______ _____ _____    ______ ____
ROOT
ATOM      1  C   UNL     1       7.922   6.365  18.167  0.00  0.00    +0.000 C 
ATOM      2  C   UNL     1       7.842   5.473  16.928  0.00  0.00    +0.000 C 
ATOM      3  C   UNL     1       6.400   5.156  16.541  0.00  0.00    +0.000 C 
ATOM      4  N   UNL     1       5.725   4.446  17.665  0.00  0.00    +0.000 NA
ATOM      5  C   UNL     1       5.649   5.354  18.863  0.00  0.00    +0.000 C 
ATOM      6  C   UNL     1       7.042   5.816  19.296  0.00  0.00    +0.000 C 
ENDROOT
BRANCH   1   8
ATOM      7  O   UNL     1       6.779   8.143  16.976  0.00  0.00    +0.000 OA
ATOM      8  C   UNL     1       7.621   7.823  17.803  0.00  0.00    +0.000 C 
ATOM      9  N   UNL     1       8.443   8.725  18.450  0.00  0.00    +0.000 N 
ATOM     10  H   UNL     1       9.129   8.390  19.115  0.00  0.00    +0.000 HD
BRANCH   9  11
ATOM     11  C   UNL     1       8.402  10.158  18.232  0.00  0.00    +0.000 C 
BRANCH  11  12
ATOM     12  C   UNL     1       9.657  10.876  18.682  0.00  0.00    +0.000 A 
ATOM     13  C   UNL     1      10.631  11.202  17.720  0.00  0.00    +0.000 A 
ATOM     14  C   UNL     1      11.832  11.821  18.081  0.00  0.00    +0.000 A 
ATOM     15  C   UNL     1      12.084  12.131  19.414  0.00  0.00    +0.000 A 
ATOM     16  C   UNL     1      11.134  11.811  20.385  0.00  0.00    +0.000 A 
ATOM     17  C   UNL     1       9.937  11.184  20.026  0.00  0.00    +0.000 A 
ATOM     18 CL   UNL     1       8.835  10.783  21.298  0.00  0.00    +0.000 Cl
ENDBRANCH  11  12
ENDBRANCH   9  11
ENDBRANCH   1   8
BRANCH   4  19
ATOM     19  S   UNL     1       4.155   3.813  17.260  0.00  0.00    +0.000 S 
ATOM     20  O   UNL     1       3.993   4.003  15.832  0.00  0.00    +0.000 OA
ATOM     21  O   UNL     1       4.088   2.494  17.857  0.00  0.00    +0.000 OA
BRANCH  19  22
ATOM     22  C   UNL     1       3.025   4.930  18.130  0.00  0.00    +0.000 C 
BRANCH  22  23
ATOM     23  C   UNL     1       2.361   4.187  19.265  0.00  0.00    +0.000 A 
ATOM     24  C   UNL     1       1.232   3.385  19.026  0.00  0.00    +0.000 A 
ATOM     25  C   UNL     1       0.590   2.727  20.077  0.00  0.00    +0.000 A 
ATOM     26  C   UNL     1       1.068   2.858  21.377  0.00  0.00    +0.000 A 
ATOM     27  C   UNL     1       2.199   3.633  21.626  0.00  0.00    +0.000 A 
ATOM     28  C   UNL     1       2.845   4.293  20.577  0.00  0.00    +0.000 A 
ENDBRANCH  22  23
ENDBRANCH  19  22
ENDBRANCH   4  19
TORSDOF 6
ENDMDL
MODEL 6
REMARK VINA RESULT:      -7.9      1.027      1.211
REMARK  Name = 
REMARK  6 active torsions:
REMARK  status: ('A' for Active; 'I' for Inactive)
REMARK    1  A    between atoms: C_2  and  C_12
REMARK    2  A    between atoms: N_3  and  C_4
REMARK    3  A    between atoms: C_4  and  C_5
REMARK    4  A    between atoms: N_15  and  S_16
REMARK    5  A    between atoms: S_16  and  C_19
REMARK    6  A    between atoms: C_19  and  C_20
REMARK                            x       y       z     vdW  Elec       q    Type
REMARK                         _______ _______ _______ _____ _____    ______ ____
ROOT
ATOM      1  C   UNL     1       3.606   3.574  19.245  0.00  0.00    +0.000 C 
ATOM      2  C   UNL     1       4.904   4.243  19.697  0.00  0.00    +0.000 C 
ATOM      3  C   UNL     1       5.292   5.411  18.792  0.00  0.00    +0.000 C 
ATOM      4  N   UNL     1       5.486   4.921  17.398  0.00  0.00    +0.000 NA
ATOM      5  C   UNL     1       4.184   4.390  16.863  0.00  0.00    +0.000 C 
ATOM      6  C   UNL     1       3.642   3.262  17.745  0.00  0.00    +0.000 C 
ENDROOT
BRANCH   1   8
ATOM      7  O   UNL     1       1.242   4.100  19.391  0.00  0.00    +0.000 OA
ATOM      8  C   UNL     1       2.391   4.405  19.674  0.00  0.00    +0.000 C 
ATOM      9  N   UNL     1       2.736   5.562  20.346  0.00  0.00    +0.000 N 
ATOM     10  H   UNL     1       3.710   5.759  20.536  0.00  0.00    +0.000 HD
BRANCH   9  11
ATOM     11  C   UNL     1       1.776   6.548  20.803  0.00  0.00    +0.000 C 
BRANCH  11  12
ATOM     12  C   UNL     1       1.683   7.765  19.905  0.00  0.00    +0.000 A 
ATOM     13  C   UNL     1       2.327   7.732  18.654  0.00  0.00    +0.000 A 
ATOM     14  C   UNL     1       2.319   8.842  17.803  0.00  0.00    +0.000 A 
ATOM     15  C   UNL     1       1.663  10.008  18.183  0.00  0.00    +0.000 A 
ATOM     16  C   UNL     1       1.023  10.064  19.422  0.00  0.00    +0.000 A 
ATOM     17  C   UNL     1       1.039   8.958  20.278  0.00  0.00    +0.000 A 
ATOM     18 CL   UNL     1       0.259   9.128  21.813  0.00  0.00    +0.000 Cl
ENDBRANCH  11  12
ENDBRANCH   9  11
ENDBRANCH   1   8
BRANCH   4  19
ATOM     19  S   UNL     1       6.168   6.106  16.321  0.00  0.00    +0.000 S 
ATOM     20  O   UNL     1       5.176   6.342  15.291  0.00  0.00    +0.000 OA
ATOM     21  O   UNL     1       6.651   7.182  17.164  0.00  0.00    +0.000 OA
BRANCH  19  22
ATOM     22  C   UNL     1       7.575   5.232  15.588  0.00  0.00    +0.000 C 
BRANCH  22  23
ATOM     23  C   UNL     1       7.195   4.737  14.212  0.00  0.00    +0.000 A 
ATOM     24  C   UNL     1       7.833   5.251  13.070  0.00  0.00    +0.000 A 
ATOM     25  C   UNL     1       7.461   4.827  11.793  0.00  0.00    +0.000 A 
ATOM     26  C   UNL     1       6.449   3.884  11.640  0.00  0.00    +0.000 A 
ATOM     27  C   UNL     1       5.822   3.350  12.763  0.00  0.00    +0.000 A 
ATOM     28  C   UNL     1       6.192   3.771  14.043  0.00  0.00    +0.000 A 
ENDBRANCH  22  23
ENDBRANCH  19  22
ENDBRANCH   4  19
TORSDOF 6
ENDMDL
MODEL 7
REMARK VINA RESULT:      -7.9      1.952      3.014
REMARK  Name = 
REMARK  6 active torsions:
REMARK  status: ('A' for Active; 'I' for Inactive)
REMARK    1  A    between atoms: C_2  and  C_12
REMARK    2  A    between atoms: N_3  and  C_4
REMARK    3  A    between atoms: C_4  and  C_5
REMARK    4  A    between atoms: N_15  and  S_16
REMARK    5  A    between atoms: S_16  and  C_19
REMARK    6  A    between atoms: C_19  and  C_20
REMARK                            x       y       z     vdW  Elec       q    Type
REMARK                         _______ _______ _______ _____ _____    ______ ____
ROOT
ATOM      1  C   UNL     1       2.681   2.640  19.361  0.00  0.00    +0.000 C 
ATOM      2  C   UNL     1       4.168   2.948  19.540  0.00  0.00    +0.000 C 
ATOM      3  C   UNL     1       4.655   4.012  18.560  0.00  0.00    +0.000 C 
ATOM      4  N   UNL     1       4.447   3.538  17.162  0.00  0.00    +0.000 NA
ATOM      5  C   UNL     1       2.976   3.369  16.900  0.00  0.00    +0.000 C 
ATOM      6  C   UNL     1       2.348   2.382  17.887  0.00  0.00    +0.000 C 
ENDROOT
BRANCH   1   8
ATOM      7  O   UNL     1       0.614   3.624  20.166  0.00  0.00    +0.000 OA
ATOM      8  C   UNL     1       1.821   3.733  20.006  0.00  0.00    +0.000 C 
ATOM      9  N   UNL     1       2.537   4.872  20.319  0.00  0.00    +0.000 N 
ATOM     10  H   UNL     1       3.534   4.900  20.148  0.00  0.00    +0.000 HD
BRANCH   9  11
ATOM     11  C   UNL     1       1.945   6.070  20.882  0.00  0.00    +0.000 C 
BRANCH  11  12
ATOM     12  C   UNL     1       1.892   7.233  19.912  0.00  0.00    +0.000 A 
ATOM     13  C   UNL     1       2.527   7.101  18.663  0.00  0.00    +0.000 A 
ATOM     14  C   UNL     1       2.555   8.155  17.746  0.00  0.00    +0.000 A 
ATOM     15  C   UNL     1       1.945   9.367  18.056  0.00  0.00    +0.000 A 
ATOM     16  C   UNL     1       1.315   9.522  19.292  0.00  0.00    +0.000 A 
ATOM     17  C   UNL     1       1.295   8.470  20.214  0.00  0.00    +0.000 A 
ATOM     18 CL   UNL     1       0.531   8.762  21.738  0.00  0.00    +0.000 Cl
ENDBRANCH  11  12
ENDBRANCH   9  11
ENDBRANCH   1   8
BRANCH   4  19
ATOM     19  S   UNL     1       5.185   4.553  15.955  0.00  0.00    +0.000 S 
ATOM     20  O   UNL     1       4.918   3.927  14.676  0.00  0.00    +0.000 OA
ATOM     21  O   UNL     1       4.743   5.903  16.242  0.00  0.00    +0.000 OA
BRANCH  19  22
ATOM     22  C   UNL     1       6.953   4.403  16.320  0.00  0.00    +0.000 C 
BRANCH  22  23
ATOM     23  C   UNL     1       7.382   5.556  17.199  0.00  0.00    +0.000 A 
ATOM     24  C   UNL     1       7.382   6.869  16.699  0.00  0.00    +0.000 A 
ATOM     25  C   UNL     1       7.814   7.934  17.491  0.00  0.00    +0.000 A 
ATOM     26  C   UNL     1       8.249   7.702  18.793  0.00  0.00    +0.000 A 
ATOM     27  C   UNL     1       8.235   6.408  19.309  0.00  0.00    +0.000 A 
ATOM     28  C   UNL     1       7.802   5.340  18.518  0.00  0.00    +0.000 A 
ENDBRANCH  22  23
ENDBRANCH  19  22
ENDBRANCH   4  19
TORSDOF 6
ENDMDL
MODEL 8
REMARK VINA RESULT:      -7.8      4.812      7.166
REMARK  Name = 
REMARK  6 active torsions:
REMARK  status: ('A' for Active; 'I' for Inactive)
REMARK    1  A    between atoms: C_2  and  C_12
REMARK    2  A    between atoms: N_3  and  C_4
REMARK    3  A    between atoms: C_4  and  C_5
REMARK    4  A    between atoms: N_15  and  S_16
REMARK    5  A    between atoms: S_16  and  C_19
REMARK    6  A    between atoms: C_19  and  C_20
REMARK                            x       y       z     vdW  Elec       q    Type
REMARK                         _______ _______ _______ _____ _____    ______ ____
ROOT
ATOM      1  C   UNL     1       7.631   6.021  18.573  0.00  0.00    +0.000 C 
ATOM      2  C   UNL     1       7.775   4.708  17.803  0.00  0.00    +0.000 C 
ATOM      3  C   UNL     1       6.529   4.385  16.982  0.00  0.00    +0.000 C 
ATOM      4  N   UNL     1       5.351   4.262  17.888  0.00  0.00    +0.000 NA
ATOM      5  C   UNL     1       5.084   5.585  18.552  0.00  0.00    +0.000 C 
ATOM      6  C   UNL     1       6.305   6.064  19.342  0.00  0.00    +0.000 C 
ENDROOT
BRANCH   1   8
ATOM      7  O   UNL     1       7.824   7.127  16.422  0.00  0.00    +0.000 OA
ATOM      8  C   UNL     1       7.843   7.220  17.641  0.00  0.00    +0.000 C 
ATOM      9  N   UNL     1       8.125   8.390  18.318  0.00  0.00    +0.000 N 
ATOM     10  H   UNL     1       8.136   8.393  19.330  0.00  0.00    +0.000 HD
BRANCH   9  11
ATOM     11  C   UNL     1       8.425   9.650  17.665  0.00  0.00    +0.000 C 
BRANCH  11  12
ATOM     12  C   UNL     1       8.912  10.724  18.616  0.00  0.00    +0.000 A 
ATOM     13  C   UNL     1       9.574  10.334  19.794  0.00  0.00    +0.000 A 
ATOM     14  C   UNL     1      10.003  11.277  20.734  0.00  0.00    +0.000 A 
ATOM     15  C   UNL     1       9.782  12.633  20.513  0.00  0.00    +0.000 A 
ATOM     16  C   UNL     1       9.122  13.041  19.353  0.00  0.00    +0.000 A 
ATOM     17  C   UNL     1       8.684  12.098  18.418  0.00  0.00    +0.000 A 
ATOM     18 CL   UNL     1       7.835  12.688  17.031  0.00  0.00    +0.000 Cl
ENDBRANCH  11  12
ENDBRANCH   9  11
ENDBRANCH   1   8
BRANCH   4  19
ATOM     19  S   UNL     1       3.919   3.654  17.106  0.00  0.00    +0.000 S 
ATOM     20  O   UNL     1       2.853   4.580  17.429  0.00  0.00    +0.000 OA
ATOM     21  O   UNL     1       4.296   3.387  15.732  0.00  0.00    +0.000 OA
BRANCH  19  22
ATOM     22  C   UNL     1       3.615   2.090  17.967  0.00  0.00    +0.000 C 
BRANCH  22  23
ATOM     23  C   UNL     1       2.796   2.352  19.209  0.00  0.00    +0.000 A 
ATOM     24  C   UNL     1       1.397   2.458  19.129  0.00  0.00    +0.000 A 
ATOM     25  C   UNL     1       0.636   2.739  20.266  0.00  0.00    +0.000 A 
ATOM     26  C   UNL     1       1.262   2.916  21.496  0.00  0.00    +0.000 A 
ATOM     27  C   UNL     1       2.647   2.793  21.595  0.00  0.00    +0.000 A 
ATOM     28  C   UNL     1       3.411   2.511  20.459  0.00  0.00    +0.000 A 
ENDBRANCH  22  23
ENDBRANCH  19  22
ENDBRANCH   4  19
TORSDOF 6
ENDMDL
MODEL 9
REMARK VINA RESULT:      -7.8      2.255      2.986
REMARK  Name = 
REMARK  6 active torsions:
REMARK  status: ('A' for Active; 'I' for Inactive)
REMARK    1  A    between atoms: C_2  and  C_12
REMARK    2  A    between atoms: N_3  and  C_4
REMARK    3  A    between atoms: C_4  and  C_5
REMARK    4  A    between atoms: N_15  and  S_16
REMARK    5  A    between atoms: S_16  and  C_19
REMARK    6  A    between atoms: C_19  and  C_20
REMARK                            x       y       z     vdW  Elec       q    Type
REMARK                         _______ _______ _______ _____ _____    ______ ____
ROOT
ATOM      1  C   UNL     1       2.302   2.806  19.439  0.00  0.00    +0.000 C 
ATOM      2  C   UNL     1       3.746   2.305  19.394  0.00  0.00    +0.000 C 
ATOM      3  C   UNL     1       4.662   3.266  18.640  0.00  0.00    +0.000 C 
ATOM      4  N   UNL     1       4.183   3.416  17.236  0.00  0.00    +0.000 NA
ATOM      5  C   UNL     1       2.818   4.050  17.234  0.00  0.00    +0.000 C 
ATOM      6  C   UNL     1       1.820   3.217  18.043  0.00  0.00    +0.000 C 
ENDROOT
BRANCH   1   8
ATOM      7  O   UNL     1       1.977   3.667  21.683  0.00  0.00    +0.000 OA
ATOM      8  C   UNL     1       2.143   3.905  20.495  0.00  0.00    +0.000 C 
ATOM      9  N   UNL     1       2.138   5.177  19.959  0.00  0.00    +0.000 N 
ATOM     10  H   UNL     1       2.269   5.301  18.963  0.00  0.00    +0.000 HD
BRANCH   9  11
ATOM     11  C   UNL     1       1.942   6.383  20.739  0.00  0.00    +0.000 C 
BRANCH  11  12
ATOM     12  C   UNL     1       1.765   7.629  19.896  0.00  0.00    +0.000 A 
ATOM     13  C   UNL     1       2.320   7.654  18.603  0.00  0.00    +0.000 A 
ATOM     14  C   UNL     1       2.232   8.793  17.795  0.00  0.00    +0.000 A 
ATOM     15  C   UNL     1       1.584   9.931  18.263  0.00  0.00    +0.000 A 
ATOM     16  C   UNL     1       1.031   9.930  19.544  0.00  0.00    +0.000 A 
ATOM     17  C   UNL     1       1.127   8.795  20.356  0.00  0.00    +0.000 A 
ATOM     18 CL   UNL     1       0.453   8.895  21.946  0.00  0.00    +0.000 Cl
ENDBRANCH  11  12
ENDBRANCH   9  11
ENDBRANCH   1   8
BRANCH   4  19
ATOM     19  S   UNL     1       5.279   4.290  16.205  0.00  0.00    +0.000 S 
ATOM     20  O   UNL     1       6.616   3.910  16.614  0.00  0.00    +0.000 OA
ATOM     21  O   UNL     1       4.815   4.072  14.849  0.00  0.00    +0.000 OA
BRANCH  19  22
ATOM     22  C   UNL     1       4.994   6.017  16.673  0.00  0.00    +0.000 C 
BRANCH  22  23
ATOM     23  C   UNL     1       6.196   6.537  17.426  0.00  0.00    +0.000 A 
ATOM     24  C   UNL     1       6.780   7.765  17.071  0.00  0.00    +0.000 A 
ATOM     25  C   UNL     1       7.915   8.234  17.736  0.00  0.00    +0.000 A 
ATOM     26  C   UNL     1       8.478   7.484  18.765  0.00  0.00    +0.000 A 
ATOM     27  C   UNL     1       7.898   6.275  19.141  0.00  0.00    +0.000 A 
ATOM     28  C   UNL     1       6.761   5.803  18.478  0.00  0.00    +0.000 A 
ENDBRANCH  22  23
ENDBRANCH  19  22
ENDBRANCH   4  19
TORSDOF 6
ENDMDL
