MODEL 1
REMARK VINA RESULT:      -7.9      0.000      0.000
REMARK  Name = 
REMARK  4 active torsions:
REMARK  status: ('A' for Active; 'I' for Inactive)
REMARK    1  A    between atoms: C_1  and  C_2
REMARK    2  A    between atoms: C_8  and  N_9
REMARK    3  A    between atoms: C_10  and  C_12
REMARK    4  A    between atoms: C_18  and  O_19
REMARK                            x       y       z     vdW  Elec       q    Type
REMARK                         _______ _______ _______ _____ _____    ______ ____
ROOT
ATOM      1  C   UNL     1       1.160   8.036  20.488  0.00  0.00    +0.000 C 
ATOM      2  C   UNL     1       1.888   6.737  20.337  0.00  0.00    +0.000 A 
ATOM      3  N   UNL     1       2.972   6.738  19.547  0.00  0.00    +0.000 NA
ATOM      4  C   UNL     1       3.661   5.591  19.308  0.00  0.00    +0.000 A 
ATOM      5  N   UNL     1       4.682   5.610  18.327  0.00  0.00    +0.000 N 
ATOM      6  C   UNL     1       4.473   6.721  17.366  0.00  0.00    +0.000 C 
ATOM      7  C   UNL     1       5.443   6.580  16.191  0.00  0.00    +0.000 C 
ATOM      8  C   UNL     1       6.903   6.530  16.670  0.00  0.00    +0.000 C 
ATOM      9  C   UNL     1       7.048   5.418  17.751  0.00  0.00    +0.000 C 
ATOM     10  C   UNL     1       6.048   5.642  18.908  0.00  0.00    +0.000 C 
ATOM     11  C   UNL     1       3.205   4.413  19.956  0.00  0.00    +0.000 A 
ATOM     12  C   UNL     1       3.629   3.031  19.969  0.00  0.00    +0.000 A 
ATOM     13  C   UNL     1       2.810   2.220  20.726  0.00  0.00    +0.000 A 
ATOM     14  S   UNL     1       1.519   3.089  21.422  0.00  0.00    +0.000 S 
ATOM     15  C   UNL     1       2.063   4.552  20.733  0.00  0.00    +0.000 A 
ATOM     16  N   UNL     1       1.368   5.675  20.958  0.00  0.00    +0.000 NA
ENDROOT
BRANCH   8  17
ATOM     17  N   UNL     1       7.350   7.871  17.100  0.00  0.00    +0.000 N 
ATOM     18  C   UNL     1       8.208   8.083  18.163  0.00  0.00    +0.000 C 
ATOM     19  O   UNL     1       8.627   7.178  18.873  0.00  0.00    +0.000 OA
ATOM     20  H   UNL     1       7.225   8.666  16.479  0.00  0.00    +0.000 HD
BRANCH  18  21
ATOM     21  C   UNL     1       8.580   9.503  18.455  0.00  0.00    +0.000 A 
ATOM     22  C   UNL     1       8.160  10.496  17.575  0.00  0.00    +0.000 A 
ATOM     23  N   UNL     1       8.490  11.804  17.728  0.00  0.00    +0.000 NA
ATOM     24  C   UNL     1       9.267  12.079  18.795  0.00  0.00    +0.000 A 
ATOM     25  C   UNL     1       9.692  11.091  19.677  0.00  0.00    +0.000 A 
ATOM     26  N   UNL     1       9.356   9.778  19.542  0.00  0.00    +0.000 NA
ENDBRANCH  18  21
ENDBRANCH   8  17
BRANCH   9  27
ATOM     27  O   UNL     1       6.759   4.131  17.159  0.00  0.00    +0.000 OA
ATOM     28  H   UNL     1       7.346   3.499  17.622  0.00  0.00    +0.000 HD
ENDBRANCH   9  27
TORSDOF 3
ENDMDL
MODEL 2
REMARK VINA RESULT:      -7.4      7.996      9.560
REMARK  Name = 
REMARK  4 active torsions:
REMARK  status: ('A' for Active; 'I' for Inactive)
REMARK    1  A    between atoms: C_1  and  C_2
REMARK    2  A    between atoms: C_8  and  N_9
REMARK    3  A    between atoms: C_10  and  C_12
REMARK    4  A    between atoms: C_18  and  O_19
REMARK                            x       y       z     vdW  Elec       q    Type
REMARK                         _______ _______ _______ _____ _____    ______ ____
ROOT
ATOM      1  C   UNL     1      -2.807  10.682  15.396  0.00  0.00    +0.000 C 
ATOM      2  C   UNL     1      -3.421  11.186  16.665  0.00  0.00    +0.000 A 
ATOM      3  N   UNL     1      -2.581  11.485  17.667  0.00  0.00    +0.000 NA
ATOM      4  C   UNL     1      -3.055  11.896  18.873  0.00  0.00    +0.000 A 
ATOM      5  N   UNL     1      -2.142  12.021  19.949  0.00  0.00    +0.000 N 
ATOM      6  C   UNL     1      -0.937  11.188  19.720  0.00  0.00    +0.000 C 
ATOM      7  C   UNL     1      -0.081  11.155  20.988  0.00  0.00    +0.000 C 
ATOM      8  C   UNL     1       0.304  12.571  21.444  0.00  0.00    +0.000 C 
ATOM      9  C   UNL     1      -0.985  13.435  21.570  0.00  0.00    +0.000 C 
ATOM     10  C   UNL     1      -1.782  13.431  20.245  0.00  0.00    +0.000 C 
ATOM     11  C   UNL     1      -4.463  12.026  19.008  0.00  0.00    +0.000 A 
ATOM     12  C   UNL     1      -5.349  12.412  20.082  0.00  0.00    +0.000 A 
ATOM     13  C   UNL     1      -6.683  12.324  19.742  0.00  0.00    +0.000 A 
ATOM     14  S   UNL     1      -6.898  11.771  18.144  0.00  0.00    +0.000 S 
ATOM     15  C   UNL     1      -5.213  11.669  17.896  0.00  0.00    +0.000 A 
ATOM     16  N   UNL     1      -4.755  11.246  16.711  0.00  0.00    +0.000 NA
ENDROOT
BRANCH   8  17
ATOM     17  N   UNL     1       1.340  13.134  20.555  0.00  0.00    +0.000 N 
ATOM     18  C   UNL     1       2.326  14.002  20.988  0.00  0.00    +0.000 C 
ATOM     19  O   UNL     1       2.389  14.419  22.137  0.00  0.00    +0.000 OA
ATOM     20  H   UNL     1       1.502  12.717  19.642  0.00  0.00    +0.000 HD
BRANCH  18  21
ATOM     21  C   UNL     1       3.313  14.465  19.963  0.00  0.00    +0.000 A 
ATOM     22  C   UNL     1       4.580  14.854  20.385  0.00  0.00    +0.000 A 
ATOM     23  N   UNL     1       5.526  15.334  19.538  0.00  0.00    +0.000 NA
ATOM     24  C   UNL     1       5.148  15.420  18.246  0.00  0.00    +0.000 A 
ATOM     25  C   UNL     1       3.882  15.035  17.817  0.00  0.00    +0.000 A 
ATOM     26  N   UNL     1       2.931  14.538  18.656  0.00  0.00    +0.000 NA
ENDBRANCH  18  21
ENDBRANCH   8  17
BRANCH   9  27
ATOM     27  O   UNL     1      -1.836  12.883  22.601  0.00  0.00    +0.000 OA
ATOM     28  H   UNL     1      -2.181  12.046  22.227  0.00  0.00    +0.000 HD
ENDBRANCH   9  27
TORSDOF 3
ENDMDL
MODEL 3
REMARK VINA RESULT:      -7.1      3.818      6.348
REMARK  Name = 
REMARK  4 active torsions:
REMARK  status: ('A' for Active; 'I' for Inactive)
REMARK    1  A    between atoms: C_1  and  C_2
REMARK    2  A    between atoms: C_8  and  N_9
REMARK    3  A    between atoms: C_10  and  C_12
REMARK    4  A    between atoms: C_18  and  O_19
REMARK                            x       y       z     vdW  Elec       q    Type
REMARK                         _______ _______ _______ _____ _____    ______ ____
ROOT
ATOM      1  C   UNL     1       1.783   1.885  19.191  0.00  0.00    +0.000 C 
ATOM      2  C   UNL     1       2.108   3.347  19.185  0.00  0.00    +0.000 A 
ATOM      3  N   UNL     1       3.153   3.733  18.436  0.00  0.00    +0.000 NA
ATOM      4  C   UNL     1       3.553   5.031  18.417  0.00  0.00    +0.000 A 
ATOM      5  N   UNL     1       4.766   5.353  17.759  0.00  0.00    +0.000 N 
ATOM      6  C   UNL     1       5.647   4.164  17.662  0.00  0.00    +0.000 C 
ATOM      7  C   UNL     1       7.032   4.584  17.166  0.00  0.00    +0.000 C 
ATOM      8  C   UNL     1       6.947   5.321  15.820  0.00  0.00    +0.000 C 
ATOM      9  C   UNL     1       5.933   6.496  15.944  0.00  0.00    +0.000 C 
ATOM     10  C   UNL     1       4.558   5.987  16.432  0.00  0.00    +0.000 C 
ATOM     11  C   UNL     1       2.801   5.955  19.190  0.00  0.00    +0.000 A 
ATOM     12  C   UNL     1       2.888   7.375  19.446  0.00  0.00    +0.000 A 
ATOM     13  C   UNL     1       1.939   7.823  20.340  0.00  0.00    +0.000 A 
ATOM     14  S   UNL     1       0.939   6.560  20.896  0.00  0.00    +0.000 S 
ATOM     15  C   UNL     1       1.755   5.417  19.928  0.00  0.00    +0.000 A 
ATOM     16  N   UNL     1       1.366   4.135  19.967  0.00  0.00    +0.000 NA
ENDROOT
BRANCH   8  17
ATOM     17  N   UNL     1       6.658   4.368  14.729  0.00  0.00    +0.000 N 
ATOM     18  C   UNL     1       7.084   4.550  13.426  0.00  0.00    +0.000 C 
ATOM     19  O   UNL     1       7.693   5.545  13.056  0.00  0.00    +0.000 OA
ATOM     20  H   UNL     1       6.334   3.431  14.952  0.00  0.00    +0.000 HD
BRANCH  18  21
ATOM     21  C   UNL     1       6.724   3.479  12.445  0.00  0.00    +0.000 A 
ATOM     22  C   UNL     1       5.379   3.193  12.234  0.00  0.00    +0.000 A 
ATOM     23  N   UNL     1       4.955   2.207  11.402  0.00  0.00    +0.000 NA
ATOM     24  C   UNL     1       5.937   1.508  10.794  0.00  0.00    +0.000 A 
ATOM     25  C   UNL     1       7.283   1.787  11.003  0.00  0.00    +0.000 A 
ATOM     26  N   UNL     1       7.719   2.783  11.824  0.00  0.00    +0.000 NA
ENDBRANCH  18  21
ENDBRANCH   8  17
BRANCH   9  27
ATOM     27  O   UNL     1       6.421   7.453  16.912  0.00  0.00    +0.000 OA
ATOM     28  H   UNL     1       7.390   7.484  16.775  0.00  0.00    +0.000 HD
ENDBRANCH   9  27
TORSDOF 3
ENDMDL
MODEL 4
REMARK VINA RESULT:      -7.0      7.738     11.249
REMARK  Name = 
REMARK  4 active torsions:
REMARK  status: ('A' for Active; 'I' for Inactive)
REMARK    1  A    between atoms: C_1  and  C_2
REMARK    2  A    between atoms: C_8  and  N_9
REMARK    3  A    between atoms: C_10  and  C_12
REMARK    4  A    between atoms: C_18  and  O_19
REMARK                            x       y       z     vdW  Elec       q    Type
REMARK                         _______ _______ _______ _____ _____    ______ ____
ROOT
ATOM      1  C   UNL     1       9.393  10.404  19.916  0.00  0.00    +0.000 C 
ATOM      2  C   UNL     1       9.659  11.788  20.421  0.00  0.00    +0.000 A 
ATOM      3  N   UNL     1       8.870  12.234  21.410  0.00  0.00    +0.000 NA
ATOM      4  C   UNL     1       9.004  13.498  21.890  0.00  0.00    +0.000 A 
ATOM      5  N   UNL     1       8.031  13.980  22.800  0.00  0.00    +0.000 N 
ATOM      6  C   UNL     1       6.762  13.224  22.669  0.00  0.00    +0.000 C 
ATOM      7  C   UNL     1       5.664  13.908  23.486  0.00  0.00    +0.000 C 
ATOM      8  C   UNL     1       6.070  14.055  24.961  0.00  0.00    +0.000 C 
ATOM      9  C   UNL     1       7.455  14.761  25.042  0.00  0.00    +0.000 C 
ATOM     10  C   UNL     1       8.510  14.000  24.206  0.00  0.00    +0.000 C 
ATOM     11  C   UNL     1      10.030  14.302  21.327  0.00  0.00    +0.000 A 
ATOM     12  C   UNL     1      10.491  15.655  21.537  0.00  0.00    +0.000 A 
ATOM     13  C   UNL     1      11.512  16.018  20.683  0.00  0.00    +0.000 A 
ATOM     14  S   UNL     1      11.927  14.758  19.613  0.00  0.00    +0.000 S 
ATOM     15  C   UNL     1      10.762  13.719  20.302  0.00  0.00    +0.000 A 
ATOM     16  N   UNL     1      10.624  12.480  19.810  0.00  0.00    +0.000 NA
ENDROOT
BRANCH   8  17
ATOM     17  N   UNL     1       6.001  12.748  25.646  0.00  0.00    +0.000 N 
ATOM     18  C   UNL     1       5.213  12.511  26.757  0.00  0.00    +0.000 C 
ATOM     19  O   UNL     1       4.545  13.382  27.299  0.00  0.00    +0.000 OA
ATOM     20  H   UNL     1       6.355  11.917  25.180  0.00  0.00    +0.000 HD
BRANCH  18  21
ATOM     21  C   UNL     1       5.243  11.124  27.319  0.00  0.00    +0.000 A 
ATOM     22  C   UNL     1       4.102  10.336  27.208  0.00  0.00    +0.000 A 
ATOM     23  N   UNL     1       4.015   9.085  27.730  0.00  0.00    +0.000 NA
ATOM     24  C   UNL     1       5.118   8.657  28.379  0.00  0.00    +0.000 A 
ATOM     25  C   UNL     1       6.260   9.441  28.496  0.00  0.00    +0.000 A 
ATOM     26  N   UNL     1       6.363  10.691  27.964  0.00  0.00    +0.000 NA
ENDBRANCH  18  21
ENDBRANCH   8  17
BRANCH   9  27
ATOM     27  O   UNL     1       7.346  16.100  24.505  0.00  0.00    +0.000 OA
ATOM     28  H   UNL     1       6.386  16.291  24.490  0.00  0.00    +0.000 HD
ENDBRANCH   9  27
TORSDOF 3
ENDMDL
MODEL 5
REMARK VINA RESULT:      -6.9      1.019      1.060
REMARK  Name = 
REMARK  4 active torsions:
REMARK  status: ('A' for Active; 'I' for Inactive)
REMARK    1  A    between atoms: C_1  and  C_2
REMARK    2  A    between atoms: C_8  and  N_9
REMARK    3  A    between atoms: C_10  and  C_12
REMARK    4  A    between atoms: C_18  and  O_19
REMARK                            x       y       z     vdW  Elec       q    Type
REMARK                         _______ _______ _______ _____ _____    ______ ____
ROOT
ATOM      1  C   UNL     1       1.461   8.117  20.449  0.00  0.00    +0.000 C 
ATOM      2  C   UNL     1       2.091   6.774  20.244  0.00  0.00    +0.000 A 
ATOM      3  N   UNL     1       3.318   6.758  19.700  0.00  0.00    +0.000 NA
ATOM      4  C   UNL     1       3.942   5.582  19.426  0.00  0.00    +0.000 A 
ATOM      5  N   UNL     1       5.150   5.616  18.688  0.00  0.00    +0.000 N 
ATOM      6  C   UNL     1       5.251   6.866  17.895  0.00  0.00    +0.000 C 
ATOM      7  C   UNL     1       6.439   6.776  16.934  0.00  0.00    +0.000 C 
ATOM      8  C   UNL     1       7.749   6.489  17.685  0.00  0.00    +0.000 C 
ATOM      9  C   UNL     1       7.559   5.229  18.581  0.00  0.00    +0.000 C 
ATOM     10  C   UNL     1       6.354   5.407  19.532  0.00  0.00    +0.000 C 
ATOM     11  C   UNL     1       3.257   4.387  19.771  0.00  0.00    +0.000 A 
ATOM     12  C   UNL     1       3.548   2.977  19.649  0.00  0.00    +0.000 A 
ATOM     13  C   UNL     1       2.518   2.171  20.085  0.00  0.00    +0.000 A 
ATOM     14  S   UNL     1       1.185   3.080  20.634  0.00  0.00    +0.000 S 
ATOM     15  C   UNL     1       1.989   4.551  20.313  0.00  0.00    +0.000 A 
ATOM     16  N   UNL     1       1.360   5.705  20.569  0.00  0.00    +0.000 NA
ENDROOT
BRANCH   8  17
ATOM     17  N   UNL     1       8.204   7.696  18.405  0.00  0.00    +0.000 N 
ATOM     18  C   UNL     1       8.269   8.949  17.825  0.00  0.00    +0.000 C 
ATOM     19  O   UNL     1       8.005   9.154  16.647  0.00  0.00    +0.000 OA
ATOM     20  H   UNL     1       8.264   7.685  19.420  0.00  0.00    +0.000 HD
BRANCH  18  21
ATOM     21  C   UNL     1       8.734  10.072  18.699  0.00  0.00    +0.000 A 
ATOM     22  C   UNL     1       8.931  11.324  18.126  0.00  0.00    +0.000 A 
ATOM     23  N   UNL     1       9.397  12.391  18.826  0.00  0.00    +0.000 NA
ATOM     24  C   UNL     1       9.669  12.150  20.125  0.00  0.00    +0.000 A 
ATOM     25  C   UNL     1       9.477  10.900  20.703  0.00  0.00    +0.000 A 
ATOM     26  N   UNL     1       8.996   9.827  20.014  0.00  0.00    +0.000 NA
ENDBRANCH  18  21
ENDBRANCH   8  17
BRANCH   9  27
ATOM     27  O   UNL     1       7.299   4.079  17.745  0.00  0.00    +0.000 OA
ATOM     28  H   UNL     1       6.496   3.664  18.123  0.00  0.00    +0.000 HD
ENDBRANCH   9  27
TORSDOF 3
ENDMDL
MODEL 6
REMARK VINA RESULT:      -6.9      6.654     11.084
REMARK  Name = 
REMARK  4 active torsions:
REMARK  status: ('A' for Active; 'I' for Inactive)
REMARK    1  A    between atoms: C_1  and  C_2
REMARK    2  A    between atoms: C_8  and  N_9
REMARK    3  A    between atoms: C_10  and  C_12
REMARK    4  A    between atoms: C_18  and  O_19
REMARK                            x       y       z     vdW  Elec       q    Type
REMARK                         _______ _______ _______ _____ _____    ______ ____
ROOT
ATOM      1  C   UNL     1       9.311  12.633  17.619  0.00  0.00    +0.000 C 
ATOM      2  C   UNL     1       8.934  13.970  18.178  0.00  0.00    +0.000 A 
ATOM      3  N   UNL     1       7.624  14.213  18.335  0.00  0.00    +0.000 NA
ATOM      4  C   UNL     1       7.189  15.421  18.784  0.00  0.00    +0.000 A 
ATOM      5  N   UNL     1       5.798  15.688  18.758  0.00  0.00    +0.000 N 
ATOM      6  C   UNL     1       5.111  14.823  17.768  0.00  0.00    +0.000 C 
ATOM      7  C   UNL     1       3.664  15.288  17.590  0.00  0.00    +0.000 C 
ATOM      8  C   UNL     1       2.909  15.305  18.929  0.00  0.00    +0.000 C 
ATOM      9  C   UNL     1       3.722  16.140  19.962  0.00  0.00    +0.000 C 
ATOM     10  C   UNL     1       5.163  15.596  20.097  0.00  0.00    +0.000 C 
ATOM     11  C   UNL     1       8.177  16.388  19.107  0.00  0.00    +0.000 A 
ATOM     12  C   UNL     1       8.147  17.749  19.591  0.00  0.00    +0.000 A 
ATOM     13  C   UNL     1       9.400  18.314  19.699  0.00  0.00    +0.000 A 
ATOM     14  S   UNL     1      10.629  17.237  19.214  0.00  0.00    +0.000 S 
ATOM     15  C   UNL     1       9.493  16.008  18.882  0.00  0.00    +0.000 A 
ATOM     16  N   UNL     1       9.928  14.827  18.423  0.00  0.00    +0.000 NA
ENDROOT
BRANCH   8  17
ATOM     17  N   UNL     1       2.593  13.928  19.359  0.00  0.00    +0.000 N 
ATOM     18  C   UNL     1       1.304  13.434  19.444  0.00  0.00    +0.000 C 
ATOM     19  O   UNL     1       0.313  14.116  19.221  0.00  0.00    +0.000 OA
ATOM     20  H   UNL     1       3.328  13.226  19.382  0.00  0.00    +0.000 HD
BRANCH  18  21
ATOM     21  C   UNL     1       1.157  12.010  19.877  0.00  0.00    +0.000 A 
ATOM     22  C   UNL     1       1.215  11.010  18.912  0.00  0.00    +0.000 A 
ATOM     23  N   UNL     1       1.042   9.694  19.200  0.00  0.00    +0.000 NA
ATOM     24  C   UNL     1       0.799   9.418  20.498  0.00  0.00    +0.000 A 
ATOM     25  C   UNL     1       0.738  10.413  21.468  0.00  0.00    +0.000 A 
ATOM     26  N   UNL     1       0.923  11.735  21.193  0.00  0.00    +0.000 NA
ENDBRANCH  18  21
ENDBRANCH   8  17
BRANCH   9  27
ATOM     27  O   UNL     1       3.806  17.512  19.514  0.00  0.00    +0.000 OA
ATOM     28  H   UNL     1       2.936  17.702  19.106  0.00  0.00    +0.000 HD
ENDBRANCH   9  27
TORSDOF 3
ENDMDL
MODEL 7
REMARK VINA RESULT:      -6.9      6.319      8.438
REMARK  Name = 
REMARK  4 active torsions:
REMARK  status: ('A' for Active; 'I' for Inactive)
REMARK    1  A    between atoms: C_1  and  C_2
REMARK    2  A    between atoms: C_8  and  N_9
REMARK    3  A    between atoms: C_10  and  C_12
REMARK    4  A    between atoms: C_18  and  O_19
REMARK                            x       y       z     vdW  Elec       q    Type
REMARK                         _______ _______ _______ _____ _____    ______ ____
ROOT
ATOM      1  C   UNL     1       2.235   8.731  18.151  0.00  0.00    +0.000 C 
ATOM      2  C   UNL     1       1.131   9.740  18.206  0.00  0.00    +0.000 A 
ATOM      3  N   UNL     1       1.443  10.956  18.682  0.00  0.00    +0.000 NA
ATOM      4  C   UNL     1       0.491  11.915  18.820  0.00  0.00    +0.000 A 
ATOM      5  N   UNL     1       0.834  13.113  19.494  0.00  0.00    +0.000 N 
ATOM      6  C   UNL     1       2.000  12.903  20.386  0.00  0.00    +0.000 C 
ATOM      7  C   UNL     1       2.204  14.134  21.272  0.00  0.00    +0.000 C 
ATOM      8  C   UNL     1       2.371  15.410  20.431  0.00  0.00    +0.000 C 
ATOM      9  C   UNL     1       1.175  15.530  19.441  0.00  0.00    +0.000 C 
ATOM     10  C   UNL     1       1.050  14.258  18.573  0.00  0.00    +0.000 C 
ATOM     11  C   UNL     1      -0.828  11.585  18.409  0.00  0.00    +0.000 A 
ATOM     12  C   UNL     1      -2.092  12.285  18.393  0.00  0.00    +0.000 A 
ATOM     13  C   UNL     1      -3.137  11.506  17.944  0.00  0.00    +0.000 A 
ATOM     14  S   UNL     1      -2.631   9.928  17.546  0.00  0.00    +0.000 S 
ATOM     15  C   UNL     1      -1.013  10.288  17.950  0.00  0.00    +0.000 A 
ATOM     16  N   UNL     1      -0.083   9.331  17.829  0.00  0.00    +0.000 NA
ENDROOT
BRANCH   8  17
ATOM     17  N   UNL     1       3.704  15.437  19.796  0.00  0.00    +0.000 N 
ATOM     18  C   UNL     1       4.414  16.600  19.564  0.00  0.00    +0.000 C 
ATOM     19  O   UNL     1       3.972  17.713  19.818  0.00  0.00    +0.000 OA
ATOM     20  H   UNL     1       4.243  14.578  19.721  0.00  0.00    +0.000 HD
BRANCH  18  21
ATOM     21  C   UNL     1       5.761  16.452  18.930  0.00  0.00    +0.000 A 
ATOM     22  C   UNL     1       6.106  15.222  18.378  0.00  0.00    +0.000 A 
ATOM     23  N   UNL     1       7.322  14.976  17.825  0.00  0.00    +0.000 NA
ATOM     24  C   UNL     1       8.186  16.011  17.856  0.00  0.00    +0.000 A 
ATOM     25  C   UNL     1       7.849  17.242  18.408  0.00  0.00    +0.000 A 
ATOM     26  N   UNL     1       6.628  17.505  18.952  0.00  0.00    +0.000 NA
ENDBRANCH  18  21
ENDBRANCH   8  17
BRANCH   9  27
ATOM     27  O   UNL     1      -0.055  15.682  20.187  0.00  0.00    +0.000 OA
ATOM     28  H   UNL     1       0.023  15.057  20.937  0.00  0.00    +0.000 HD
ENDBRANCH   9  27
TORSDOF 3
ENDMDL
MODEL 8
REMARK VINA RESULT:      -6.7      7.060     11.308
REMARK  Name = 
REMARK  4 active torsions:
REMARK  status: ('A' for Active; 'I' for Inactive)
REMARK    1  A    between atoms: C_1  and  C_2
REMARK    2  A    between atoms: C_8  and  N_9
REMARK    3  A    between atoms: C_10  and  C_12
REMARK    4  A    between atoms: C_18  and  O_19
REMARK                            x       y       z     vdW  Elec       q    Type
REMARK                         _______ _______ _______ _____ _____    ______ ____
ROOT
ATOM      1  C   UNL     1       8.409  12.583  17.404  0.00  0.00    +0.000 C 
ATOM      2  C   UNL     1       8.197  13.942  17.995  0.00  0.00    +0.000 A 
ATOM      3  N   UNL     1       6.928  14.313  18.221  0.00  0.00    +0.000 NA
ATOM      4  C   UNL     1       6.640  15.551  18.703  0.00  0.00    +0.000 A 
ATOM      5  N   UNL     1       5.284  15.957  18.750  0.00  0.00    +0.000 N 
ATOM      6  C   UNL     1       4.464  15.181  17.789  0.00  0.00    +0.000 C 
ATOM      7  C   UNL     1       3.065  15.791  17.689  0.00  0.00    +0.000 C 
ATOM      8  C   UNL     1       2.384  15.864  19.065  0.00  0.00    +0.000 C 
ATOM      9  C   UNL     1       3.327  16.597  20.064  0.00  0.00    +0.000 C 
ATOM     10  C   UNL     1       4.710  15.910  20.119  0.00  0.00    +0.000 C 
ATOM     11  C   UNL     1       7.736  16.409  18.985  0.00  0.00    +0.000 A 
ATOM     12  C   UNL     1       7.867  17.759  19.483  0.00  0.00    +0.000 A 
ATOM     13  C   UNL     1       9.175  18.194  19.532  0.00  0.00    +0.000 A 
ATOM     14  S   UNL     1      10.263  17.006  18.975  0.00  0.00    +0.000 S 
ATOM     15  C   UNL     1       8.994  15.902  18.689  0.00  0.00    +0.000 A 
ATOM     16  N   UNL     1       9.284  14.691  18.197  0.00  0.00    +0.000 NA
ENDROOT
BRANCH   8  17
ATOM     17  N   UNL     1       1.951  14.520  19.497  0.00  0.00    +0.000 N 
ATOM     18  C   UNL     1       0.719  13.977  19.181  0.00  0.00    +0.000 C 
ATOM     19  O   UNL     1      -0.139  14.590  18.560  0.00  0.00    +0.000 OA
ATOM     20  H   UNL     1       2.639  13.857  19.845  0.00  0.00    +0.000 HD
BRANCH  18  21
ATOM     21  C   UNL     1       0.445  12.593  19.680  0.00  0.00    +0.000 A 
ATOM     22  C   UNL     1       1.064  12.173  20.852  0.00  0.00    +0.000 A 
ATOM     23  N   UNL     1       0.917  10.920  21.356  0.00  0.00    +0.000 NA
ATOM     24  C   UNL     1       0.130  10.099  20.631  0.00  0.00    +0.000 A 
ATOM     25  C   UNL     1      -0.490  10.512  19.457  0.00  0.00    +0.000 A 
ATOM     26  N   UNL     1      -0.361  11.770  18.950  0.00  0.00    +0.000 NA
ENDBRANCH  18  21
ENDBRANCH   8  17
BRANCH   9  27
ATOM     27  O   UNL     1       3.526  17.961  19.625  0.00  0.00    +0.000 OA
ATOM     28  H   UNL     1       2.916  18.497  20.172  0.00  0.00    +0.000 HD
ENDBRANCH   9  27
TORSDOF 3
ENDMDL
MODEL 9
REMARK VINA RESULT:      -6.7      6.735     10.797
REMARK  Name = 
REMARK  4 active torsions:
REMARK  status: ('A' for Active; 'I' for Inactive)
REMARK    1  A    between atoms: C_1  and  C_2
REMARK    2  A    between atoms: C_8  and  N_9
REMARK    3  A    between atoms: C_10  and  C_12
REMARK    4  A    between atoms: C_18  and  O_19
REMARK                            x       y       z     vdW  Elec       q    Type
REMARK                         _______ _______ _______ _____ _____    ______ ____
ROOT
ATOM      1  C   UNL     1       9.700  11.160  18.166  0.00  0.00    +0.000 C 
ATOM      2  C   UNL     1       9.697  12.595  18.595  0.00  0.00    +0.000 A 
ATOM      3  N   UNL     1       8.506  13.211  18.640  0.00  0.00    +0.000 NA
ATOM      4  C   UNL     1       8.415  14.527  18.964  0.00  0.00    +0.000 A 
ATOM      5  N   UNL     1       7.162  15.172  18.819  0.00  0.00    +0.000 N 
ATOM      6  C   UNL     1       6.302  14.448  17.852  0.00  0.00    +0.000 C 
ATOM      7  C   UNL     1       5.060  15.283  17.536  0.00  0.00    +0.000 C 
ATOM      8  C   UNL     1       4.280  15.636  18.813  0.00  0.00    +0.000 C 
ATOM      9  C   UNL     1       5.249  16.300  19.835  0.00  0.00    +0.000 C 
ATOM     10  C   UNL     1       6.466  15.388  20.112  0.00  0.00    +0.000 C 
ATOM     11  C   UNL     1       9.623  15.203  19.282  0.00  0.00    +0.000 A 
ATOM     12  C   UNL     1       9.962  16.556  19.658  0.00  0.00    +0.000 A 
ATOM     13  C   UNL     1      11.318  16.753  19.812  0.00  0.00    +0.000 A 
ATOM     14  S   UNL     1      12.207  15.333  19.498  0.00  0.00    +0.000 S 
ATOM     15  C   UNL     1      10.784  14.448  19.180  0.00  0.00    +0.000 A 
ATOM     16  N   UNL     1      10.883  13.155  18.844  0.00  0.00    +0.000 NA
ENDROOT
BRANCH   8  17
ATOM     17  N   UNL     1       3.563  14.450  19.322  0.00  0.00    +0.000 N 
ATOM     18  C   UNL     1       2.204  14.252  19.155  0.00  0.00    +0.000 C 
ATOM     19  O   UNL     1       1.472  15.071  18.615  0.00  0.00    +0.000 OA
ATOM     20  H   UNL     1       4.088  13.629  19.610  0.00  0.00    +0.000 HD
BRANCH  18  21
ATOM     21  C   UNL     1       1.635  12.986  19.714  0.00  0.00    +0.000 A 
ATOM     22  C   UNL     1       1.553  11.870  18.888  0.00  0.00    +0.000 A 
ATOM     23  N   UNL     1       1.007  10.693  19.289  0.00  0.00    +0.000 NA
ATOM     24  C   UNL     1       0.535  10.681  20.553  0.00  0.00    +0.000 A 
ATOM     25  C   UNL     1       0.613  11.794  21.384  0.00  0.00    +0.000 A 
ATOM     26  N   UNL     1       1.171  12.975  20.997  0.00  0.00    +0.000 NA
ENDBRANCH  18  21
ENDBRANCH   8  17
BRANCH   9  27
ATOM     27  O   UNL     1       5.744  17.546  19.292  0.00  0.00    +0.000 OA
ATOM     28  H   UNL     1       6.453  17.829  19.905  0.00  0.00    +0.000 HD
ENDBRANCH   9  27
TORSDOF 3
ENDMDL
