MODEL 1
REMARK VINA RESULT:      -7.7      0.000      0.000
REMARK  Name = 
REMARK  3 active torsions:
REMARK  status: ('A' for Active; 'I' for Inactive)
REMARK    1  A    between atoms: C_1  and  N_2
REMARK    2  A    between atoms: N_2  and  C_3
REMARK    3  A    between atoms: N_16  and  C_17
REMARK                            x       y       z     vdW  Elec       q    Type
REMARK                         _______ _______ _______ _____ _____    ______ ____
ROOT
ATOM      1  C   UNL     1       5.688   4.410  15.135  0.00  0.00    +0.000 C 
ATOM      2  N   UNL     1       4.961   5.160  16.148  0.00  0.00    +0.000 N 
ATOM      3  C   UNL     1       5.188   6.594  16.217  0.00  0.00    +0.000 C 
ATOM      4  C   UNL     1       4.285   4.498  17.153  0.00  0.00    +0.000 A 
ATOM      5  N   UNL     1       3.553   5.264  18.026  0.00  0.00    +0.000 NA
ATOM      6  C   UNL     1       3.091   4.653  19.050  0.00  0.00    +0.000 A 
ATOM      7  N   UNL     1       3.243   3.323  19.272  0.00  0.00    +0.000 N 
ATOM      8  C   UNL     1       3.723   2.553  18.269  0.00  0.00    +0.000 A 
ATOM      9  O   UNL     1       3.580   1.333  18.282  0.00  0.00    +0.000 OA
ATOM     10  N   UNL     1       4.352   3.206  17.250  0.00  0.00    +0.000 NA
ATOM     11  C   UNL     1       2.445   2.906  20.395  0.00  0.00    +0.000 C 
ATOM     12  C   UNL     1       2.154   4.220  21.107  0.00  0.00    +0.000 C 
ATOM     13  N   UNL     1       2.339   5.226  20.076  0.00  0.00    +0.000 N 
ATOM     14  C   UNL     1       1.859   6.521  20.244  0.00  0.00    +0.000 C 
ATOM     15  O   UNL     1       1.264   6.825  21.277  0.00  0.00    +0.000 OA
ATOM     16  N   UNL     1       2.084   7.358  19.171  0.00  0.00    +0.000 N 
ATOM     17  H   UNL     1       2.472   6.910  18.346  0.00  0.00    +0.000 HD
ENDROOT
BRANCH  16  18
ATOM     18  C   UNL     1       1.750   8.723  19.082  0.00  0.00    +0.000 A 
ATOM     19  C   UNL     1       0.944   9.369  20.026  0.00  0.00    +0.000 A 
ATOM     20  C   UNL     1       0.637  10.727  19.899  0.00  0.00    +0.000 A 
ATOM     21  C   UNL     1       1.136  11.450  18.824  0.00  0.00    +0.000 A 
ATOM     22 CL   UNL     1       0.751  13.119  18.669  0.00  0.00    +0.000 Cl
ATOM     23  C   UNL     1       1.949  10.829  17.878  0.00  0.00    +0.000 A 
ATOM     24  C   UNL     1       2.262   9.469  18.011  0.00  0.00    +0.000 A 
ENDBRANCH  16  18
TORSDOF 1
ENDMDL
MODEL 2
REMARK VINA RESULT:      -7.6      0.080      1.007
REMARK  Name = 
REMARK  3 active torsions:
REMARK  status: ('A' for Active; 'I' for Inactive)
REMARK    1  A    between atoms: C_1  and  N_2
REMARK    2  A    between atoms: N_2  and  C_3
REMARK    3  A    between atoms: N_16  and  C_17
REMARK                            x       y       z     vdW  Elec       q    Type
REMARK                         _______ _______ _______ _____ _____    ______ ____
ROOT
ATOM      1  C   UNL     1       5.729   4.406  15.107  0.00  0.00    +0.000 C 
ATOM      2  N   UNL     1       5.003   5.164  16.114  0.00  0.00    +0.000 N 
ATOM      3  C   UNL     1       5.240   6.596  16.180  0.00  0.00    +0.000 C 
ATOM      4  C   UNL     1       4.318   4.510  17.118  0.00  0.00    +0.000 A 
ATOM      5  N   UNL     1       3.588   5.285  17.986  0.00  0.00    +0.000 NA
ATOM      6  C   UNL     1       3.117   4.680  19.010  0.00  0.00    +0.000 A 
ATOM      7  N   UNL     1       3.259   3.350  19.237  0.00  0.00    +0.000 N 
ATOM      8  C   UNL     1       3.737   2.573  18.238  0.00  0.00    +0.000 A 
ATOM      9  O   UNL     1       3.585   1.354  18.255  0.00  0.00    +0.000 OA
ATOM     10  N   UNL     1       4.376   3.218  17.220  0.00  0.00    +0.000 NA
ATOM     11  C   UNL     1       2.453   2.942  20.358  0.00  0.00    +0.000 C 
ATOM     12  C   UNL     1       2.168   4.261  21.065  0.00  0.00    +0.000 C 
ATOM     13  N   UNL     1       2.365   5.262  20.031  0.00  0.00    +0.000 N 
ATOM     14  C   UNL     1       1.894   6.561  20.193  0.00  0.00    +0.000 C 
ATOM     15  O   UNL     1       1.297   6.872  21.223  0.00  0.00    +0.000 OA
ATOM     16  N   UNL     1       2.130   7.393  19.118  0.00  0.00    +0.000 N 
ATOM     17  H   UNL     1       2.518   6.939  18.297  0.00  0.00    +0.000 HD
ENDROOT
BRANCH  16  18
ATOM     18  C   UNL     1       1.806   8.760  19.024  0.00  0.00    +0.000 A 
ATOM     19  C   UNL     1       2.235   9.569  17.967  0.00  0.00    +0.000 A 
ATOM     20  C   UNL     1       1.890  10.922  17.913  0.00  0.00    +0.000 A 
ATOM     21  C   UNL     1       1.110  11.478  18.919  0.00  0.00    +0.000 A 
ATOM     22 CL   UNL     1       0.694  13.144  18.852  0.00  0.00    +0.000 Cl
ATOM     23  C   UNL     1       0.664  10.687  19.976  0.00  0.00    +0.000 A 
ATOM     24  C   UNL     1       1.005   9.328  20.025  0.00  0.00    +0.000 A 
ENDBRANCH  16  18
TORSDOF 1
ENDMDL
MODEL 3
REMARK VINA RESULT:      -7.3      2.184      3.929
REMARK  Name = 
REMARK  3 active torsions:
REMARK  status: ('A' for Active; 'I' for Inactive)
REMARK    1  A    between atoms: C_1  and  N_2
REMARK    2  A    between atoms: N_2  and  C_3
REMARK    3  A    between atoms: N_16  and  C_17
REMARK                            x       y       z     vdW  Elec       q    Type
REMARK                         _______ _______ _______ _____ _____    ______ ____
ROOT
ATOM      1  C   UNL     1       3.547   2.233  20.912  0.00  0.00    +0.000 C 
ATOM      2  N   UNL     1       3.062   3.555  20.549  0.00  0.00    +0.000 N 
ATOM      3  C   UNL     1       1.788   3.982  21.103  0.00  0.00    +0.000 C 
ATOM      4  C   UNL     1       3.666   4.262  19.528  0.00  0.00    +0.000 A 
ATOM      5  N   UNL     1       3.211   5.537  19.294  0.00  0.00    +0.000 NA
ATOM      6  C   UNL     1       3.652   6.099  18.233  0.00  0.00    +0.000 A 
ATOM      7  N   UNL     1       4.555   5.532  17.394  0.00  0.00    +0.000 N 
ATOM      8  C   UNL     1       5.187   4.405  17.793  0.00  0.00    +0.000 A 
ATOM      9  O   UNL     1       6.223   4.032  17.249  0.00  0.00    +0.000 OA
ATOM     10  N   UNL     1       4.620   3.726  18.832  0.00  0.00    +0.000 NA
ATOM     11  C   UNL     1       4.998   6.487  16.412  0.00  0.00    +0.000 C 
ATOM     12  C   UNL     1       3.917   7.557  16.473  0.00  0.00    +0.000 C 
ATOM     13  N   UNL     1       3.317   7.376  17.783  0.00  0.00    +0.000 N 
ATOM     14  C   UNL     1       2.509   8.360  18.343  0.00  0.00    +0.000 C 
ATOM     15  O   UNL     1       2.298   9.404  17.727  0.00  0.00    +0.000 OA
ATOM     16  N   UNL     1       2.033   8.060  19.603  0.00  0.00    +0.000 N 
ATOM     17  H   UNL     1       2.410   7.214  20.019  0.00  0.00    +0.000 HD
ENDROOT
BRANCH  16  18
ATOM     18  C   UNL     1       1.164   8.846  20.384  0.00  0.00    +0.000 A 
ATOM     19  C   UNL     1       0.266   9.763  19.829  0.00  0.00    +0.000 A 
ATOM     20  C   UNL     1      -0.580  10.523  20.642  0.00  0.00    +0.000 A 
ATOM     21  C   UNL     1      -0.533  10.369  22.022  0.00  0.00    +0.000 A 
ATOM     22 CL   UNL     1      -1.571  11.310  23.018  0.00  0.00    +0.000 Cl
ATOM     23  C   UNL     1       0.347   9.453  22.595  0.00  0.00    +0.000 A 
ATOM     24  C   UNL     1       1.188   8.687  21.777  0.00  0.00    +0.000 A 
ENDBRANCH  16  18
TORSDOF 1
ENDMDL
MODEL 4
REMARK VINA RESULT:      -7.1      2.182      3.874
REMARK  Name = 
REMARK  3 active torsions:
REMARK  status: ('A' for Active; 'I' for Inactive)
REMARK    1  A    between atoms: C_1  and  N_2
REMARK    2  A    between atoms: N_2  and  C_3
REMARK    3  A    between atoms: N_16  and  C_17
REMARK                            x       y       z     vdW  Elec       q    Type
REMARK                         _______ _______ _______ _____ _____    ______ ____
ROOT
ATOM      1  C   UNL     1       3.506   2.199  20.884  0.00  0.00    +0.000 C 
ATOM      2  N   UNL     1       3.021   3.532  20.561  0.00  0.00    +0.000 N 
ATOM      3  C   UNL     1       1.758   3.950  21.145  0.00  0.00    +0.000 C 
ATOM      4  C   UNL     1       3.612   4.261  19.548  0.00  0.00    +0.000 A 
ATOM      5  N   UNL     1       3.159   5.542  19.352  0.00  0.00    +0.000 NA
ATOM      6  C   UNL     1       3.586   6.128  18.298  0.00  0.00    +0.000 A 
ATOM      7  N   UNL     1       4.473   5.578  17.431  0.00  0.00    +0.000 N 
ATOM      8  C   UNL     1       5.107   4.439  17.794  0.00  0.00    +0.000 A 
ATOM      9  O   UNL     1       6.133   4.076  17.225  0.00  0.00    +0.000 OA
ATOM     10  N   UNL     1       4.553   3.738  18.825  0.00  0.00    +0.000 NA
ATOM     11  C   UNL     1       4.905   6.554  16.465  0.00  0.00    +0.000 C 
ATOM     12  C   UNL     1       3.829   7.627  16.569  0.00  0.00    +0.000 C 
ATOM     13  N   UNL     1       3.249   7.417  17.883  0.00  0.00    +0.000 N 
ATOM     14  C   UNL     1       2.453   8.390  18.480  0.00  0.00    +0.000 C 
ATOM     15  O   UNL     1       2.238   9.450  17.892  0.00  0.00    +0.000 OA
ATOM     16  N   UNL     1       1.995   8.062  19.739  0.00  0.00    +0.000 N 
ATOM     17  H   UNL     1       2.376   7.205  20.128  0.00  0.00    +0.000 HD
ENDROOT
BRANCH  16  18
ATOM     18  C   UNL     1       1.141   8.832  20.552  0.00  0.00    +0.000 A 
ATOM     19  C   UNL     1       1.129   8.731  21.947  0.00  0.00    +0.000 A 
ATOM     20  C   UNL     1       0.264   9.514  22.716  0.00  0.00    +0.000 A 
ATOM     21  C   UNL     1      -0.597  10.408  22.092  0.00  0.00    +0.000 A 
ATOM     22 CL   UNL     1      -1.663  11.366  23.042  0.00  0.00    +0.000 Cl
ATOM     23  C   UNL     1      -0.594  10.532  20.704  0.00  0.00    +0.000 A 
ATOM     24  C   UNL     1       0.280   9.751  19.935  0.00  0.00    +0.000 A 
ENDBRANCH  16  18
TORSDOF 1
ENDMDL
MODEL 5
REMARK VINA RESULT:      -7.0      2.162      3.860
REMARK  Name = 
REMARK  3 active torsions:
REMARK  status: ('A' for Active; 'I' for Inactive)
REMARK    1  A    between atoms: C_1  and  N_2
REMARK    2  A    between atoms: N_2  and  C_3
REMARK    3  A    between atoms: N_16  and  C_17
REMARK                            x       y       z     vdW  Elec       q    Type
REMARK                         _______ _______ _______ _____ _____    ______ ____
ROOT
ATOM      1  C   UNL     1       2.499   2.699  21.391  0.00  0.00    +0.000 C 
ATOM      2  N   UNL     1       2.250   3.973  20.734  0.00  0.00    +0.000 N 
ATOM      3  C   UNL     1       0.906   4.519  20.811  0.00  0.00    +0.000 C 
ATOM      4  C   UNL     1       3.185   4.504  19.868  0.00  0.00    +0.000 A 
ATOM      5  N   UNL     1       2.921   5.747  19.347  0.00  0.00    +0.000 NA
ATOM      6  C   UNL     1       3.703   6.135  18.412  0.00  0.00    +0.000 A 
ATOM      7  N   UNL     1       4.769   5.422  17.969  0.00  0.00    +0.000 N 
ATOM      8  C   UNL     1       5.163   4.342  18.683  0.00  0.00    +0.000 A 
ATOM      9  O   UNL     1       6.282   3.859  18.535  0.00  0.00    +0.000 OA
ATOM     10  N   UNL     1       4.259   3.840  19.573  0.00  0.00    +0.000 NA
ATOM     11  C   UNL     1       5.559   6.210  17.060  0.00  0.00    +0.000 C 
ATOM     12  C   UNL     1       4.596   7.316  16.650  0.00  0.00    +0.000 C 
ATOM     13  N   UNL     1       3.618   7.346  17.724  0.00  0.00    +0.000 N 
ATOM     14  C   UNL     1       2.758   8.428  17.880  0.00  0.00    +0.000 C 
ATOM     15  O   UNL     1       2.824   9.380  17.103  0.00  0.00    +0.000 OA
ATOM     16  N   UNL     1       1.905   8.329  18.958  0.00  0.00    +0.000 N 
ATOM     17  H   UNL     1       2.073   7.539  19.573  0.00  0.00    +0.000 HD
ENDROOT
BRANCH  16  18
ATOM     18  C   UNL     1       0.905   9.249  19.329  0.00  0.00    +0.000 A 
ATOM     19  C   UNL     1      -0.004   9.791  18.414  0.00  0.00    +0.000 A 
ATOM     20  C   UNL     1      -0.981  10.701  18.825  0.00  0.00    +0.000 A 
ATOM     21  C   UNL     1      -1.057  11.077  20.160  0.00  0.00    +0.000 A 
ATOM     22 CL   UNL     1      -2.257  12.202  20.659  0.00  0.00    +0.000 Cl
ATOM     23  C   UNL     1      -0.168  10.542  21.090  0.00  0.00    +0.000 A 
ATOM     24  C   UNL     1       0.806   9.623  20.677  0.00  0.00    +0.000 A 
ENDBRANCH  16  18
TORSDOF 1
ENDMDL
MODEL 6
REMARK VINA RESULT:      -7.0      2.169      3.786
REMARK  Name = 
REMARK  3 active torsions:
REMARK  status: ('A' for Active; 'I' for Inactive)
REMARK    1  A    between atoms: C_1  and  N_2
REMARK    2  A    between atoms: N_2  and  C_3
REMARK    3  A    between atoms: N_16  and  C_17
REMARK                            x       y       z     vdW  Elec       q    Type
REMARK                         _______ _______ _______ _____ _____    ______ ____
ROOT
ATOM      1  C   UNL     1       2.569   2.732  21.386  0.00  0.00    +0.000 C 
ATOM      2  N   UNL     1       2.303   4.004  20.733  0.00  0.00    +0.000 N 
ATOM      3  C   UNL     1       0.954   4.537  20.821  0.00  0.00    +0.000 C 
ATOM      4  C   UNL     1       3.226   4.547  19.862  0.00  0.00    +0.000 A 
ATOM      5  N   UNL     1       2.947   5.788  19.346  0.00  0.00    +0.000 NA
ATOM      6  C   UNL     1       3.718   6.186  18.406  0.00  0.00    +0.000 A 
ATOM      7  N   UNL     1       4.787   5.485  17.954  0.00  0.00    +0.000 N 
ATOM      8  C   UNL     1       5.197   4.407  18.661  0.00  0.00    +0.000 A 
ATOM      9  O   UNL     1       6.320   3.935  18.504  0.00  0.00    +0.000 OA
ATOM     10  N   UNL     1       4.305   3.894  19.557  0.00  0.00    +0.000 NA
ATOM     11  C   UNL     1       5.563   6.282  17.040  0.00  0.00    +0.000 C 
ATOM     12  C   UNL     1       4.586   7.380  16.640  0.00  0.00    +0.000 C 
ATOM     13  N   UNL     1       3.616   7.398  17.721  0.00  0.00    +0.000 N 
ATOM     14  C   UNL     1       2.747   8.471  17.886  0.00  0.00    +0.000 C 
ATOM     15  O   UNL     1       2.798   9.425  17.111  0.00  0.00    +0.000 OA
ATOM     16  N   UNL     1       1.902   8.361  18.971  0.00  0.00    +0.000 N 
ATOM     17  H   UNL     1       2.083   7.571  19.582  0.00  0.00    +0.000 HD
ENDROOT
BRANCH  16  18
ATOM     18  C   UNL     1       0.896   9.270  19.351  0.00  0.00    +0.000 A 
ATOM     19  C   UNL     1       0.722   9.700  20.671  0.00  0.00    +0.000 A 
ATOM     20  C   UNL     1      -0.291  10.604  21.004  0.00  0.00    +0.000 A 
ATOM     21  C   UNL     1      -1.138  11.087  20.016  0.00  0.00    +0.000 A 
ATOM     22 CL   UNL     1      -2.386  12.194  20.432  0.00  0.00    +0.000 Cl
ATOM     23  C   UNL     1      -0.976  10.680  18.693  0.00  0.00    +0.000 A 
ATOM     24  C   UNL     1       0.045   9.779  18.359  0.00  0.00    +0.000 A 
ENDBRANCH  16  18
TORSDOF 1
ENDMDL
MODEL 7
REMARK VINA RESULT:      -6.8      1.101      1.101
REMARK  Name = 
REMARK  3 active torsions:
REMARK  status: ('A' for Active; 'I' for Inactive)
REMARK    1  A    between atoms: C_1  and  N_2
REMARK    2  A    between atoms: N_2  and  C_3
REMARK    3  A    between atoms: N_16  and  C_17
REMARK                            x       y       z     vdW  Elec       q    Type
REMARK                         _______ _______ _______ _____ _____    ______ ____
ROOT
ATOM      1  C   UNL     1       7.284   4.641  17.037  0.00  0.00    +0.000 C 
ATOM      2  N   UNL     1       6.189   5.310  17.721  0.00  0.00    +0.000 N 
ATOM      3  C   UNL     1       6.253   6.757  17.841  0.00  0.00    +0.000 C 
ATOM      4  C   UNL     1       5.265   4.577  18.439  0.00  0.00    +0.000 A 
ATOM      5  N   UNL     1       4.211   5.265  18.990  0.00  0.00    +0.000 NA
ATOM      6  C   UNL     1       3.477   4.601  19.800  0.00  0.00    +0.000 A 
ATOM      7  N   UNL     1       3.656   3.286  20.083  0.00  0.00    +0.000 N 
ATOM      8  C   UNL     1       4.519   2.575  19.322  0.00  0.00    +0.000 A 
ATOM      9  O   UNL     1       4.486   1.347  19.305  0.00  0.00    +0.000 OA
ATOM     10  N   UNL     1       5.405   3.295  18.575  0.00  0.00    +0.000 NA
ATOM     11  C   UNL     1       2.556   2.785  20.866  0.00  0.00    +0.000 C 
ATOM     12  C   UNL     1       1.923   4.059  21.410  0.00  0.00    +0.000 C 
ATOM     13  N   UNL     1       2.368   5.092  20.491  0.00  0.00    +0.000 N 
ATOM     14  C   UNL     1       1.750   6.338  20.460  0.00  0.00    +0.000 C 
ATOM     15  O   UNL     1       0.809   6.574  21.217  0.00  0.00    +0.000 OA
ATOM     16  N   UNL     1       2.261   7.206  19.518  0.00  0.00    +0.000 N 
ATOM     17  H   UNL     1       2.949   6.806  18.887  0.00  0.00    +0.000 HD
ENDROOT
BRANCH  16  18
ATOM     18  C   UNL     1       1.863   8.539  19.296  0.00  0.00    +0.000 A 
ATOM     19  C   UNL     1       1.130   9.277  20.232  0.00  0.00    +0.000 A 
ATOM     20  C   UNL     1       0.755  10.597  19.971  0.00  0.00    +0.000 A 
ATOM     21  C   UNL     1       1.111  11.191  18.767  0.00  0.00    +0.000 A 
ATOM     22 CL   UNL     1       0.642  12.814  18.447  0.00  0.00    +0.000 Cl
ATOM     23  C   UNL     1       1.849  10.477  17.825  0.00  0.00    +0.000 A 
ATOM     24  C   UNL     1       2.232   9.155  18.092  0.00  0.00    +0.000 A 
ENDBRANCH  16  18
TORSDOF 1
ENDMDL
MODEL 8
REMARK VINA RESULT:      -6.8      4.484      8.211
REMARK  Name = 
REMARK  3 active torsions:
REMARK  status: ('A' for Active; 'I' for Inactive)
REMARK    1  A    between atoms: C_1  and  N_2
REMARK    2  A    between atoms: N_2  and  C_3
REMARK    3  A    between atoms: N_16  and  C_17
REMARK                            x       y       z     vdW  Elec       q    Type
REMARK                         _______ _______ _______ _____ _____    ______ ____
ROOT
ATOM      1  C   UNL     1       2.840  15.029  18.924  0.00  0.00    +0.000 C 
ATOM      2  N   UNL     1       2.349  13.686  19.189  0.00  0.00    +0.000 N 
ATOM      3  C   UNL     1       2.537  12.683  18.154  0.00  0.00    +0.000 C 
ATOM      4  C   UNL     1       1.521  13.447  20.268  0.00  0.00    +0.000 A 
ATOM      5  N   UNL     1       1.162  12.144  20.506  0.00  0.00    +0.000 NA
ATOM      6  C   UNL     1       0.253  11.970  21.390  0.00  0.00    +0.000 A 
ATOM      7  N   UNL     1      -0.308  12.974  22.108  0.00  0.00    +0.000 N 
ATOM      8  C   UNL     1       0.257  14.202  22.051  0.00  0.00    +0.000 A 
ATOM      9  O   UNL     1       0.014  15.052  22.903  0.00  0.00    +0.000 OA
ATOM     10  N   UNL     1       1.112  14.428  21.011  0.00  0.00    +0.000 NA
ATOM     11  C   UNL     1      -1.144  12.440  23.152  0.00  0.00    +0.000 C 
ATOM     12  C   UNL     1      -1.386  11.009  22.690  0.00  0.00    +0.000 C 
ATOM     13  N   UNL     1      -0.282  10.743  21.783  0.00  0.00    +0.000 N 
ATOM     14  C   UNL     1       0.031   9.443  21.399  0.00  0.00    +0.000 C 
ATOM     15  O   UNL     1      -0.628   8.500  21.834  0.00  0.00    +0.000 OA
ATOM     16  N   UNL     1       1.119   9.342  20.558  0.00  0.00    +0.000 N 
ATOM     17  H   UNL     1       1.629  10.207  20.403  0.00  0.00    +0.000 HD
ENDROOT
BRANCH  16  18
ATOM     18  C   UNL     1       1.631   8.165  19.980  0.00  0.00    +0.000 A 
ATOM     19  C   UNL     1       1.715   6.954  20.674  0.00  0.00    +0.000 A 
ATOM     20  C   UNL     1       2.231   5.808  20.062  0.00  0.00    +0.000 A 
ATOM     21  C   UNL     1       2.667   5.866  18.744  0.00  0.00    +0.000 A 
ATOM     22 CL   UNL     1       3.306   4.456  17.997  0.00  0.00    +0.000 Cl
ATOM     23  C   UNL     1       2.583   7.060  18.031  0.00  0.00    +0.000 A 
ATOM     24  C   UNL     1       2.059   8.206  18.645  0.00  0.00    +0.000 A 
ENDBRANCH  16  18
TORSDOF 1
ENDMDL
MODEL 9
REMARK VINA RESULT:      -6.7      4.333      7.956
REMARK  Name = 
REMARK  3 active torsions:
REMARK  status: ('A' for Active; 'I' for Inactive)
REMARK    1  A    between atoms: C_1  and  N_2
REMARK    2  A    between atoms: N_2  and  C_3
REMARK    3  A    between atoms: N_16  and  C_17
REMARK                            x       y       z     vdW  Elec       q    Type
REMARK                         _______ _______ _______ _____ _____    ______ ____
ROOT
ATOM      1  C   UNL     1      -3.557  11.507  16.379  0.00  0.00    +0.000 C 
ATOM      2  N   UNL     1      -2.563  10.806  17.178  0.00  0.00    +0.000 N 
ATOM      3  C   UNL     1      -2.123   9.501  16.712  0.00  0.00    +0.000 C 
ATOM      4  C   UNL     1      -2.247  11.252  18.445  0.00  0.00    +0.000 A 
ATOM      5  N   UNL     1      -1.241  10.593  19.109  0.00  0.00    +0.000 NA
ATOM      6  C   UNL     1      -1.094  10.901  20.342  0.00  0.00    +0.000 A 
ATOM      7  N   UNL     1      -1.824  11.851  20.979  0.00  0.00    +0.000 N 
ATOM      8  C   UNL     1      -2.606  12.669  20.237  0.00  0.00    +0.000 A 
ATOM      9  O   UNL     1      -3.024  13.730  20.691  0.00  0.00    +0.000 OA
ATOM     10  N   UNL     1      -2.884  12.254  18.967  0.00  0.00    +0.000 NA
ATOM     11  C   UNL     1      -1.288  12.102  22.291  0.00  0.00    +0.000 C 
ATOM     12  C   UNL     1      -0.433  10.867  22.546  0.00  0.00    +0.000 C 
ATOM     13  N   UNL     1      -0.157  10.351  21.217  0.00  0.00    +0.000 N 
ATOM     14  C   UNL     1       0.853   9.418  21.006  0.00  0.00    +0.000 C 
ATOM     15  O   UNL     1       1.530   9.023  21.955  0.00  0.00    +0.000 OA
ATOM     16  N   UNL     1       1.018   9.041  19.690  0.00  0.00    +0.000 N 
ATOM     17  H   UNL     1       0.465   9.563  19.017  0.00  0.00    +0.000 HD
ENDROOT
BRANCH  16  18
ATOM     18  C   UNL     1       1.928   8.087  19.194  0.00  0.00    +0.000 A 
ATOM     19  C   UNL     1       2.199   6.885  19.854  0.00  0.00    +0.000 A 
ATOM     20  C   UNL     1       3.110   5.965  19.327  0.00  0.00    +0.000 A 
ATOM     21  C   UNL     1       3.757   6.243  18.129  0.00  0.00    +0.000 A 
ATOM     22 CL   UNL     1       4.881   5.112  17.487  0.00  0.00    +0.000 Cl
ATOM     23  C   UNL     1       3.493   7.431  17.450  0.00  0.00    +0.000 A 
ATOM     24  C   UNL     1       2.574   8.348  17.977  0.00  0.00    +0.000 A 
ENDBRANCH  16  18
TORSDOF 1
ENDMDL
