MODEL 1
REMARK VINA RESULT:      -8.5      0.000      0.000
REMARK  Name = 
REMARK  6 active torsions:
REMARK  status: ('A' for Active; 'I' for Inactive)
REMARK    1  A    between atoms: C_1  and  C_2
REMARK    2  A    between atoms: C_2  and  O_3
REMARK    3  A    between atoms: O_3  and  N_4
REMARK    4  A    between atoms: C_7  and  C_8
REMARK    5  A    between atoms: C_7  and  C_9
REMARK    6  A    between atoms: C_15  and  C_16
REMARK                            x       y       z     vdW  Elec       q    Type
REMARK                         _______ _______ _______ _____ _____    ______ ____
ROOT
ATOM      1  N   UNL     1       0.321  10.050  22.276  0.00  0.00    +0.000 NA
ATOM      2  C   UNL     1       0.819  10.481  21.154  0.00  0.00    +0.000 C 
ATOM      3  C   UNL     1       0.875  11.941  20.751  0.00  0.00    +0.000 C 
ATOM      4  C   UNL     1       0.320  12.087  19.330  0.00  0.00    +0.000 C 
ATOM      5  C   UNL     1      -1.159  11.666  19.236  0.00  0.00    +0.000 C 
ATOM      6  C   UNL     1       0.436  13.556  18.896  0.00  0.00    +0.000 C 
ATOM      7  N   UNL     1       1.135  11.276  18.413  0.00  0.00    +0.000 N 
ATOM      8  C   UNL     1       1.395   9.954  18.802  0.00  0.00    +0.000 A 
ATOM      9  C   UNL     1       1.844   9.042  17.849  0.00  0.00    +0.000 A 
ATOM     10  C   UNL     1       2.086   7.709  18.194  0.00  0.00    +0.000 A 
ATOM     11  F   UNL     1       2.422   6.885  17.189  0.00  0.00    +0.000 F 
ATOM     12  C   UNL     1       1.971   7.230  19.511  0.00  0.00    +0.000 A 
ATOM     13  C   UNL     1       1.635   8.196  20.475  0.00  0.00    +0.000 A 
ATOM     14  F   UNL     1       1.617   7.844  21.771  0.00  0.00    +0.000 F 
ATOM     15  C   UNL     1       1.323   9.522  20.135  0.00  0.00    +0.000 A 
ATOM     16  H   UNL     1       0.872  11.369  17.434  0.00  0.00    +0.000 HD
ENDROOT
BRANCH  12  17
ATOM     17  C   UNL     1       2.178   5.796  19.843  0.00  0.00    +0.000 A 
ATOM     18  C   UNL     1       1.180   5.021  20.485  0.00  0.00    +0.000 A 
ATOM     19  C   UNL     1       1.371   3.690  20.854  0.00  0.00    +0.000 A 
ATOM     20  C   UNL     1       2.575   3.048  20.581  0.00  0.00    +0.000 A 
ATOM     21  C   UNL     1       3.597   3.759  19.930  0.00  0.00    +0.000 A 
ATOM     22  C   UNL     1       4.903   3.392  19.497  0.00  0.00    +0.000 A 
ATOM     23  C   UNL     1       5.470   4.492  18.906  0.00  0.00    +0.000 A 
ATOM     24  N   UNL     1       4.569   5.515  18.984  0.00  0.00    +0.000 N 
ATOM     25  C   UNL     1       3.390   5.100  19.586  0.00  0.00    +0.000 A 
ATOM     26  H   UNL     1       4.703   6.433  18.578  0.00  0.00    +0.000 HD
ENDBRANCH  12  17
BRANCH   1  27
ATOM     27  O   UNL     1      -0.146  11.104  23.070  0.00  0.00    +0.000 OA
BRANCH  27  29
ATOM     28  C   UNL     1      -2.136  12.411  23.046  0.00  0.00    +0.000 C 
ATOM     29  C   UNL     1      -1.564  11.013  23.176  0.00  0.00    +0.000 C 
ENDBRANCH  27  29
ENDBRANCH   1  27
TORSDOF 3
ENDMDL
MODEL 2
REMARK VINA RESULT:      -8.3      2.565      7.106
REMARK  Name = 
REMARK  6 active torsions:
REMARK  status: ('A' for Active; 'I' for Inactive)
REMARK    1  A    between atoms: C_1  and  C_2
REMARK    2  A    between atoms: C_2  and  O_3
REMARK    3  A    between atoms: O_3  and  N_4
REMARK    4  A    between atoms: C_7  and  C_8
REMARK    5  A    between atoms: C_7  and  C_9
REMARK    6  A    between atoms: C_15  and  C_16
REMARK                            x       y       z     vdW  Elec       q    Type
REMARK                         _______ _______ _______ _____ _____    ______ ____
ROOT
ATOM      1  N   UNL     1       3.079   4.164  20.285  0.00  0.00    +0.000 NA
ATOM      2  C   UNL     1       3.303   4.620  19.088  0.00  0.00    +0.000 C 
ATOM      3  C   UNL     1       3.940   3.815  17.973  0.00  0.00    +0.000 C 
ATOM      4  C   UNL     1       5.068   4.640  17.346  0.00  0.00    +0.000 C 
ATOM      5  C   UNL     1       6.190   4.955  18.354  0.00  0.00    +0.000 C 
ATOM      6  C   UNL     1       5.674   3.852  16.175  0.00  0.00    +0.000 C 
ATOM      7  N   UNL     1       4.506   5.890  16.811  0.00  0.00    +0.000 N 
ATOM      8  C   UNL     1       3.659   6.615  17.662  0.00  0.00    +0.000 A 
ATOM      9  C   UNL     1       3.381   7.948  17.367  0.00  0.00    +0.000 A 
ATOM     10  C   UNL     1       2.565   8.711  18.207  0.00  0.00    +0.000 A 
ATOM     11  F   UNL     1       2.434  10.009  17.894  0.00  0.00    +0.000 F 
ATOM     12  C   UNL     1       1.922   8.174  19.337  0.00  0.00    +0.000 A 
ATOM     13  C   UNL     1       2.121   6.798  19.544  0.00  0.00    +0.000 A 
ATOM     14  F   UNL     1       1.450   6.186  20.534  0.00  0.00    +0.000 F 
ATOM     15  C   UNL     1       2.991   6.035  18.750  0.00  0.00    +0.000 A 
ATOM     16  H   UNL     1       5.181   6.469  16.317  0.00  0.00    +0.000 HD
ENDROOT
BRANCH  12  17
ATOM     17  C   UNL     1       1.105   9.018  20.247  0.00  0.00    +0.000 A 
ATOM     18  C   UNL     1       1.255   8.968  21.656  0.00  0.00    +0.000 A 
ATOM     19  C   UNL     1       0.463   9.710  22.532  0.00  0.00    +0.000 A 
ATOM     20  C   UNL     1      -0.517  10.568  22.042  0.00  0.00    +0.000 A 
ATOM     21  C   UNL     1      -0.702  10.675  20.653  0.00  0.00    +0.000 A 
ATOM     22  C   UNL     1      -1.580  11.460  19.854  0.00  0.00    +0.000 A 
ATOM     23  C   UNL     1      -1.321  11.166  18.539  0.00  0.00    +0.000 A 
ATOM     24  N   UNL     1      -0.337  10.219  18.512  0.00  0.00    +0.000 N 
ATOM     25  C   UNL     1       0.092   9.905  19.793  0.00  0.00    +0.000 A 
ATOM     26  H   UNL     1       0.089   9.856  17.669  0.00  0.00    +0.000 HD
ENDBRANCH  12  17
BRANCH   1  27
ATOM     27  O   UNL     1       3.490   2.832  20.414  0.00  0.00    +0.000 OA
BRANCH  27  29
ATOM     28  C   UNL     1       1.377   2.763  21.508  0.00  0.00    +0.000 C 
ATOM     29  C   UNL     1       2.799   2.235  21.507  0.00  0.00    +0.000 C 
ENDBRANCH  27  29
ENDBRANCH   1  27
TORSDOF 3
ENDMDL
MODEL 3
REMARK VINA RESULT:      -7.8      1.489      2.172
REMARK  Name = 
REMARK  6 active torsions:
REMARK  status: ('A' for Active; 'I' for Inactive)
REMARK    1  A    between atoms: C_1  and  C_2
REMARK    2  A    between atoms: C_2  and  O_3
REMARK    3  A    between atoms: O_3  and  N_4
REMARK    4  A    between atoms: C_7  and  C_8
REMARK    5  A    between atoms: C_7  and  C_9
REMARK    6  A    between atoms: C_15  and  C_16
REMARK                            x       y       z     vdW  Elec       q    Type
REMARK                         _______ _______ _______ _____ _____    ______ ____
ROOT
ATOM      1  N   UNL     1      -0.140   8.521  21.286  0.00  0.00    +0.000 NA
ATOM      2  C   UNL     1       0.489   9.264  20.423  0.00  0.00    +0.000 C 
ATOM      3  C   UNL     1       0.228  10.744  20.221  0.00  0.00    +0.000 C 
ATOM      4  C   UNL     1       0.047  11.017  18.724  0.00  0.00    +0.000 C 
ATOM      5  C   UNL     1      -1.171  10.276  18.140  0.00  0.00    +0.000 C 
ATOM      6  C   UNL     1      -0.154  12.524  18.511  0.00  0.00    +0.000 C 
ATOM      7  N   UNL     1       1.270  10.615  18.013  0.00  0.00    +0.000 N 
ATOM      8  C   UNL     1       1.787   9.347  18.314  0.00  0.00    +0.000 A 
ATOM      9  C   UNL     1       2.711   8.768  17.447  0.00  0.00    +0.000 A 
ATOM     10  C   UNL     1       3.226   7.492  17.699  0.00  0.00    +0.000 A 
ATOM     11  F   UNL     1       4.034   6.979  16.758  0.00  0.00    +0.000 F 
ATOM     12  C   UNL     1       2.912   6.760  18.857  0.00  0.00    +0.000 A 
ATOM     13  C   UNL     1       2.073   7.416  19.775  0.00  0.00    +0.000 A 
ATOM     14  F   UNL     1       1.818   6.831  20.957  0.00  0.00    +0.000 F 
ATOM     15  C   UNL     1       1.495   8.666  19.505  0.00  0.00    +0.000 A 
ATOM     16  H   UNL     1       1.257  10.825  17.017  0.00  0.00    +0.000 HD
ENDROOT
BRANCH  12  17
ATOM     17  C   UNL     1       3.426   5.382  19.075  0.00  0.00    +0.000 A 
ATOM     18  C   UNL     1       4.801   5.119  19.297  0.00  0.00    +0.000 A 
ATOM     19  C   UNL     1       5.314   3.832  19.450  0.00  0.00    +0.000 A 
ATOM     20  C   UNL     1       4.470   2.727  19.408  0.00  0.00    +0.000 A 
ATOM     21  C   UNL     1       3.093   2.924  19.209  0.00  0.00    +0.000 A 
ATOM     22  C   UNL     1       1.989   2.027  19.142  0.00  0.00    +0.000 A 
ATOM     23  C   UNL     1       0.858   2.775  18.934  0.00  0.00    +0.000 A 
ATOM     24  N   UNL     1       1.236   4.084  18.850  0.00  0.00    +0.000 N 
ATOM     25  C   UNL     1       2.603   4.224  19.038  0.00  0.00    +0.000 A 
ATOM     26  H   UNL     1       0.596   4.863  18.752  0.00  0.00    +0.000 HD
ENDBRANCH  12  17
BRANCH   1  27
ATOM     27  O   UNL     1      -1.081   9.261  22.013  0.00  0.00    +0.000 OA
BRANCH  27  29
ATOM     28  C   UNL     1      -1.136  11.252  23.317  0.00  0.00    +0.000 C 
ATOM     29  C   UNL     1      -0.418   9.938  23.076  0.00  0.00    +0.000 C 
ENDBRANCH  27  29
ENDBRANCH   1  27
TORSDOF 3
ENDMDL
MODEL 4
REMARK VINA RESULT:      -7.8      2.776      7.802
REMARK  Name = 
REMARK  6 active torsions:
REMARK  status: ('A' for Active; 'I' for Inactive)
REMARK    1  A    between atoms: C_1  and  C_2
REMARK    2  A    between atoms: C_2  and  O_3
REMARK    3  A    between atoms: O_3  and  N_4
REMARK    4  A    between atoms: C_7  and  C_8
REMARK    5  A    between atoms: C_7  and  C_9
REMARK    6  A    between atoms: C_15  and  C_16
REMARK                            x       y       z     vdW  Elec       q    Type
REMARK                         _______ _______ _______ _____ _____    ______ ____
ROOT
ATOM      1  N   UNL     1       3.564   6.535  17.350  0.00  0.00    +0.000 NA
ATOM      2  C   UNL     1       3.330   6.243  18.597  0.00  0.00    +0.000 C 
ATOM      3  C   UNL     1       3.890   5.028  19.308  0.00  0.00    +0.000 C 
ATOM      4  C   UNL     1       2.749   4.307  20.033  0.00  0.00    +0.000 C 
ATOM      5  C   UNL     1       1.675   3.786  19.058  0.00  0.00    +0.000 C 
ATOM      6  C   UNL     1       3.324   3.111  20.806  0.00  0.00    +0.000 C 
ATOM      7  N   UNL     1       2.142   5.229  21.005  0.00  0.00    +0.000 N 
ATOM      8  C   UNL     1       1.817   6.511  20.540  0.00  0.00    +0.000 A 
ATOM      9  C   UNL     1       0.939   7.299  21.281  0.00  0.00    +0.000 A 
ATOM     10  C   UNL     1       0.568   8.571  20.835  0.00  0.00    +0.000 A 
ATOM     11  F   UNL     1      -0.356   9.214  21.565  0.00  0.00    +0.000 F 
ATOM     12  C   UNL     1       1.106   9.157  19.675  0.00  0.00    +0.000 A 
ATOM     13  C   UNL     1       2.081   8.392  19.011  0.00  0.00    +0.000 A 
ATOM     14  F   UNL     1       2.725   8.928  17.961  0.00  0.00    +0.000 F 
ATOM     15  C   UNL     1       2.413   7.087  19.408  0.00  0.00    +0.000 A 
ATOM     16  H   UNL     1       1.415   4.806  21.579  0.00  0.00    +0.000 HD
ENDROOT
BRANCH  12  17
ATOM     17  C   UNL     1       0.654  10.486  19.189  0.00  0.00    +0.000 A 
ATOM     18  C   UNL     1       1.455  11.648  19.321  0.00  0.00    +0.000 A 
ATOM     19  C   UNL     1       1.030  12.915  18.922  0.00  0.00    +0.000 A 
ATOM     20  C   UNL     1      -0.223  13.089  18.344  0.00  0.00    +0.000 A 
ATOM     21  C   UNL     1      -1.057  11.971  18.168  0.00  0.00    +0.000 A 
ATOM     22  C   UNL     1      -2.354  11.814  17.601  0.00  0.00    +0.000 A 
ATOM     23  C   UNL     1      -2.687  10.486  17.687  0.00  0.00    +0.000 A 
ATOM     24  N   UNL     1      -1.654   9.839  18.303  0.00  0.00    +0.000 N 
ATOM     25  C   UNL     1      -0.618  10.712  18.595  0.00  0.00    +0.000 A 
ATOM     26  H   UNL     1      -1.608   8.838  18.450  0.00  0.00    +0.000 HD
ENDBRANCH  12  17
BRANCH   1  27
ATOM     27  O   UNL     1       4.406   5.591  16.750  0.00  0.00    +0.000 OA
BRANCH  27  29
ATOM     28  C   UNL     1       5.939   5.180  14.975  0.00  0.00    +0.000 C 
ATOM     29  C   UNL     1       5.224   6.245  15.785  0.00  0.00    +0.000 C 
ENDBRANCH  27  29
ENDBRANCH   1  27
TORSDOF 3
ENDMDL
MODEL 5
REMARK VINA RESULT:      -7.5      0.900      1.064
REMARK  Name = 
REMARK  6 active torsions:
REMARK  status: ('A' for Active; 'I' for Inactive)
REMARK    1  A    between atoms: C_1  and  C_2
REMARK    2  A    between atoms: C_2  and  O_3
REMARK    3  A    between atoms: O_3  and  N_4
REMARK    4  A    between atoms: C_7  and  C_8
REMARK    5  A    between atoms: C_7  and  C_9
REMARK    6  A    between atoms: C_15  and  C_16
REMARK                            x       y       z     vdW  Elec       q    Type
REMARK                         _______ _______ _______ _____ _____    ______ ____
ROOT
ATOM      1  N   UNL     1      -0.225   9.747  21.371  0.00  0.00    +0.000 NA
ATOM      2  C   UNL     1       0.625  10.141  20.468  0.00  0.00    +0.000 C 
ATOM      3  C   UNL     1       0.870  11.591  20.101  0.00  0.00    +0.000 C 
ATOM      4  C   UNL     1       0.807  11.736  18.577  0.00  0.00    +0.000 C 
ATOM      5  C   UNL     1      -0.579  11.371  18.013  0.00  0.00    +0.000 C 
ATOM      6  C   UNL     1       1.118  13.192  18.199  0.00  0.00    +0.000 C 
ATOM      7  N   UNL     1       1.839  10.879  17.973  0.00  0.00    +0.000 N 
ATOM      8  C   UNL     1       1.904   9.554  18.429  0.00  0.00    +0.000 A 
ATOM      9  C   UNL     1       2.597   8.610  17.673  0.00  0.00    +0.000 A 
ATOM     10  C   UNL     1       2.659   7.274  18.081  0.00  0.00    +0.000 A 
ATOM     11  F   UNL     1       3.265   6.422  17.240  0.00  0.00    +0.000 F 
ATOM     12  C   UNL     1       2.107   6.821  19.292  0.00  0.00    +0.000 A 
ATOM     13  C   UNL     1       1.519   7.815  20.094  0.00  0.00    +0.000 A 
ATOM     14  F   UNL     1       1.071   7.484  21.316  0.00  0.00    +0.000 F 
ATOM     15  C   UNL     1       1.389   9.146  19.668  0.00  0.00    +0.000 A 
ATOM     16  H   UNL     1       1.909  10.966  16.961  0.00  0.00    +0.000 HD
ENDROOT
BRANCH  12  17
ATOM     17  C   UNL     1       2.135   5.386  19.676  0.00  0.00    +0.000 A 
ATOM     18  C   UNL     1       0.988   4.717  20.170  0.00  0.00    +0.000 A 
ATOM     19  C   UNL     1       1.004   3.386  20.588  0.00  0.00    +0.000 A 
ATOM     20  C   UNL     1       2.175   2.638  20.514  0.00  0.00    +0.000 A 
ATOM     21  C   UNL     1       3.343   3.241  20.016  0.00  0.00    +0.000 A 
ATOM     22  C   UNL     1       4.662   2.754  19.796  0.00  0.00    +0.000 A 
ATOM     23  C   UNL     1       5.406   3.785  19.281  0.00  0.00    +0.000 A 
ATOM     24  N   UNL     1       4.595   4.881  19.202  0.00  0.00    +0.000 N 
ATOM     25  C   UNL     1       3.308   4.584  19.621  0.00  0.00    +0.000 A 
ATOM     26  H   UNL     1       4.869   5.772  18.806  0.00  0.00    +0.000 HD
ENDBRANCH  12  17
BRANCH   1  27
ATOM     27  O   UNL     1      -0.878  10.831  21.970  0.00  0.00    +0.000 OA
BRANCH  27  29
ATOM     28  C   UNL     1      -0.068   9.473  23.751  0.00  0.00    +0.000 C 
ATOM     29  C   UNL     1      -1.051  10.560  23.358  0.00  0.00    +0.000 C 
ENDBRANCH  27  29
ENDBRANCH   1  27
TORSDOF 3
ENDMDL
MODEL 6
REMARK VINA RESULT:      -7.5      2.568      6.890
REMARK  Name = 
REMARK  6 active torsions:
REMARK  status: ('A' for Active; 'I' for Inactive)
REMARK    1  A    between atoms: C_1  and  C_2
REMARK    2  A    between atoms: C_2  and  O_3
REMARK    3  A    between atoms: O_3  and  N_4
REMARK    4  A    between atoms: C_7  and  C_8
REMARK    5  A    between atoms: C_7  and  C_9
REMARK    6  A    between atoms: C_15  and  C_16
REMARK                            x       y       z     vdW  Elec       q    Type
REMARK                         _______ _______ _______ _____ _____    ______ ____
ROOT
ATOM      1  N   UNL     1       3.000   4.500  20.224  0.00  0.00    +0.000 NA
ATOM      2  C   UNL     1       3.439   4.922  19.074  0.00  0.00    +0.000 C 
ATOM      3  C   UNL     1       4.334   4.115  18.155  0.00  0.00    +0.000 C 
ATOM      4  C   UNL     1       5.521   4.985  17.727  0.00  0.00    +0.000 C 
ATOM      5  C   UNL     1       6.394   5.409  18.923  0.00  0.00    +0.000 C 
ATOM      6  C   UNL     1       6.395   4.191  16.745  0.00  0.00    +0.000 C 
ATOM      7  N   UNL     1       5.013   6.175  17.026  0.00  0.00    +0.000 N 
ATOM      8  C   UNL     1       3.973   6.878  17.649  0.00  0.00    +0.000 A 
ATOM      9  C   UNL     1       3.690   8.178  17.236  0.00  0.00    +0.000 A 
ATOM     10  C   UNL     1       2.678   8.921  17.854  0.00  0.00    +0.000 A 
ATOM     11  F   UNL     1       2.545  10.195  17.454  0.00  0.00    +0.000 F 
ATOM     12  C   UNL     1       1.848   8.389  18.856  0.00  0.00    +0.000 A 
ATOM     13  C   UNL     1       2.073   7.037  19.170  0.00  0.00    +0.000 A 
ATOM     14  F   UNL     1       1.248   6.424  20.034  0.00  0.00    +0.000 F 
ATOM     15  C   UNL     1       3.127   6.300  18.608  0.00  0.00    +0.000 A 
ATOM     16  H   UNL     1       5.743   6.776  16.649  0.00  0.00    +0.000 HD
ENDROOT
BRANCH  12  17
ATOM     17  C   UNL     1       0.818   9.215  19.538  0.00  0.00    +0.000 A 
ATOM     18  C   UNL     1      -0.143   9.966  18.816  0.00  0.00    +0.000 A 
ATOM     19  C   UNL     1      -1.084  10.791  19.432  0.00  0.00    +0.000 A 
ATOM     20  C   UNL     1      -1.130  10.895  20.819  0.00  0.00    +0.000 A 
ATOM     21  C   UNL     1      -0.214  10.160  21.591  0.00  0.00    +0.000 A 
ATOM     22  C   UNL     1      -0.020  10.033  22.996  0.00  0.00    +0.000 A 
ATOM     23  C   UNL     1       1.026   9.168  23.195  0.00  0.00    +0.000 A 
ATOM     24  N   UNL     1       1.486   8.785  21.967  0.00  0.00    +0.000 N 
ATOM     25  C   UNL     1       0.734   9.354  20.950  0.00  0.00    +0.000 A 
ATOM     26  H   UNL     1       2.222   8.107  21.814  0.00  0.00    +0.000 HD
ENDBRANCH  12  17
BRANCH   1  27
ATOM     27  O   UNL     1       3.447   3.203  20.501  0.00  0.00    +0.000 OA
BRANCH  27  29
ATOM     28  C   UNL     1       1.192   2.863  21.185  0.00  0.00    +0.000 C 
ATOM     29  C   UNL     1       2.650   2.649  21.544  0.00  0.00    +0.000 C 
ENDBRANCH  27  29
ENDBRANCH   1  27
TORSDOF 3
ENDMDL
MODEL 7
REMARK VINA RESULT:      -7.4      2.202      4.167
REMARK  Name = 
REMARK  6 active torsions:
REMARK  status: ('A' for Active; 'I' for Inactive)
REMARK    1  A    between atoms: C_1  and  C_2
REMARK    2  A    between atoms: C_2  and  O_3
REMARK    3  A    between atoms: O_3  and  N_4
REMARK    4  A    between atoms: C_7  and  C_8
REMARK    5  A    between atoms: C_7  and  C_9
REMARK    6  A    between atoms: C_15  and  C_16
REMARK                            x       y       z     vdW  Elec       q    Type
REMARK                         _______ _______ _______ _____ _____    ______ ____
ROOT
ATOM      1  N   UNL     1       2.029   9.973  18.346  0.00  0.00    +0.000 NA
ATOM      2  C   UNL     1       1.413   9.166  19.159  0.00  0.00    +0.000 C 
ATOM      3  C   UNL     1       0.208   9.552  19.994  0.00  0.00    +0.000 C 
ATOM      4  C   UNL     1       0.449   9.118  21.444  0.00  0.00    +0.000 C 
ATOM      5  C   UNL     1       1.661   9.832  22.072  0.00  0.00    +0.000 C 
ATOM      6  C   UNL     1      -0.797   9.451  22.278  0.00  0.00    +0.000 C 
ATOM      7  N   UNL     1       0.646   7.662  21.481  0.00  0.00    +0.000 N 
ATOM      8  C   UNL     1       1.553   7.124  20.556  0.00  0.00    +0.000 A 
ATOM      9  C   UNL     1       2.048   5.838  20.760  0.00  0.00    +0.000 A 
ATOM     10  C   UNL     1       2.976   5.280  19.875  0.00  0.00    +0.000 A 
ATOM     11  F   UNL     1       3.468   4.077  20.207  0.00  0.00    +0.000 F 
ATOM     12  C   UNL     1       3.402   5.935  18.705  0.00  0.00    +0.000 A 
ATOM     13  C   UNL     1       2.796   7.180  18.459  0.00  0.00    +0.000 A 
ATOM     14  F   UNL     1       3.062   7.816  17.306  0.00  0.00    +0.000 F 
ATOM     15  C   UNL     1       1.916   7.782  19.371  0.00  0.00    +0.000 A 
ATOM     16  H   UNL     1       0.748   7.281  22.420  0.00  0.00    +0.000 HD
ENDROOT
BRANCH  12  17
ATOM     17  C   UNL     1       4.432   5.347  17.810  0.00  0.00    +0.000 A 
ATOM     18  C   UNL     1       4.104   4.796  16.547  0.00  0.00    +0.000 A 
ATOM     19  C   UNL     1       5.045   4.190  15.714  0.00  0.00    +0.000 A 
ATOM     20  C   UNL     1       6.382   4.120  16.093  0.00  0.00    +0.000 A 
ATOM     21  C   UNL     1       6.772   4.666  17.328  0.00  0.00    +0.000 A 
ATOM     22  C   UNL     1       8.034   4.774  17.980  0.00  0.00    +0.000 A 
ATOM     23  C   UNL     1       7.830   5.411  19.178  0.00  0.00    +0.000 A 
ATOM     24  N   UNL     1       6.494   5.672  19.286  0.00  0.00    +0.000 N 
ATOM     25  C   UNL     1       5.807   5.252  18.157  0.00  0.00    +0.000 A 
ATOM     26  H   UNL     1       6.067   6.184  20.048  0.00  0.00    +0.000 HD
ENDBRANCH  12  17
BRANCH   1  27
ATOM     27  O   UNL     1       1.434  11.240  18.330  0.00  0.00    +0.000 OA
BRANCH  27  29
ATOM     28  C   UNL     1       2.274  13.122  19.522  0.00  0.00    +0.000 C 
ATOM     29  C   UNL     1       2.455  12.234  18.306  0.00  0.00    +0.000 C 
ENDBRANCH  27  29
ENDBRANCH   1  27
TORSDOF 3
ENDMDL
MODEL 8
REMARK VINA RESULT:      -7.4      2.494      7.057
REMARK  Name = 
REMARK  6 active torsions:
REMARK  status: ('A' for Active; 'I' for Inactive)
REMARK    1  A    between atoms: C_1  and  C_2
REMARK    2  A    between atoms: C_2  and  O_3
REMARK    3  A    between atoms: O_3  and  N_4
REMARK    4  A    between atoms: C_7  and  C_8
REMARK    5  A    between atoms: C_7  and  C_9
REMARK    6  A    between atoms: C_15  and  C_16
REMARK                            x       y       z     vdW  Elec       q    Type
REMARK                         _______ _______ _______ _____ _____    ______ ____
ROOT
ATOM      1  N   UNL     1       2.866   4.684  20.204  0.00  0.00    +0.000 NA
ATOM      2  C   UNL     1       2.989   5.288  19.058  0.00  0.00    +0.000 C 
ATOM      3  C   UNL     1       3.582   4.651  17.817  0.00  0.00    +0.000 C 
ATOM      4  C   UNL     1       4.630   5.599  17.224  0.00  0.00    +0.000 C 
ATOM      5  C   UNL     1       5.804   5.847  18.191  0.00  0.00    +0.000 C 
ATOM      6  C   UNL     1       5.187   4.984  15.932  0.00  0.00    +0.000 C 
ATOM      7  N   UNL     1       3.982   6.873  16.880  0.00  0.00    +0.000 N 
ATOM      8  C   UNL     1       3.166   7.451  17.863  0.00  0.00    +0.000 A 
ATOM      9  C   UNL     1       2.814   8.795  17.749  0.00  0.00    +0.000 A 
ATOM     10  C   UNL     1       2.025   9.413  18.724  0.00  0.00    +0.000 A 
ATOM     11  F   UNL     1       1.820  10.731  18.578  0.00  0.00    +0.000 F 
ATOM     12  C   UNL     1       1.483   8.716  19.819  0.00  0.00    +0.000 A 
ATOM     13  C   UNL     1       1.752   7.336  19.847  0.00  0.00    +0.000 A 
ATOM     14  F   UNL     1       1.176   6.580  20.796  0.00  0.00    +0.000 F 
ATOM     15  C   UNL     1       2.597   6.715  18.913  0.00  0.00    +0.000 A 
ATOM     16  H   UNL     1       4.598   7.539  16.418  0.00  0.00    +0.000 HD
ENDROOT
BRANCH  12  17
ATOM     17  C   UNL     1       0.697   9.407  20.874  0.00  0.00    +0.000 A 
ATOM     18  C   UNL     1       0.864   9.115  22.250  0.00  0.00    +0.000 A 
ATOM     19  C   UNL     1       0.100   9.710  23.253  0.00  0.00    +0.000 A 
ATOM     20  C   UNL     1      -0.870  10.655  22.933  0.00  0.00    +0.000 A 
ATOM     21  C   UNL     1      -1.071  11.001  21.586  0.00  0.00    +0.000 A 
ATOM     22  C   UNL     1      -1.945  11.926  20.947  0.00  0.00    +0.000 A 
ATOM     23  C   UNL     1      -1.710  11.856  19.597  0.00  0.00    +0.000 A 
ATOM     24  N   UNL     1      -0.746  10.911  19.393  0.00  0.00    +0.000 N 
ATOM     25  C   UNL     1      -0.305  10.376  20.594  0.00  0.00    +0.000 A 
ATOM     26  H   UNL     1      -0.339  10.689  18.493  0.00  0.00    +0.000 HD
ENDBRANCH  12  17
BRANCH   1  27
ATOM     27  O   UNL     1       3.340   3.368  20.145  0.00  0.00    +0.000 OA
BRANCH  27  29
ATOM     28  C   UNL     1       1.460   2.093  19.429  0.00  0.00    +0.000 C 
ATOM     29  C   UNL     1       2.323   2.486  20.613  0.00  0.00    +0.000 C 
ENDBRANCH  27  29
ENDBRANCH   1  27
TORSDOF 3
ENDMDL
MODEL 9
REMARK VINA RESULT:      -7.4      2.634      7.598
REMARK  Name = 
REMARK  6 active torsions:
REMARK  status: ('A' for Active; 'I' for Inactive)
REMARK    1  A    between atoms: C_1  and  C_2
REMARK    2  A    between atoms: C_2  and  O_3
REMARK    3  A    between atoms: O_3  and  N_4
REMARK    4  A    between atoms: C_7  and  C_8
REMARK    5  A    between atoms: C_7  and  C_9
REMARK    6  A    between atoms: C_15  and  C_16
REMARK                            x       y       z     vdW  Elec       q    Type
REMARK                         _______ _______ _______ _____ _____    ______ ____
ROOT
ATOM      1  N   UNL     1       3.319   6.920  17.500  0.00  0.00    +0.000 NA
ATOM      2  C   UNL     1       3.090   6.635  18.748  0.00  0.00    +0.000 C 
ATOM      3  C   UNL     1       3.668   5.433  19.468  0.00  0.00    +0.000 C 
ATOM      4  C   UNL     1       2.538   4.700  20.199  0.00  0.00    +0.000 C 
ATOM      5  C   UNL     1       1.473   4.156  19.229  0.00  0.00    +0.000 C 
ATOM      6  C   UNL     1       3.132   3.519  20.981  0.00  0.00    +0.000 C 
ATOM      7  N   UNL     1       1.919   5.620  21.165  0.00  0.00    +0.000 N 
ATOM      8  C   UNL     1       1.574   6.894  20.691  0.00  0.00    +0.000 A 
ATOM      9  C   UNL     1       0.684   7.674  21.426  0.00  0.00    +0.000 A 
ATOM     10  C   UNL     1       0.295   8.937  20.970  0.00  0.00    +0.000 A 
ATOM     11  F   UNL     1      -0.639   9.571  21.696  0.00  0.00    +0.000 F 
ATOM     12  C   UNL     1       0.823   9.522  19.806  0.00  0.00    +0.000 A 
ATOM     13  C   UNL     1       1.809   8.767  19.147  0.00  0.00    +0.000 A 
ATOM     14  F   UNL     1       2.444   9.305  18.093  0.00  0.00    +0.000 F 
ATOM     15  C   UNL     1       2.160   7.471  19.554  0.00  0.00    +0.000 A 
ATOM     16  H   UNL     1       1.198   5.191  21.742  0.00  0.00    +0.000 HD
ENDROOT
BRANCH  12  17
ATOM     17  C   UNL     1       0.351  10.841  19.310  0.00  0.00    +0.000 A 
ATOM     18  C   UNL     1      -0.773  10.965  18.456  0.00  0.00    +0.000 A 
ATOM     19  C   UNL     1      -1.202  12.186  17.935  0.00  0.00    +0.000 A 
ATOM     20  C   UNL     1      -0.536  13.364  18.259  0.00  0.00    +0.000 A 
ATOM     21  C   UNL     1       0.575  13.308  19.117  0.00  0.00    +0.000 A 
ATOM     22  C   UNL     1       1.436  14.311  19.648  0.00  0.00    +0.000 A 
ATOM     23  C   UNL     1       2.361  13.686  20.445  0.00  0.00    +0.000 A 
ATOM     24  N   UNL     1       2.108  12.344  20.400  0.00  0.00    +0.000 N 
ATOM     25  C   UNL     1       1.000  12.069  19.613  0.00  0.00    +0.000 A 
ATOM     26  H   UNL     1       2.605  11.646  20.939  0.00  0.00    +0.000 HD
ENDBRANCH  12  17
BRANCH   1  27
ATOM     27  O   UNL     1       4.175   5.985  16.906  0.00  0.00    +0.000 OA
BRANCH  27  29
ATOM     28  C   UNL     1       6.421   6.726  17.175  0.00  0.00    +0.000 C 
ATOM     29  C   UNL     1       5.228   6.675  16.240  0.00  0.00    +0.000 C 
ENDBRANCH  27  29
ENDBRANCH   1  27
TORSDOF 3
ENDMDL
