MODEL 1
REMARK VINA RESULT:      -6.4      0.000      0.000
REMARK  Name = 
REMARK  6 active torsions:
REMARK  status: ('A' for Active; 'I' for Inactive)
REMARK    1  A    between atoms: C_1  and  C_2
REMARK    2  A    between atoms: C_7  and  C_8
REMARK    3  A    between atoms: N_13  and  C_14
REMARK    4  A    between atoms: C_14  and  C_15
REMARK    5  A    between atoms: C_15  and  C_17
REMARK    6  A    between atoms: C_17  and  C_18
REMARK                            x       y       z     vdW  Elec       q    Type
REMARK                         _______ _______ _______ _____ _____    ______ ____
ROOT
ATOM      1  C   UNL     1       1.372  10.827  20.092  0.00  0.00    +0.000 C 
ATOM      2  C   UNL     1       1.287   9.409  20.581  0.00  0.00    +0.000 C 
ATOM      3  O   UNL     1       1.104   9.165  21.775  0.00  0.00    +0.000 OA
ATOM      4  N   UNL     1       1.532   8.401  19.655  0.00  0.00    +0.000 N 
ATOM      5  C   UNL     1       1.870   8.543  18.285  0.00  0.00    +0.000 C 
ATOM      6  O   UNL     1       1.704   9.529  17.587  0.00  0.00    +0.000 OA
ATOM      7  C   UNL     1       2.489   7.223  17.775  0.00  0.00    +0.000 C 
ATOM      8  C   UNL     1       3.952   7.439  17.472  0.00  0.00    +0.000 C 
ATOM      9  C   UNL     1       2.034   6.274  18.878  0.00  0.00    +0.000 C 
ATOM     10  C   UNL     1       1.968   7.131  20.120  0.00  0.00    +0.000 C 
ATOM     11  C   UNL     1       1.116   6.248  21.012  0.00  0.00    +0.000 C 
ATOM     12  C   UNL     1       1.501   4.822  20.559  0.00  0.00    +0.000 C 
ATOM     13  N   UNL     1       2.441   4.956  19.390  0.00  0.00    +0.000 NA
ENDROOT
BRANCH  13  14
ATOM     14  C   UNL     1       3.846   4.786  19.842  0.00  0.00    +0.000 C 
BRANCH  14  15
ATOM     15  C   UNL     1       4.469   3.479  19.286  0.00  0.00    +0.000 C 
ATOM     16  O   UNL     1       5.096   2.672  19.979  0.00  0.00    +0.000 OA
BRANCH  15  17
ATOM     17  C   UNL     1       4.286   3.213  17.801  0.00  0.00    +0.000 C 
BRANCH  17  18
ATOM     18  C   UNL     1       5.239   3.993  16.936  0.00  0.00    +0.000 A 
ATOM     19  C   UNL     1       4.962   4.206  15.579  0.00  0.00    +0.000 A 
ATOM     20  C   UNL     1       5.837   4.953  14.790  0.00  0.00    +0.000 A 
ATOM     21  C   UNL     1       6.994   5.494  15.346  0.00  0.00    +0.000 A 
ATOM     22  C   UNL     1       7.277   5.297  16.695  0.00  0.00    +0.000 A 
ATOM     23  C   UNL     1       6.402   4.553  17.489  0.00  0.00    +0.000 A 
ENDBRANCH  17  18
ENDBRANCH  15  17
ENDBRANCH  14  15
ENDBRANCH  13  14
TORSDOF 4
ENDMDL
MODEL 2
REMARK VINA RESULT:      -6.2      2.791      4.771
REMARK  Name = 
REMARK  6 active torsions:
REMARK  status: ('A' for Active; 'I' for Inactive)
REMARK    1  A    between atoms: C_1  and  C_2
REMARK    2  A    between atoms: C_7  and  C_8
REMARK    3  A    between atoms: N_13  and  C_14
REMARK    4  A    between atoms: C_14  and  C_15
REMARK    5  A    between atoms: C_15  and  C_17
REMARK    6  A    between atoms: C_17  and  C_18
REMARK                            x       y       z     vdW  Elec       q    Type
REMARK                         _______ _______ _______ _____ _____    ______ ____
ROOT
ATOM      1  C   UNL     1       1.273   2.019  19.009  0.00  0.00    +0.000 C 
ATOM      2  C   UNL     1       1.380   3.415  18.461  0.00  0.00    +0.000 C 
ATOM      3  O   UNL     1       0.523   3.856  17.693  0.00  0.00    +0.000 OA
ATOM      4  N   UNL     1       2.529   4.133  18.771  0.00  0.00    +0.000 N 
ATOM      5  C   UNL     1       3.641   3.706  19.540  0.00  0.00    +0.000 C 
ATOM      6  O   UNL     1       3.673   2.775  20.328  0.00  0.00    +0.000 OA
ATOM      7  C   UNL     1       4.848   4.623  19.242  0.00  0.00    +0.000 C 
ATOM      8  C   UNL     1       5.903   3.837  18.503  0.00  0.00    +0.000 C 
ATOM      9  C   UNL     1       4.130   5.802  18.595  0.00  0.00    +0.000 C 
ATOM     10  C   UNL     1       2.928   5.194  17.913  0.00  0.00    +0.000 C 
ATOM     11  C   UNL     1       2.083   6.435  17.698  0.00  0.00    +0.000 C 
ATOM     12  C   UNL     1       3.140   7.544  17.499  0.00  0.00    +0.000 C 
ATOM     13  N   UNL     1       4.495   6.923  17.715  0.00  0.00    +0.000 NA
ENDROOT
BRANCH  13  14
ATOM     14  C   UNL     1       5.128   6.607  16.408  0.00  0.00    +0.000 C 
BRANCH  14  15
ATOM     15  C   UNL     1       6.676   6.643  16.501  0.00  0.00    +0.000 C 
ATOM     16  O   UNL     1       7.316   7.637  16.857  0.00  0.00    +0.000 OA
BRANCH  15  17
ATOM     17  C   UNL     1       7.412   5.371  16.117  0.00  0.00    +0.000 C 
BRANCH  17  18
ATOM     18  C   UNL     1       7.044   4.862  14.748  0.00  0.00    +0.000 A 
ATOM     19  C   UNL     1       7.749   5.288  13.614  0.00  0.00    +0.000 A 
ATOM     20  C   UNL     1       7.421   4.791  12.353  0.00  0.00    +0.000 A 
ATOM     21  C   UNL     1       6.387   3.869  12.210  0.00  0.00    +0.000 A 
ATOM     22  C   UNL     1       5.684   3.432  13.330  0.00  0.00    +0.000 A 
ATOM     23  C   UNL     1       6.012   3.923  14.594  0.00  0.00    +0.000 A 
ENDBRANCH  17  18
ENDBRANCH  15  17
ENDBRANCH  14  15
ENDBRANCH  13  14
TORSDOF 4
ENDMDL
MODEL 3
REMARK VINA RESULT:      -6.2      3.039      5.938
REMARK  Name = 
REMARK  6 active torsions:
REMARK  status: ('A' for Active; 'I' for Inactive)
REMARK    1  A    between atoms: C_1  and  C_2
REMARK    2  A    between atoms: C_7  and  C_8
REMARK    3  A    between atoms: N_13  and  C_14
REMARK    4  A    between atoms: C_14  and  C_15
REMARK    5  A    between atoms: C_15  and  C_17
REMARK    6  A    between atoms: C_17  and  C_18
REMARK                            x       y       z     vdW  Elec       q    Type
REMARK                         _______ _______ _______ _____ _____    ______ ____
ROOT
ATOM      1  C   UNL     1       8.416   8.166  18.958  0.00  0.00    +0.000 C 
ATOM      2  C   UNL     1       7.949   7.426  17.737  0.00  0.00    +0.000 C 
ATOM      3  O   UNL     1       7.933   7.978  16.635  0.00  0.00    +0.000 OA
ATOM      4  N   UNL     1       7.439   6.146  17.924  0.00  0.00    +0.000 N 
ATOM      5  C   UNL     1       7.288   5.441  19.145  0.00  0.00    +0.000 C 
ATOM      6  O   UNL     1       7.852   5.674  20.201  0.00  0.00    +0.000 OA
ATOM      7  C   UNL     1       6.284   4.285  18.943  0.00  0.00    +0.000 C 
ATOM      8  C   UNL     1       5.025   4.572  19.725  0.00  0.00    +0.000 C 
ATOM      9  C   UNL     1       6.278   4.203  17.421  0.00  0.00    +0.000 C 
ATOM     10  C   UNL     1       6.542   5.615  16.958  0.00  0.00    +0.000 C 
ATOM     11  C   UNL     1       6.947   5.357  15.520  0.00  0.00    +0.000 C 
ATOM     12  C   UNL     1       6.117   4.108  15.145  0.00  0.00    +0.000 C 
ATOM     13  N   UNL     1       5.387   3.660  16.384  0.00  0.00    +0.000 NA
ENDROOT
BRANCH  13  14
ATOM     14  C   UNL     1       3.982   4.140  16.350  0.00  0.00    +0.000 C 
BRANCH  14  15
ATOM     15  C   UNL     1       3.067   3.287  17.267  0.00  0.00    +0.000 C 
ATOM     16  O   UNL     1       3.386   2.180  17.713  0.00  0.00    +0.000 OA
BRANCH  15  17
ATOM     17  C   UNL     1       1.706   3.871  17.608  0.00  0.00    +0.000 C 
BRANCH  17  18
ATOM     18  C   UNL     1       1.776   4.999  18.604  0.00  0.00    +0.000 A 
ATOM     19  C   UNL     1       1.465   4.781  19.952  0.00  0.00    +0.000 A 
ATOM     20  C   UNL     1       1.559   5.824  20.874  0.00  0.00    +0.000 A 
ATOM     21  C   UNL     1       1.961   7.091  20.460  0.00  0.00    +0.000 A 
ATOM     22  C   UNL     1       2.281   7.319  19.124  0.00  0.00    +0.000 A 
ATOM     23  C   UNL     1       2.193   6.277  18.200  0.00  0.00    +0.000 A 
ENDBRANCH  17  18
ENDBRANCH  15  17
ENDBRANCH  14  15
ENDBRANCH  13  14
TORSDOF 4
ENDMDL
MODEL 4
REMARK VINA RESULT:      -6.2      2.785      4.988
REMARK  Name = 
REMARK  6 active torsions:
REMARK  status: ('A' for Active; 'I' for Inactive)
REMARK    1  A    between atoms: C_1  and  C_2
REMARK    2  A    between atoms: C_7  and  C_8
REMARK    3  A    between atoms: N_13  and  C_14
REMARK    4  A    between atoms: C_14  and  C_15
REMARK    5  A    between atoms: C_15  and  C_17
REMARK    6  A    between atoms: C_17  and  C_18
REMARK                            x       y       z     vdW  Elec       q    Type
REMARK                         _______ _______ _______ _____ _____    ______ ____
ROOT
ATOM      1  C   UNL     1       1.327   5.797  20.705  0.00  0.00    +0.000 C 
ATOM      2  C   UNL     1       2.504   6.157  19.843  0.00  0.00    +0.000 C 
ATOM      3  O   UNL     1       2.603   7.284  19.353  0.00  0.00    +0.000 OA
ATOM      4  N   UNL     1       3.405   5.143  19.538  0.00  0.00    +0.000 N 
ATOM      5  C   UNL     1       3.347   3.782  19.934  0.00  0.00    +0.000 C 
ATOM      6  O   UNL     1       2.698   3.312  20.853  0.00  0.00    +0.000 OA
ATOM      7  C   UNL     1       4.264   2.946  19.014  0.00  0.00    +0.000 C 
ATOM      8  C   UNL     1       3.419   2.040  18.152  0.00  0.00    +0.000 C 
ATOM      9  C   UNL     1       5.115   4.057  18.409  0.00  0.00    +0.000 C 
ATOM     10  C   UNL     1       4.205   5.262  18.370  0.00  0.00    +0.000 C 
ATOM     11  C   UNL     1       5.228   6.367  18.187  0.00  0.00    +0.000 C 
ATOM     12  C   UNL     1       6.340   5.678  17.365  0.00  0.00    +0.000 C 
ATOM     13  N   UNL     1       5.963   4.227  17.219  0.00  0.00    +0.000 NA
ENDROOT
BRANCH  13  14
ATOM     14  C   UNL     1       5.351   3.989  15.887  0.00  0.00    +0.000 C 
BRANCH  14  15
ATOM     15  C   UNL     1       5.861   5.008  14.835  0.00  0.00    +0.000 C 
ATOM     16  O   UNL     1       5.508   6.191  14.801  0.00  0.00    +0.000 OA
BRANCH  15  17
ATOM     17  C   UNL     1       6.841   4.486  13.798  0.00  0.00    +0.000 C 
BRANCH  17  18
ATOM     18  C   UNL     1       6.189   3.640  12.737  0.00  0.00    +0.000 A 
ATOM     19  C   UNL     1       6.893   2.597  12.121  0.00  0.00    +0.000 A 
ATOM     20  C   UNL     1       6.274   1.800  11.159  0.00  0.00    +0.000 A 
ATOM     21  C   UNL     1       4.948   2.035  10.801  0.00  0.00    +0.000 A 
ATOM     22  C   UNL     1       4.234   3.063  11.412  0.00  0.00    +0.000 A 
ATOM     23  C   UNL     1       4.850   3.860  12.378  0.00  0.00    +0.000 A 
ENDBRANCH  17  18
ENDBRANCH  15  17
ENDBRANCH  14  15
ENDBRANCH  13  14
TORSDOF 4
ENDMDL
MODEL 5
REMARK VINA RESULT:      -6.1      2.615      7.111
REMARK  Name = 
REMARK  6 active torsions:
REMARK  status: ('A' for Active; 'I' for Inactive)
REMARK    1  A    between atoms: C_1  and  C_2
REMARK    2  A    between atoms: C_7  and  C_8
REMARK    3  A    between atoms: N_13  and  C_14
REMARK    4  A    between atoms: C_14  and  C_15
REMARK    5  A    between atoms: C_15  and  C_17
REMARK    6  A    between atoms: C_17  and  C_18
REMARK                            x       y       z     vdW  Elec       q    Type
REMARK                         _______ _______ _______ _____ _____    ______ ____
ROOT
ATOM      1  C   UNL     1       2.543   1.718  18.724  0.00  0.00    +0.000 C 
ATOM      2  C   UNL     1       1.984   2.969  19.340  0.00  0.00    +0.000 C 
ATOM      3  O   UNL     1       0.842   2.987  19.802  0.00  0.00    +0.000 OA
ATOM      4  N   UNL     1       2.763   4.118  19.265  0.00  0.00    +0.000 N 
ATOM      5  C   UNL     1       4.036   4.267  18.659  0.00  0.00    +0.000 C 
ATOM      6  O   UNL     1       4.822   3.378  18.376  0.00  0.00    +0.000 OA
ATOM      7  C   UNL     1       4.309   5.767  18.410  0.00  0.00    +0.000 C 
ATOM      8  C   UNL     1       4.310   6.036  16.925  0.00  0.00    +0.000 C 
ATOM      9  C   UNL     1       3.263   6.382  19.333  0.00  0.00    +0.000 C 
ATOM     10  C   UNL     1       2.128   5.387  19.346  0.00  0.00    +0.000 C 
ATOM     11  C   UNL     1       1.376   5.850  20.579  0.00  0.00    +0.000 C 
ATOM     12  C   UNL     1       1.635   7.373  20.591  0.00  0.00    +0.000 C 
ATOM     13  N   UNL     1       2.584   7.681  19.464  0.00  0.00    +0.000 NA
ENDROOT
BRANCH  13  14
ATOM     14  C   UNL     1       1.834   8.198  18.290  0.00  0.00    +0.000 C 
BRANCH  14  15
ATOM     15  C   UNL     1       1.500   9.704  18.446  0.00  0.00    +0.000 C 
ATOM     16  O   UNL     1       2.130  10.606  17.885  0.00  0.00    +0.000 OA
BRANCH  15  17
ATOM     17  C   UNL     1       0.334  10.054  19.355  0.00  0.00    +0.000 C 
BRANCH  17  18
ATOM     18  C   UNL     1      -0.934  10.363  18.603  0.00  0.00    +0.000 A 
ATOM     19  C   UNL     1      -1.827  11.333  19.076  0.00  0.00    +0.000 A 
ATOM     20  C   UNL     1      -2.985  11.633  18.360  0.00  0.00    +0.000 A 
ATOM     21  C   UNL     1      -3.264  10.969  17.167  0.00  0.00    +0.000 A 
ATOM     22  C   UNL     1      -2.380  10.009  16.682  0.00  0.00    +0.000 A 
ATOM     23  C   UNL     1      -1.218   9.709  17.394  0.00  0.00    +0.000 A 
ENDBRANCH  17  18
ENDBRANCH  15  17
ENDBRANCH  14  15
ENDBRANCH  13  14
TORSDOF 4
ENDMDL
MODEL 6
REMARK VINA RESULT:      -6.1      1.867      7.125
REMARK  Name = 
REMARK  6 active torsions:
REMARK  status: ('A' for Active; 'I' for Inactive)
REMARK    1  A    between atoms: C_1  and  C_2
REMARK    2  A    between atoms: C_7  and  C_8
REMARK    3  A    between atoms: N_13  and  C_14
REMARK    4  A    between atoms: C_14  and  C_15
REMARK    5  A    between atoms: C_15  and  C_17
REMARK    6  A    between atoms: C_17  and  C_18
REMARK                            x       y       z     vdW  Elec       q    Type
REMARK                         _______ _______ _______ _____ _____    ______ ____
ROOT
ATOM      1  C   UNL     1       3.693   1.543  18.588  0.00  0.00    +0.000 C 
ATOM      2  C   UNL     1       2.876   2.657  19.181  0.00  0.00    +0.000 C 
ATOM      3  O   UNL     1       1.731   2.451  19.586  0.00  0.00    +0.000 OA
ATOM      4  N   UNL     1       3.426   3.934  19.151  0.00  0.00    +0.000 N 
ATOM      5  C   UNL     1       4.676   4.330  18.610  0.00  0.00    +0.000 C 
ATOM      6  O   UNL     1       5.629   3.610  18.362  0.00  0.00    +0.000 OA
ATOM      7  C   UNL     1       4.670   5.857  18.382  0.00  0.00    +0.000 C 
ATOM      8  C   UNL     1       4.691   6.142  16.900  0.00  0.00    +0.000 C 
ATOM      9  C   UNL     1       3.483   6.250  19.254  0.00  0.00    +0.000 C 
ATOM     10  C   UNL     1       2.558   5.058  19.205  0.00  0.00    +0.000 C 
ATOM     11  C   UNL     1       1.674   5.353  20.402  0.00  0.00    +0.000 C 
ATOM     12  C   UNL     1       1.637   6.897  20.434  0.00  0.00    +0.000 C 
ATOM     13  N   UNL     1       2.564   7.395  19.356  0.00  0.00    +0.000 NA
ENDROOT
BRANCH  13  14
ATOM     14  C   UNL     1       1.787   7.777  18.149  0.00  0.00    +0.000 C 
BRANCH  14  15
ATOM     15  C   UNL     1       1.507   9.302  18.111  0.00  0.00    +0.000 C 
ATOM     16  O   UNL     1       2.388  10.155  17.969  0.00  0.00    +0.000 OA
BRANCH  15  17
ATOM     17  C   UNL     1       0.058   9.734  18.269  0.00  0.00    +0.000 C 
BRANCH  17  18
ATOM     18  C   UNL     1      -0.214  10.429  19.577  0.00  0.00    +0.000 A 
ATOM     19  C   UNL     1      -0.575  11.782  19.604  0.00  0.00    +0.000 A 
ATOM     20  C   UNL     1      -0.853  12.413  20.817  0.00  0.00    +0.000 A 
ATOM     21  C   UNL     1      -0.772  11.701  22.012  0.00  0.00    +0.000 A 
ATOM     22  C   UNL     1      -0.423  10.353  21.997  0.00  0.00    +0.000 A 
ATOM     23  C   UNL     1      -0.148   9.718  20.785  0.00  0.00    +0.000 A 
ENDBRANCH  17  18
ENDBRANCH  15  17
ENDBRANCH  14  15
ENDBRANCH  13  14
TORSDOF 4
ENDMDL
MODEL 7
REMARK VINA RESULT:      -6.1      2.011      7.233
REMARK  Name = 
REMARK  6 active torsions:
REMARK  status: ('A' for Active; 'I' for Inactive)
REMARK    1  A    between atoms: C_1  and  C_2
REMARK    2  A    between atoms: C_7  and  C_8
REMARK    3  A    between atoms: N_13  and  C_14
REMARK    4  A    between atoms: C_14  and  C_15
REMARK    5  A    between atoms: C_15  and  C_17
REMARK    6  A    between atoms: C_17  and  C_18
REMARK                            x       y       z     vdW  Elec       q    Type
REMARK                         _______ _______ _______ _____ _____    ______ ____
ROOT
ATOM      1  C   UNL     1       3.479   1.641  18.743  0.00  0.00    +0.000 C 
ATOM      2  C   UNL     1       2.720   2.827  19.270  0.00  0.00    +0.000 C 
ATOM      3  O   UNL     1       1.564   2.703  19.679  0.00  0.00    +0.000 OA
ATOM      4  N   UNL     1       3.335   4.070  19.175  0.00  0.00    +0.000 N 
ATOM      5  C   UNL     1       4.606   4.370  18.622  0.00  0.00    +0.000 C 
ATOM      6  O   UNL     1       5.521   3.590  18.419  0.00  0.00    +0.000 OA
ATOM      7  C   UNL     1       4.681   5.882  18.312  0.00  0.00    +0.000 C 
ATOM      8  C   UNL     1       4.722   6.085  16.817  0.00  0.00    +0.000 C 
ATOM      9  C   UNL     1       3.512   6.382  19.154  0.00  0.00    +0.000 C 
ATOM     10  C   UNL     1       2.527   5.238  19.164  0.00  0.00    +0.000 C 
ATOM     11  C   UNL     1       1.655   5.643  20.337  0.00  0.00    +0.000 C 
ATOM     12  C   UNL     1       1.699   7.186  20.286  0.00  0.00    +0.000 C 
ATOM     13  N   UNL     1       2.655   7.576  19.190  0.00  0.00    +0.000 NA
ENDROOT
BRANCH  13  14
ATOM     14  C   UNL     1       1.903   7.933  17.959  0.00  0.00    +0.000 C 
BRANCH  14  15
ATOM     15  C   UNL     1       1.451   9.416  17.976  0.00  0.00    +0.000 C 
ATOM     16  O   UNL     1       2.236  10.369  18.016  0.00  0.00    +0.000 OA
BRANCH  15  17
ATOM     17  C   UNL     1      -0.046   9.675  17.952  0.00  0.00    +0.000 C 
BRANCH  17  18
ATOM     18  C   UNL     1      -0.504  10.617  19.033  0.00  0.00    +0.000 A 
ATOM     19  C   UNL     1      -0.346  10.284  20.385  0.00  0.00    +0.000 A 
ATOM     20  C   UNL     1      -0.747  11.173  21.382  0.00  0.00    +0.000 A 
ATOM     21  C   UNL     1      -1.311  12.401  21.040  0.00  0.00    +0.000 A 
ATOM     22  C   UNL     1      -1.466  12.747  19.701  0.00  0.00    +0.000 A 
ATOM     23  C   UNL     1      -1.062  11.861  18.701  0.00  0.00    +0.000 A 
ENDBRANCH  17  18
ENDBRANCH  15  17
ENDBRANCH  14  15
ENDBRANCH  13  14
TORSDOF 4
ENDMDL
MODEL 8
REMARK VINA RESULT:      -6.1      2.406      6.402
REMARK  Name = 
REMARK  6 active torsions:
REMARK  status: ('A' for Active; 'I' for Inactive)
REMARK    1  A    between atoms: C_1  and  C_2
REMARK    2  A    between atoms: C_7  and  C_8
REMARK    3  A    between atoms: N_13  and  C_14
REMARK    4  A    between atoms: C_14  and  C_15
REMARK    5  A    between atoms: C_15  and  C_17
REMARK    6  A    between atoms: C_17  and  C_18
REMARK                            x       y       z     vdW  Elec       q    Type
REMARK                         _______ _______ _______ _____ _____    ______ ____
ROOT
ATOM      1  C   UNL     1       7.335   4.811  14.491  0.00  0.00    +0.000 C 
ATOM      2  C   UNL     1       6.028   4.182  14.885  0.00  0.00    +0.000 C 
ATOM      3  O   UNL     1       5.189   3.886  14.032  0.00  0.00    +0.000 OA
ATOM      4  N   UNL     1       5.769   4.053  16.245  0.00  0.00    +0.000 N 
ATOM      5  C   UNL     1       6.589   4.458  17.328  0.00  0.00    +0.000 C 
ATOM      6  O   UNL     1       7.785   4.697  17.294  0.00  0.00    +0.000 OA
ATOM      7  C   UNL     1       5.732   4.546  18.610  0.00  0.00    +0.000 C 
ATOM      8  C   UNL     1       5.607   5.990  19.032  0.00  0.00    +0.000 C 
ATOM      9  C   UNL     1       4.517   3.735  18.172  0.00  0.00    +0.000 C 
ATOM     10  C   UNL     1       4.420   3.962  16.682  0.00  0.00    +0.000 C 
ATOM     11  C   UNL     1       3.508   2.815  16.293  0.00  0.00    +0.000 C 
ATOM     12  C   UNL     1       2.612   2.644  17.541  0.00  0.00    +0.000 C 
ATOM     13  N   UNL     1       3.115   3.598  18.592  0.00  0.00    +0.000 NA
ENDROOT
BRANCH  13  14
ATOM     14  C   UNL     1       2.271   4.821  18.619  0.00  0.00    +0.000 C 
BRANCH  14  15
ATOM     15  C   UNL     1       1.794   5.153  20.057  0.00  0.00    +0.000 C 
ATOM     16  O   UNL     1       1.001   4.452  20.693  0.00  0.00    +0.000 OA
BRANCH  15  17
ATOM     17  C   UNL     1       2.345   6.423  20.683  0.00  0.00    +0.000 C 
BRANCH  17  18
ATOM     18  C   UNL     1       1.839   7.679  20.023  0.00  0.00    +0.000 A 
ATOM     19  C   UNL     1       1.045   8.588  20.732  0.00  0.00    +0.000 A 
ATOM     20  C   UNL     1       0.602   9.762  20.123  0.00  0.00    +0.000 A 
ATOM     21  C   UNL     1       0.946  10.039  18.802  0.00  0.00    +0.000 A 
ATOM     22  C   UNL     1       1.741   9.147  18.088  0.00  0.00    +0.000 A 
ATOM     23  C   UNL     1       2.190   7.973  18.696  0.00  0.00    +0.000 A 
ENDBRANCH  17  18
ENDBRANCH  15  17
ENDBRANCH  14  15
ENDBRANCH  13  14
TORSDOF 4
ENDMDL
MODEL 9
REMARK VINA RESULT:      -6.0      3.433      4.848
REMARK  Name = 
REMARK  6 active torsions:
REMARK  status: ('A' for Active; 'I' for Inactive)
REMARK    1  A    between atoms: C_1  and  C_2
REMARK    2  A    between atoms: C_7  and  C_8
REMARK    3  A    between atoms: N_13  and  C_14
REMARK    4  A    between atoms: C_14  and  C_15
REMARK    5  A    between atoms: C_15  and  C_17
REMARK    6  A    between atoms: C_17  and  C_18
REMARK                            x       y       z     vdW  Elec       q    Type
REMARK                         _______ _______ _______ _____ _____    ______ ____
ROOT
ATOM      1  C   UNL     1       0.391  14.600  20.185  0.00  0.00    +0.000 C 
ATOM      2  C   UNL     1       0.204  13.436  21.117  0.00  0.00    +0.000 C 
ATOM      3  O   UNL     1       0.364  13.570  22.331  0.00  0.00    +0.000 OA
ATOM      4  N   UNL     1      -0.047  12.195  20.543  0.00  0.00    +0.000 N 
ATOM      5  C   UNL     1      -0.137  11.878  19.163  0.00  0.00    +0.000 C 
ATOM      6  O   UNL     1      -0.329  12.655  18.243  0.00  0.00    +0.000 OA
ATOM      7  C   UNL     1       0.034  10.354  18.980  0.00  0.00    +0.000 C 
ATOM      8  C   UNL     1       1.341  10.077  18.276  0.00  0.00    +0.000 C 
ATOM      9  C   UNL     1      -0.217   9.886  20.409  0.00  0.00    +0.000 C 
ATOM     10  C   UNL     1       0.270  11.021  21.277  0.00  0.00    +0.000 C 
ATOM     11  C   UNL     1      -0.405  10.667  22.588  0.00  0.00    +0.000 C 
ATOM     12  C   UNL     1      -0.453   9.123  22.549  0.00  0.00    +0.000 C 
ATOM     13  N   UNL     1       0.079   8.687  21.209  0.00  0.00    +0.000 NA
ENDROOT
BRANCH  13  14
ATOM     14  C   UNL     1       1.497   8.265  21.335  0.00  0.00    +0.000 C 
BRANCH  14  15
ATOM     15  C   UNL     1       1.820   7.068  20.403  0.00  0.00    +0.000 C 
ATOM     16  O   UNL     1       2.667   7.108  19.505  0.00  0.00    +0.000 OA
BRANCH  15  17
ATOM     17  C   UNL     1       1.024   5.793  20.629  0.00  0.00    +0.000 C 
BRANCH  17  18
ATOM     18  C   UNL     1       1.698   4.566  20.076  0.00  0.00    +0.000 A 
ATOM     19  C   UNL     1       2.533   3.783  20.883  0.00  0.00    +0.000 A 
ATOM     20  C   UNL     1       3.132   2.632  20.371  0.00  0.00    +0.000 A 
ATOM     21  C   UNL     1       2.905   2.252  19.050  0.00  0.00    +0.000 A 
ATOM     22  C   UNL     1       2.071   3.017  18.239  0.00  0.00    +0.000 A 
ATOM     23  C   UNL     1       1.467   4.167  18.749  0.00  0.00    +0.000 A 
ENDBRANCH  17  18
ENDBRANCH  15  17
ENDBRANCH  14  15
ENDBRANCH  13  14
TORSDOF 4
ENDMDL
