MODEL 1
REMARK VINA RESULT:      -7.4      0.000      0.000
REMARK  Name = 
REMARK  7 active torsions:
REMARK  status: ('A' for Active; 'I' for Inactive)
REMARK    1  A    between atoms: C_1  and  C_2
REMARK    2  A    between atoms: C_2  and  C_3
REMARK    3  A    between atoms: C_3  and  C_4
REMARK    4  A    between atoms: C_3  and  N_8
REMARK    5  A    between atoms: C_4  and  O_6
REMARK    6  A    between atoms: O_6  and  C_7
REMARK    7  A    between atoms: C_9  and  C_10
REMARK                            x       y       z     vdW  Elec       q    Type
REMARK                         _______ _______ _______ _____ _____    ______ ____
ROOT
ATOM      1  N   UNL     1       5.451   5.208  16.654  0.00  0.00    +0.000 N 
ATOM      2  C   UNL     1       4.624   4.146  16.212  0.00  0.00    +0.000 A 
ATOM      3  N   UNL     1       4.783   3.568  15.057  0.00  0.00    +0.000 NA
ATOM      4  C   UNL     1       5.773   4.000  14.177  0.00  0.00    +0.000 A 
ATOM      5  C   UNL     1       5.895   3.409  12.915  0.00  0.00    +0.000 A 
ATOM      6  C   UNL     1       6.856   3.863  12.002  0.00  0.00    +0.000 A 
ATOM      7  C   UNL     1       7.712   4.907  12.351  0.00  0.00    +0.000 A 
ATOM      8  C   UNL     1       7.619   5.474  13.619  0.00  0.00    +0.000 A 
ATOM      9  C   UNL     1       6.658   5.002  14.525  0.00  0.00    +0.000 A 
ATOM     10  C   UNL     1       6.558   5.561  15.871  0.00  0.00    +0.000 A 
ATOM     11  O   UNL     1       7.472   6.302  16.221  0.00  0.00    +0.000 OA
ENDROOT
BRANCH   2  12
ATOM     12  C   UNL     1       3.557   3.530  17.082  0.00  0.00    +0.000 A 
ATOM     13  C   UNL     1       2.271   4.045  17.249  0.00  0.00    +0.000 A 
ATOM     14  C   UNL     1       1.418   3.515  18.224  0.00  0.00    +0.000 A 
ATOM     15  C   UNL     1       1.798   2.395  18.962  0.00  0.00    +0.000 A 
ATOM     16  C   UNL     1       3.019   1.782  18.703  0.00  0.00    +0.000 A 
ATOM     17  C   UNL     1       3.896   2.351  17.774  0.00  0.00    +0.000 A 
ENDBRANCH   2  12
BRANCH   1  18
ATOM     18  C   UNL     1       5.340   5.917  17.972  0.00  0.00    +0.000 C 
BRANCH  18  20
ATOM     19  C   UNL     1       3.710   7.728  17.169  0.00  0.00    +0.000 C 
ATOM     20  C   UNL     1       3.977   6.619  18.194  0.00  0.00    +0.000 C 
ENDBRANCH  18  20
BRANCH  18  21
ATOM     21  C   UNL     1       5.637   5.099  19.264  0.00  0.00    +0.000 C 
ATOM     22  O   UNL     1       4.810   4.872  20.139  0.00  0.00    +0.000 OA
BRANCH  21  23
ATOM     23  O   UNL     1       6.957   4.763  19.349  0.00  0.00    +0.000 OA
ATOM     24  C   UNL     1       7.839   5.879  19.519  0.00  0.00    +0.000 C 
ENDBRANCH  21  23
ENDBRANCH  18  21
ENDBRANCH   1  18
TORSDOF 5
ENDMDL
MODEL 2
REMARK VINA RESULT:      -6.7      3.601      6.617
REMARK  Name = 
REMARK  7 active torsions:
REMARK  status: ('A' for Active; 'I' for Inactive)
REMARK    1  A    between atoms: C_1  and  C_2
REMARK    2  A    between atoms: C_2  and  C_3
REMARK    3  A    between atoms: C_3  and  C_4
REMARK    4  A    between atoms: C_3  and  N_8
REMARK    5  A    between atoms: C_4  and  O_6
REMARK    6  A    between atoms: O_6  and  C_7
REMARK    7  A    between atoms: C_9  and  C_10
REMARK                            x       y       z     vdW  Elec       q    Type
REMARK                         _______ _______ _______ _____ _____    ______ ____
ROOT
ATOM      1  N   UNL     1       2.422   6.846  18.815  0.00  0.00    +0.000 N 
ATOM      2  C   UNL     1       1.921   6.450  20.079  0.00  0.00    +0.000 A 
ATOM      3  N   UNL     1       1.314   7.273  20.883  0.00  0.00    +0.000 NA
ATOM      4  C   UNL     1       1.158   8.615  20.540  0.00  0.00    +0.000 A 
ATOM      5  C   UNL     1       0.557   9.502  21.438  0.00  0.00    +0.000 A 
ATOM      6  C   UNL     1       0.434  10.862  21.126  0.00  0.00    +0.000 A 
ATOM      7  C   UNL     1       0.902  11.344  19.904  0.00  0.00    +0.000 A 
ATOM      8  C   UNL     1       1.469  10.458  18.991  0.00  0.00    +0.000 A 
ATOM      9  C   UNL     1       1.576   9.097  19.315  0.00  0.00    +0.000 A 
ATOM     10  C   UNL     1       2.141   8.142  18.364  0.00  0.00    +0.000 A 
ATOM     11  O   UNL     1       2.319   8.555  17.222  0.00  0.00    +0.000 OA
ENDROOT
BRANCH   2  12
ATOM     12  C   UNL     1       1.958   5.019  20.556  0.00  0.00    +0.000 A 
ATOM     13  C   UNL     1       3.078   4.390  21.102  0.00  0.00    +0.000 A 
ATOM     14  C   UNL     1       3.072   3.010  21.333  0.00  0.00    +0.000 A 
ATOM     15  C   UNL     1       1.912   2.264  21.129  0.00  0.00    +0.000 A 
ATOM     16  C   UNL     1       0.745   2.904  20.725  0.00  0.00    +0.000 A 
ATOM     17  C   UNL     1       0.770   4.271  20.432  0.00  0.00    +0.000 A 
ENDBRANCH   2  12
BRANCH   1  18
ATOM     18  C   UNL     1       3.121   5.957  17.828  0.00  0.00    +0.000 C 
BRANCH  18  20
ATOM     19  C   UNL     1       5.561   6.563  17.321  0.00  0.00    +0.000 C 
ATOM     20  C   UNL     1       4.612   5.701  18.161  0.00  0.00    +0.000 C 
ENDBRANCH  18  20
BRANCH  18  21
ATOM     21  C   UNL     1       2.484   4.568  17.526  0.00  0.00    +0.000 C 
ATOM     22  O   UNL     1       1.310   4.404  17.216  0.00  0.00    +0.000 OA
BRANCH  21  23
ATOM     23  O   UNL     1       3.366   3.552  17.758  0.00  0.00    +0.000 OA
ATOM     24  C   UNL     1       2.796   2.242  17.651  0.00  0.00    +0.000 C 
ENDBRANCH  21  23
ENDBRANCH  18  21
ENDBRANCH   1  18
TORSDOF 5
ENDMDL
MODEL 3
REMARK VINA RESULT:      -6.6      2.390      6.061
REMARK  Name = 
REMARK  7 active torsions:
REMARK  status: ('A' for Active; 'I' for Inactive)
REMARK    1  A    between atoms: C_1  and  C_2
REMARK    2  A    between atoms: C_2  and  C_3
REMARK    3  A    between atoms: C_3  and  C_4
REMARK    4  A    between atoms: C_3  and  N_8
REMARK    5  A    between atoms: C_4  and  O_6
REMARK    6  A    between atoms: O_6  and  C_7
REMARK    7  A    between atoms: C_9  and  C_10
REMARK                            x       y       z     vdW  Elec       q    Type
REMARK                         _______ _______ _______ _____ _____    ______ ____
ROOT
ATOM      1  N   UNL     1       3.088   5.763  18.849  0.00  0.00    +0.000 N 
ATOM      2  C   UNL     1       3.694   6.430  17.757  0.00  0.00    +0.000 A 
ATOM      3  N   UNL     1       3.451   7.677  17.474  0.00  0.00    +0.000 NA
ATOM      4  C   UNL     1       2.541   8.412  18.232  0.00  0.00    +0.000 A 
ATOM      5  C   UNL     1       2.244   9.734  17.882  0.00  0.00    +0.000 A 
ATOM      6  C   UNL     1       1.299  10.470  18.606  0.00  0.00    +0.000 A 
ATOM      7  C   UNL     1       0.649   9.892  19.697  0.00  0.00    +0.000 A 
ATOM      8  C   UNL     1       0.967   8.590  20.071  0.00  0.00    +0.000 A 
ATOM      9  C   UNL     1       1.924   7.868  19.342  0.00  0.00    +0.000 A 
ATOM     10  C   UNL     1       2.296   6.510  19.730  0.00  0.00    +0.000 A 
ATOM     11  O   UNL     1       1.887   6.126  20.822  0.00  0.00    +0.000 OA
ENDROOT
BRANCH   2  12
ATOM     12  C   UNL     1       4.747   5.784  16.891  0.00  0.00    +0.000 A 
ATOM     13  C   UNL     1       4.517   4.717  16.021  0.00  0.00    +0.000 A 
ATOM     14  C   UNL     1       5.591   4.060  15.408  0.00  0.00    +0.000 A 
ATOM     15  C   UNL     1       6.892   4.533  15.568  0.00  0.00    +0.000 A 
ATOM     16  C   UNL     1       7.120   5.683  16.315  0.00  0.00    +0.000 A 
ATOM     17  C   UNL     1       6.054   6.300  16.979  0.00  0.00    +0.000 A 
ENDBRANCH   2  12
BRANCH   1  18
ATOM     18  C   UNL     1       3.324   4.334  19.246  0.00  0.00    +0.000 C 
BRANCH  18  20
ATOM     19  C   UNL     1       1.367   2.813  18.585  0.00  0.00    +0.000 C 
ATOM     20  C   UNL     1       2.776   3.302  18.230  0.00  0.00    +0.000 C 
ENDBRANCH  18  20
BRANCH  18  21
ATOM     21  C   UNL     1       4.784   3.906  19.577  0.00  0.00    +0.000 C 
ATOM     22  O   UNL     1       5.687   4.691  19.843  0.00  0.00    +0.000 OA
BRANCH  21  23
ATOM     23  O   UNL     1       4.957   2.560  19.427  0.00  0.00    +0.000 OA
ATOM     24  C   UNL     1       4.840   1.812  20.643  0.00  0.00    +0.000 C 
ENDBRANCH  21  23
ENDBRANCH  18  21
ENDBRANCH   1  18
TORSDOF 5
ENDMDL
MODEL 4
REMARK VINA RESULT:      -6.3      2.398      6.029
REMARK  Name = 
REMARK  7 active torsions:
REMARK  status: ('A' for Active; 'I' for Inactive)
REMARK    1  A    between atoms: C_1  and  C_2
REMARK    2  A    between atoms: C_2  and  C_3
REMARK    3  A    between atoms: C_3  and  C_4
REMARK    4  A    between atoms: C_3  and  N_8
REMARK    5  A    between atoms: C_4  and  O_6
REMARK    6  A    between atoms: O_6  and  C_7
REMARK    7  A    between atoms: C_9  and  C_10
REMARK                            x       y       z     vdW  Elec       q    Type
REMARK                         _______ _______ _______ _____ _____    ______ ____
ROOT
ATOM      1  N   UNL     1       3.199   6.037  18.896  0.00  0.00    +0.000 N 
ATOM      2  C   UNL     1       3.669   6.705  17.739  0.00  0.00    +0.000 A 
ATOM      3  N   UNL     1       3.293   7.909  17.423  0.00  0.00    +0.000 NA
ATOM      4  C   UNL     1       2.368   8.594  18.209  0.00  0.00    +0.000 A 
ATOM      5  C   UNL     1       1.928   9.865  17.827  0.00  0.00    +0.000 A 
ATOM      6  C   UNL     1       0.966  10.546  18.583  0.00  0.00    +0.000 A 
ATOM      7  C   UNL     1       0.443   9.964  19.738  0.00  0.00    +0.000 A 
ATOM      8  C   UNL     1       0.905   8.715  20.143  0.00  0.00    +0.000 A 
ATOM      9  C   UNL     1       1.877   8.049  19.380  0.00  0.00    +0.000 A 
ATOM     10  C   UNL     1       2.398   6.750  19.798  0.00  0.00    +0.000 A 
ATOM     11  O   UNL     1       2.096   6.383  20.929  0.00  0.00    +0.000 OA
ENDROOT
BRANCH   2  12
ATOM     12  C   UNL     1       4.720   6.116  16.831  0.00  0.00    +0.000 A 
ATOM     13  C   UNL     1       4.533   4.997  16.018  0.00  0.00    +0.000 A 
ATOM     14  C   UNL     1       5.622   4.411  15.361  0.00  0.00    +0.000 A 
ATOM     15  C   UNL     1       6.883   5.001  15.419  0.00  0.00    +0.000 A 
ATOM     16  C   UNL     1       7.052   6.198  16.106  0.00  0.00    +0.000 A 
ATOM     17  C   UNL     1       5.979   6.747  16.815  0.00  0.00    +0.000 A 
ENDBRANCH   2  12
BRANCH   1  18
ATOM     18  C   UNL     1       3.592   4.656  19.335  0.00  0.00    +0.000 C 
BRANCH  18  20
ATOM     19  C   UNL     1       1.516   3.935  18.011  0.00  0.00    +0.000 C 
ATOM     20  C   UNL     1       2.894   3.524  18.542  0.00  0.00    +0.000 C 
ENDBRANCH  18  20
BRANCH  18  21
ATOM     21  C   UNL     1       5.110   4.310  19.367  0.00  0.00    +0.000 C 
ATOM     22  O   UNL     1       5.580   3.244  18.989  0.00  0.00    +0.000 OA
BRANCH  21  23
ATOM     23  O   UNL     1       5.835   5.297  19.970  0.00  0.00    +0.000 OA
ATOM     24  C   UNL     1       7.213   5.338  19.580  0.00  0.00    +0.000 C 
ENDBRANCH  21  23
ENDBRANCH  18  21
ENDBRANCH   1  18
TORSDOF 5
ENDMDL
MODEL 5
REMARK VINA RESULT:      -6.3      0.574      1.118
REMARK  Name = 
REMARK  7 active torsions:
REMARK  status: ('A' for Active; 'I' for Inactive)
REMARK    1  A    between atoms: C_1  and  C_2
REMARK    2  A    between atoms: C_2  and  C_3
REMARK    3  A    between atoms: C_3  and  C_4
REMARK    4  A    between atoms: C_3  and  N_8
REMARK    5  A    between atoms: C_4  and  O_6
REMARK    6  A    between atoms: O_6  and  C_7
REMARK    7  A    between atoms: C_9  and  C_10
REMARK                            x       y       z     vdW  Elec       q    Type
REMARK                         _______ _______ _______ _____ _____    ______ ____
ROOT
ATOM      1  N   UNL     1       5.317   5.224  16.755  0.00  0.00    +0.000 N 
ATOM      2  C   UNL     1       4.499   4.188  16.241  0.00  0.00    +0.000 A 
ATOM      3  N   UNL     1       4.709   3.638  15.081  0.00  0.00    +0.000 NA
ATOM      4  C   UNL     1       5.751   4.077  14.265  0.00  0.00    +0.000 A 
ATOM      5  C   UNL     1       5.931   3.518  12.996  0.00  0.00    +0.000 A 
ATOM      6  C   UNL     1       6.945   3.980  12.148  0.00  0.00    +0.000 A 
ATOM      7  C   UNL     1       7.798   5.000  12.569  0.00  0.00    +0.000 A 
ATOM      8  C   UNL     1       7.647   5.534  13.846  0.00  0.00    +0.000 A 
ATOM      9  C   UNL     1       6.632   5.054  14.688  0.00  0.00    +0.000 A 
ATOM     10  C   UNL     1       6.469   5.579  16.042  0.00  0.00    +0.000 A 
ATOM     11  O   UNL     1       7.375   6.294  16.459  0.00  0.00    +0.000 OA
ENDROOT
BRANCH   2  12
ATOM     12  C   UNL     1       3.378   3.568  17.036  0.00  0.00    +0.000 A 
ATOM     13  C   UNL     1       2.171   4.200  17.340  0.00  0.00    +0.000 A 
ATOM     14  C   UNL     1       1.276   3.619  18.245  0.00  0.00    +0.000 A 
ATOM     15  C   UNL     1       1.523   2.350  18.767  0.00  0.00    +0.000 A 
ATOM     16  C   UNL     1       2.650   1.645  18.359  0.00  0.00    +0.000 A 
ATOM     17  C   UNL     1       3.576   2.254  17.505  0.00  0.00    +0.000 A 
ENDBRANCH   2  12
BRANCH   1  18
ATOM     18  C   UNL     1       5.148   5.900  18.085  0.00  0.00    +0.000 C 
BRANCH  18  20
ATOM     19  C   UNL     1       3.437   7.713  17.481  0.00  0.00    +0.000 C 
ATOM     20  C   UNL     1       3.726   6.466  18.324  0.00  0.00    +0.000 C 
ENDBRANCH  18  20
BRANCH  18  21
ATOM     21  C   UNL     1       5.530   5.094  19.362  0.00  0.00    +0.000 C 
ATOM     22  O   UNL     1       6.682   4.899  19.731  0.00  0.00    +0.000 OA
BRANCH  21  23
ATOM     23  O   UNL     1       4.431   4.541  19.952  0.00  0.00    +0.000 OA
ATOM     24  C   UNL     1       4.650   3.234  20.497  0.00  0.00    +0.000 C 
ENDBRANCH  21  23
ENDBRANCH  18  21
ENDBRANCH   1  18
TORSDOF 5
ENDMDL
MODEL 6
REMARK VINA RESULT:      -6.3      0.716      1.574
REMARK  Name = 
REMARK  7 active torsions:
REMARK  status: ('A' for Active; 'I' for Inactive)
REMARK    1  A    between atoms: C_1  and  C_2
REMARK    2  A    between atoms: C_2  and  C_3
REMARK    3  A    between atoms: C_3  and  C_4
REMARK    4  A    between atoms: C_3  and  N_8
REMARK    5  A    between atoms: C_4  and  O_6
REMARK    6  A    between atoms: O_6  and  C_7
REMARK    7  A    between atoms: C_9  and  C_10
REMARK                            x       y       z     vdW  Elec       q    Type
REMARK                         _______ _______ _______ _____ _____    ______ ____
ROOT
ATOM      1  N   UNL     1       5.418   5.211  16.723  0.00  0.00    +0.000 N 
ATOM      2  C   UNL     1       4.604   4.143  16.270  0.00  0.00    +0.000 A 
ATOM      3  N   UNL     1       4.784   3.563  15.119  0.00  0.00    +0.000 NA
ATOM      4  C   UNL     1       5.785   3.999  14.253  0.00  0.00    +0.000 A 
ATOM      5  C   UNL     1       5.931   3.406  12.995  0.00  0.00    +0.000 A 
ATOM      6  C   UNL     1       6.903   3.862  12.097  0.00  0.00    +0.000 A 
ATOM      7  C   UNL     1       7.748   4.912  12.456  0.00  0.00    +0.000 A 
ATOM      8  C   UNL     1       7.632   5.482  13.721  0.00  0.00    +0.000 A 
ATOM      9  C   UNL     1       6.659   5.006  14.614  0.00  0.00    +0.000 A 
ATOM     10  C   UNL     1       6.535   5.568  15.957  0.00  0.00    +0.000 A 
ATOM     11  O   UNL     1       7.439   6.314  16.318  0.00  0.00    +0.000 OA
ENDROOT
BRANCH   2  12
ATOM     12  C   UNL     1       3.527   3.524  17.125  0.00  0.00    +0.000 A 
ATOM     13  C   UNL     1       3.637   2.296  17.779  0.00  0.00    +0.000 A 
ATOM     14  C   UNL     1       2.517   1.716  18.386  0.00  0.00    +0.000 A 
ATOM     15  C   UNL     1       1.307   2.406  18.444  0.00  0.00    +0.000 A 
ATOM     16  C   UNL     1       1.224   3.693  17.925  0.00  0.00    +0.000 A 
ATOM     17  C   UNL     1       2.324   4.245  17.262  0.00  0.00    +0.000 A 
ENDBRANCH   2  12
BRANCH   1  18
ATOM     18  C   UNL     1       5.282   5.923  18.037  0.00  0.00    +0.000 C 
BRANCH  18  20
ATOM     19  C   UNL     1       3.905   7.640  16.720  0.00  0.00    +0.000 C 
ATOM     20  C   UNL     1       4.131   6.958  18.074  0.00  0.00    +0.000 C 
ENDBRANCH  18  20
BRANCH  18  21
ATOM     21  C   UNL     1       5.145   5.053  19.322  0.00  0.00    +0.000 C 
ATOM     22  O   UNL     1       5.920   4.156  19.630  0.00  0.00    +0.000 OA
BRANCH  21  23
ATOM     23  O   UNL     1       3.996   5.340  20.000  0.00  0.00    +0.000 OA
ATOM     24  C   UNL     1       3.479   4.249  20.771  0.00  0.00    +0.000 C 
ENDBRANCH  21  23
ENDBRANCH  18  21
ENDBRANCH   1  18
TORSDOF 5
ENDMDL
MODEL 7
REMARK VINA RESULT:      -6.2      2.703      6.364
REMARK  Name = 
REMARK  7 active torsions:
REMARK  status: ('A' for Active; 'I' for Inactive)
REMARK    1  A    between atoms: C_1  and  C_2
REMARK    2  A    between atoms: C_2  and  C_3
REMARK    3  A    between atoms: C_3  and  C_4
REMARK    4  A    between atoms: C_3  and  N_8
REMARK    5  A    between atoms: C_4  and  O_6
REMARK    6  A    between atoms: O_6  and  C_7
REMARK    7  A    between atoms: C_9  and  C_10
REMARK                            x       y       z     vdW  Elec       q    Type
REMARK                         _______ _______ _______ _____ _____    ______ ____
ROOT
ATOM      1  N   UNL     1       3.010   5.774  19.248  0.00  0.00    +0.000 N 
ATOM      2  C   UNL     1       3.756   6.299  18.165  0.00  0.00    +0.000 A 
ATOM      3  N   UNL     1       3.585   7.507  17.714  0.00  0.00    +0.000 NA
ATOM      4  C   UNL     1       2.617   8.341  18.270  0.00  0.00    +0.000 A 
ATOM      5  C   UNL     1       2.402   9.617  17.738  0.00  0.00    +0.000 A 
ATOM      6  C   UNL     1       1.402  10.449  18.257  0.00  0.00    +0.000 A 
ATOM      7  C   UNL     1       0.615  10.015  19.324  0.00  0.00    +0.000 A 
ATOM      8  C   UNL     1       0.849   8.760  19.880  0.00  0.00    +0.000 A 
ATOM      9  C   UNL     1       1.861   7.942  19.356  0.00  0.00    +0.000 A 
ATOM     10  C   UNL     1       2.145   6.633  19.939  0.00  0.00    +0.000 A 
ATOM     11  O   UNL     1       1.602   6.387  21.011  0.00  0.00    +0.000 OA
ENDROOT
BRANCH   2  12
ATOM     12  C   UNL     1       4.881   5.537  17.509  0.00  0.00    +0.000 A 
ATOM     13  C   UNL     1       6.156   5.375  18.051  0.00  0.00    +0.000 A 
ATOM     14  C   UNL     1       7.187   4.821  17.283  0.00  0.00    +0.000 A 
ATOM     15  C   UNL     1       6.927   4.320  16.009  0.00  0.00    +0.000 A 
ATOM     16  C   UNL     1       5.629   4.342  15.512  0.00  0.00    +0.000 A 
ATOM     17  C   UNL     1       4.613   4.953  16.255  0.00  0.00    +0.000 A 
ENDBRANCH   2  12
BRANCH   1  18
ATOM     18  C   UNL     1       3.156   4.399  19.832  0.00  0.00    +0.000 C 
BRANCH  18  20
ATOM     19  C   UNL     1       2.486   2.757  21.686  0.00  0.00    +0.000 C 
ATOM     20  C   UNL     1       2.342   4.179  21.131  0.00  0.00    +0.000 C 
ENDBRANCH  18  20
BRANCH  18  21
ATOM     21  C   UNL     1       2.858   3.183  18.905  0.00  0.00    +0.000 C 
ATOM     22  O   UNL     1       3.661   2.289  18.667  0.00  0.00    +0.000 OA
BRANCH  21  23
ATOM     23  O   UNL     1       1.636   3.297  18.308  0.00  0.00    +0.000 OA
ATOM     24  C   UNL     1       0.710   2.263  18.661  0.00  0.00    +0.000 C 
ENDBRANCH  21  23
ENDBRANCH  18  21
ENDBRANCH   1  18
TORSDOF 5
ENDMDL
MODEL 8
REMARK VINA RESULT:      -6.2      2.483      4.577
REMARK  Name = 
REMARK  7 active torsions:
REMARK  status: ('A' for Active; 'I' for Inactive)
REMARK    1  A    between atoms: C_1  and  C_2
REMARK    2  A    between atoms: C_2  and  C_3
REMARK    3  A    between atoms: C_3  and  C_4
REMARK    4  A    between atoms: C_3  and  N_8
REMARK    5  A    between atoms: C_4  and  O_6
REMARK    6  A    between atoms: O_6  and  C_7
REMARK    7  A    between atoms: C_9  and  C_10
REMARK                            x       y       z     vdW  Elec       q    Type
REMARK                         _______ _______ _______ _____ _____    ______ ____
ROOT
ATOM      1  N   UNL     1       3.054   4.939  18.128  0.00  0.00    +0.000 N 
ATOM      2  C   UNL     1       3.351   6.315  17.973  0.00  0.00    +0.000 A 
ATOM      3  N   UNL     1       4.274   6.747  17.165  0.00  0.00    +0.000 NA
ATOM      4  C   UNL     1       5.048   5.853  16.428  0.00  0.00    +0.000 A 
ATOM      5  C   UNL     1       6.077   6.327  15.607  0.00  0.00    +0.000 A 
ATOM      6  C   UNL     1       6.891   5.438  14.895  0.00  0.00    +0.000 A 
ATOM      7  C   UNL     1       6.674   4.063  14.989  0.00  0.00    +0.000 A 
ATOM      8  C   UNL     1       5.628   3.588  15.776  0.00  0.00    +0.000 A 
ATOM      9  C   UNL     1       4.815   4.492  16.475  0.00  0.00    +0.000 A 
ATOM     10  C   UNL     1       3.694   4.021  17.286  0.00  0.00    +0.000 A 
ATOM     11  O   UNL     1       3.389   2.839  17.155  0.00  0.00    +0.000 OA
ENDROOT
BRANCH   2  12
ATOM     12  C   UNL     1       2.555   7.400  18.655  0.00  0.00    +0.000 A 
ATOM     13  C   UNL     1       2.222   7.412  20.010  0.00  0.00    +0.000 A 
ATOM     14  C   UNL     1       1.318   8.357  20.509  0.00  0.00    +0.000 A 
ATOM     15  C   UNL     1       0.827   9.368  19.684  0.00  0.00    +0.000 A 
ATOM     16  C   UNL     1       1.264   9.455  18.367  0.00  0.00    +0.000 A 
ATOM     17  C   UNL     1       2.116   8.473  17.854  0.00  0.00    +0.000 A 
ENDBRANCH   2  12
BRANCH   1  18
ATOM     18  C   UNL     1       2.000   4.363  19.028  0.00  0.00    +0.000 C 
BRANCH  18  20
ATOM     19  C   UNL     1       0.335   2.435  19.326  0.00  0.00    +0.000 C 
ATOM     20  C   UNL     1       1.070   3.340  18.331  0.00  0.00    +0.000 C 
ENDBRANCH  18  20
BRANCH  18  21
ATOM     21  C   UNL     1       2.465   3.709  20.364  0.00  0.00    +0.000 C 
ATOM     22  O   UNL     1       2.440   4.275  21.450  0.00  0.00    +0.000 OA
BRANCH  21  23
ATOM     23  O   UNL     1       3.004   2.473  20.154  0.00  0.00    +0.000 OA
ATOM     24  C   UNL     1       4.392   2.371  20.493  0.00  0.00    +0.000 C 
ENDBRANCH  21  23
ENDBRANCH  18  21
ENDBRANCH   1  18
TORSDOF 5
ENDMDL
MODEL 9
REMARK VINA RESULT:      -6.2      2.639      6.486
REMARK  Name = 
REMARK  7 active torsions:
REMARK  status: ('A' for Active; 'I' for Inactive)
REMARK    1  A    between atoms: C_1  and  C_2
REMARK    2  A    between atoms: C_2  and  C_3
REMARK    3  A    between atoms: C_3  and  C_4
REMARK    4  A    between atoms: C_3  and  N_8
REMARK    5  A    between atoms: C_4  and  O_6
REMARK    6  A    between atoms: O_6  and  C_7
REMARK    7  A    between atoms: C_9  and  C_10
REMARK                            x       y       z     vdW  Elec       q    Type
REMARK                         _______ _______ _______ _____ _____    ______ ____
ROOT
ATOM      1  N   UNL     1       3.394   4.826  19.010  0.00  0.00    +0.000 N 
ATOM      2  C   UNL     1       3.813   5.731  18.005  0.00  0.00    +0.000 A 
ATOM      3  N   UNL     1       3.420   6.971  17.970  0.00  0.00    +0.000 NA
ATOM      4  C   UNL     1       2.528   7.460  18.921  0.00  0.00    +0.000 A 
ATOM      5  C   UNL     1       2.067   8.779  18.838  0.00  0.00    +0.000 A 
ATOM      6  C   UNL     1       1.135   9.270  19.761  0.00  0.00    +0.000 A 
ATOM      7  C   UNL     1       0.664   8.448  20.784  0.00  0.00    +0.000 A 
ATOM      8  C   UNL     1       1.147   7.147  20.893  0.00  0.00    +0.000 A 
ATOM      9  C   UNL     1       2.088   6.672  19.967  0.00  0.00    +0.000 A 
ATOM     10  C   UNL     1       2.630   5.319  20.075  0.00  0.00    +0.000 A 
ATOM     11  O   UNL     1       2.377   4.715  21.113  0.00  0.00    +0.000 OA
ENDROOT
BRANCH   2  12
ATOM     12  C   UNL     1       4.827   5.363  16.950  0.00  0.00    +0.000 A 
ATOM     13  C   UNL     1       4.584   4.505  15.877  0.00  0.00    +0.000 A 
ATOM     14  C   UNL     1       5.639   4.072  15.065  0.00  0.00    +0.000 A 
ATOM     15  C   UNL     1       6.924   4.580  15.246  0.00  0.00    +0.000 A 
ATOM     16  C   UNL     1       7.151   5.548  16.218  0.00  0.00    +0.000 A 
ATOM     17  C   UNL     1       6.111   5.931  17.070  0.00  0.00    +0.000 A 
ENDBRANCH   2  12
BRANCH   1  18
ATOM     18  C   UNL     1       3.810   3.388  19.126  0.00  0.00    +0.000 C 
BRANCH  18  20
ATOM     19  C   UNL     1       4.941   1.640  20.625  0.00  0.00    +0.000 C 
ATOM     20  C   UNL     1       4.135   2.943  20.573  0.00  0.00    +0.000 C 
ENDBRANCH  18  20
BRANCH  18  21
ATOM     21  C   UNL     1       2.860   2.308  18.528  0.00  0.00    +0.000 C 
ATOM     22  O   UNL     1       2.976   1.840  17.402  0.00  0.00    +0.000 OA
BRANCH  21  23
ATOM     23  O   UNL     1       1.823   2.032  19.371  0.00  0.00    +0.000 OA
ATOM     24  C   UNL     1       0.546   2.480  18.900  0.00  0.00    +0.000 C 
ENDBRANCH  21  23
ENDBRANCH  18  21
ENDBRANCH   1  18
TORSDOF 5
ENDMDL
