MODEL 1
REMARK VINA RESULT:      -7.0      0.000      0.000
REMARK  Name = 
REMARK  7 active torsions:
REMARK  status: ('A' for Active; 'I' for Inactive)
REMARK    1  A    between atoms: N_1  and  C_2
REMARK    2  A    between atoms: C_2  and  C_3
REMARK    3  A    between atoms: C_3  and  C_4
REMARK    4  A    between atoms: C_3  and  N_14
REMARK    5  A    between atoms: C_7  and  C_8
REMARK    6  A    between atoms: N_17  and  C_18
REMARK    7  A    between atoms: C_24  and  C_25
REMARK                            x       y       z     vdW  Elec       q    Type
REMARK                         _______ _______ _______ _____ _____    ______ ____
ROOT
ATOM      1  N   UNL     1       1.036   8.996  18.883  0.00  0.00    +0.000 NA
ATOM      2  C   UNL     1       1.530   8.341  17.653  0.00  0.00    +0.000 C 
ATOM      3  C   UNL     1       2.912   7.649  17.754  0.00  0.00    +0.000 C 
ATOM      4  N   UNL     1       2.888   6.723  18.883  0.00  0.00    +0.000 N 
ATOM      5  C   UNL     1       2.528   7.330  20.173  0.00  0.00    +0.000 C 
ATOM      6  C   UNL     1       1.184   8.090  20.042  0.00  0.00    +0.000 C 
ENDROOT
BRANCH   4   7
ATOM      7  C   UNL     1       3.942   5.805  18.946  0.00  0.00    +0.000 A 
ATOM      8  N   UNL     1       5.191   6.262  18.710  0.00  0.00    +0.000 NA
ATOM      9  C   UNL     1       6.179   5.361  18.770  0.00  0.00    +0.000 A 
ATOM     10  N   UNL     1       6.047   4.058  19.048  0.00  0.00    +0.000 NA
ATOM     11  C   UNL     1       4.796   3.620  19.269  0.00  0.00    +0.000 A 
ATOM     12  N   UNL     1       4.708   2.245  19.455  0.00  0.00    +0.000 N 
ATOM     13  C   UNL     1       3.681   4.452  19.221  0.00  0.00    +0.000 A 
ATOM     14  H   UNL     1       5.654   1.869  19.484  0.00  0.00    +0.000 HD
ATOM     15  H   UNL     1       4.172   1.977  20.272  0.00  0.00    +0.000 HD
BRANCH  13  16
ATOM     16  C   UNL     1       2.323   3.945  19.401  0.00  0.00    +0.000 A 
ATOM     17  C   UNL     1       1.407   3.381  18.487  0.00  0.00    +0.000 A 
ATOM     18  N   UNL     1       0.283   2.954  19.068  0.00  0.00    +0.000 NA
ATOM     19  N   UNL     1       0.473   3.245  20.365  0.00  0.00    +0.000 N 
ATOM     20  C   UNL     1       1.675   3.834  20.617  0.00  0.00    +0.000 A 
ATOM     21  H   UNL     1      -0.254   2.995  21.029  0.00  0.00    +0.000 HD
ENDBRANCH  13  16
ENDBRANCH   4   7
BRANCH   1  22
ATOM     22  C   UNL     1       1.486  10.394  19.106  0.00  0.00    +0.000 C 
BRANCH  22  23
ATOM     23  C   UNL     1       0.373  11.160  19.845  0.00  0.00    +0.000 A 
ATOM     24  C   UNL     1      -0.851  11.474  19.239  0.00  0.00    +0.000 A 
ATOM     25  C   UNL     1      -1.915  11.987  19.983  0.00  0.00    +0.000 A 
ATOM     26  C   UNL     1      -1.780  12.210  21.358  0.00  0.00    +0.000 A 
ATOM     27  C   UNL     1      -0.533  11.985  21.957  0.00  0.00    +0.000 A 
ATOM     28  C   UNL     1       0.529  11.461  21.212  0.00  0.00    +0.000 A 
BRANCH  26  29
ATOM     29  C   UNL     1      -2.966  12.618  22.193  0.00  0.00    +0.000 C 
ATOM     30  F   UNL     1      -4.167  12.365  21.597  0.00  0.00    +0.000 F 
ATOM     31  F   UNL     1      -3.006  11.957  23.386  0.00  0.00    +0.000 F 
ATOM     32  F   UNL     1      -2.973  13.944  22.500  0.00  0.00    +0.000 F 
ENDBRANCH  26  29
ENDBRANCH  22  23
BRANCH  22  33
ATOM     33  C   UNL     1       2.041  11.125  17.842  0.00  0.00    +0.000 C 
BRANCH  33  34
ATOM     34  N   UNL     1       2.397  12.535  18.013  0.00  0.00    +0.000 NA
ATOM     35  H   UNL     1       2.566  12.703  19.005  0.00  0.00    +0.000 HD
ATOM     36  H   UNL     1       1.605  13.122  17.755  0.00  0.00    +0.000 HD
ENDBRANCH  33  34
ENDBRANCH  22  33
ENDBRANCH   1  22
TORSDOF 7
ENDMDL
MODEL 2
REMARK VINA RESULT:      -7.0      0.747      1.345
REMARK  Name = 
REMARK  7 active torsions:
REMARK  status: ('A' for Active; 'I' for Inactive)
REMARK    1  A    between atoms: N_1  and  C_2
REMARK    2  A    between atoms: C_2  and  C_3
REMARK    3  A    between atoms: C_3  and  C_4
REMARK    4  A    between atoms: C_3  and  N_14
REMARK    5  A    between atoms: C_7  and  C_8
REMARK    6  A    between atoms: N_17  and  C_18
REMARK    7  A    between atoms: C_24  and  C_25
REMARK                            x       y       z     vdW  Elec       q    Type
REMARK                         _______ _______ _______ _____ _____    ______ ____
ROOT
ATOM      1  N   UNL     1       0.870   9.019  19.129  0.00  0.00    +0.000 NA
ATOM      2  C   UNL     1       1.508   8.677  17.840  0.00  0.00    +0.000 C 
ATOM      3  C   UNL     1       2.915   8.036  17.920  0.00  0.00    +0.000 C 
ATOM      4  N   UNL     1       2.851   6.880  18.810  0.00  0.00    +0.000 N 
ATOM      5  C   UNL     1       2.343   7.167  20.161  0.00  0.00    +0.000 C 
ATOM      6  C   UNL     1       0.971   7.882  20.068  0.00  0.00    +0.000 C 
ENDROOT
BRANCH   4   7
ATOM      7  C   UNL     1       3.949   6.014  18.773  0.00  0.00    +0.000 A 
ATOM      8  N   UNL     1       5.132   6.516  18.358  0.00  0.00    +0.000 NA
ATOM      9  C   UNL     1       6.164   5.665  18.325  0.00  0.00    +0.000 A 
ATOM     10  N   UNL     1       6.136   4.371  18.671  0.00  0.00    +0.000 NA
ATOM     11  C   UNL     1       4.947   3.888  19.070  0.00  0.00    +0.000 A 
ATOM     12  N   UNL     1       4.953   2.521  19.322  0.00  0.00    +0.000 N 
ATOM     13  C   UNL     1       3.794   4.666  19.134  0.00  0.00    +0.000 A 
ATOM     14  H   UNL     1       5.913   2.189  19.243  0.00  0.00    +0.000 HD
ATOM     15  H   UNL     1       4.541   2.267  20.212  0.00  0.00    +0.000 HD
BRANCH  13  16
ATOM     16  C   UNL     1       2.499   4.106  19.510  0.00  0.00    +0.000 A 
ATOM     17  C   UNL     1       1.449   3.573  18.731  0.00  0.00    +0.000 A 
ATOM     18  N   UNL     1       0.452   3.076  19.465  0.00  0.00    +0.000 NA
ATOM     19  N   UNL     1       0.857   3.291  20.727  0.00  0.00    +0.000 N 
ATOM     20  C   UNL     1       2.072   3.900  20.809  0.00  0.00    +0.000 A 
ATOM     21  H   UNL     1       0.261   2.978  21.488  0.00  0.00    +0.000 HD
ENDBRANCH  13  16
ENDBRANCH   4   7
BRANCH   1  22
ATOM     22  C   UNL     1       1.212  10.348  19.698  0.00  0.00    +0.000 C 
BRANCH  22  23
ATOM     23  C   UNL     1       0.066  10.801  20.620  0.00  0.00    +0.000 A 
ATOM     24  C   UNL     1       0.064  10.540  21.997  0.00  0.00    +0.000 A 
ATOM     25  C   UNL     1      -0.878  11.130  22.842  0.00  0.00    +0.000 A 
ATOM     26  C   UNL     1      -1.853  11.992  22.330  0.00  0.00    +0.000 A 
ATOM     27  C   UNL     1      -1.917  12.189  20.943  0.00  0.00    +0.000 A 
ATOM     28  C   UNL     1      -0.965  11.606  20.099  0.00  0.00    +0.000 A 
BRANCH  26  29
ATOM     29  C   UNL     1      -2.775  12.749  23.251  0.00  0.00    +0.000 C 
ATOM     30  F   UNL     1      -2.139  13.690  24.007  0.00  0.00    +0.000 F 
ATOM     31  F   UNL     1      -3.743  13.425  22.568  0.00  0.00    +0.000 F 
ATOM     32  F   UNL     1      -3.431  11.943  24.130  0.00  0.00    +0.000 F 
ENDBRANCH  26  29
ENDBRANCH  22  23
BRANCH  22  33
ATOM     33  C   UNL     1       1.664  11.421  18.656  0.00  0.00    +0.000 C 
BRANCH  33  34
ATOM     34  N   UNL     1       2.200  12.669  19.203  0.00  0.00    +0.000 NA
ATOM     35  H   UNL     1       1.568  13.428  18.945  0.00  0.00    +0.000 HD
ATOM     36  H   UNL     1       3.094  12.881  18.763  0.00  0.00    +0.000 HD
ENDBRANCH  33  34
ENDBRANCH  22  33
ENDBRANCH   1  22
TORSDOF 7
ENDMDL
MODEL 3
REMARK VINA RESULT:      -6.9      1.228      1.393
REMARK  Name = 
REMARK  7 active torsions:
REMARK  status: ('A' for Active; 'I' for Inactive)
REMARK    1  A    between atoms: N_1  and  C_2
REMARK    2  A    between atoms: C_2  and  C_3
REMARK    3  A    between atoms: C_3  and  C_4
REMARK    4  A    between atoms: C_3  and  N_14
REMARK    5  A    between atoms: C_7  and  C_8
REMARK    6  A    between atoms: N_17  and  C_18
REMARK    7  A    between atoms: C_24  and  C_25
REMARK                            x       y       z     vdW  Elec       q    Type
REMARK                         _______ _______ _______ _____ _____    ______ ____
ROOT
ATOM      1  N   UNL     1       0.491   9.515  19.638  0.00  0.00    +0.000 NA
ATOM      2  C   UNL     1       0.634   9.242  18.192  0.00  0.00    +0.000 C 
ATOM      3  C   UNL     1       2.006   8.691  17.732  0.00  0.00    +0.000 C 
ATOM      4  N   UNL     1       2.329   7.514  18.535  0.00  0.00    +0.000 N 
ATOM      5  C   UNL     1       2.333   7.740  19.988  0.00  0.00    +0.000 C 
ATOM      6  C   UNL     1       0.986   8.368  20.428  0.00  0.00    +0.000 C 
ENDROOT
BRANCH   4   7
ATOM      7  C   UNL     1       3.383   6.722  18.066  0.00  0.00    +0.000 A 
ATOM      8  N   UNL     1       4.283   7.295  17.240  0.00  0.00    +0.000 NA
ATOM      9  C   UNL     1       5.276   6.513  16.802  0.00  0.00    +0.000 A 
ATOM     10  N   UNL     1       5.464   5.223  17.110  0.00  0.00    +0.000 NA
ATOM     11  C   UNL     1       4.551   4.667  17.925  0.00  0.00    +0.000 A 
ATOM     12  N   UNL     1       4.739   3.305  18.132  0.00  0.00    +0.000 N 
ATOM     13  C   UNL     1       3.463   5.369  18.437  0.00  0.00    +0.000 A 
ATOM     14  H   UNL     1       5.615   3.036  17.688  0.00  0.00    +0.000 HD
ATOM     15  H   UNL     1       4.715   3.034  19.108  0.00  0.00    +0.000 HD
BRANCH  13  16
ATOM     16  C   UNL     1       2.447   4.730  19.270  0.00  0.00    +0.000 A 
ATOM     17  C   UNL     1       1.275   4.019  18.933  0.00  0.00    +0.000 A 
ATOM     18  N   UNL     1       0.649   3.508  19.996  0.00  0.00    +0.000 NA
ATOM     19  N   UNL     1       1.420   3.893  21.026  0.00  0.00    +0.000 N 
ATOM     20  C   UNL     1       2.506   4.621  20.646  0.00  0.00    +0.000 A 
ATOM     21  H   UNL     1       1.155   3.606  21.963  0.00  0.00    +0.000 HD
ENDBRANCH  13  16
ENDBRANCH   4   7
BRANCH   1  22
ATOM     22  C   UNL     1       0.947  10.851  20.101  0.00  0.00    +0.000 C 
BRANCH  22  23
ATOM     23  C   UNL     1      -0.174  11.494  20.938  0.00  0.00    +0.000 A 
ATOM     24  C   UNL     1      -1.152  12.321  20.372  0.00  0.00    +0.000 A 
ATOM     25  C   UNL     1      -2.268  12.728  21.106  0.00  0.00    +0.000 A 
ATOM     26  C   UNL     1      -2.431  12.324  22.436  0.00  0.00    +0.000 A 
ATOM     27  C   UNL     1      -1.413  11.572  23.041  0.00  0.00    +0.000 A 
ATOM     28  C   UNL     1      -0.301  11.156  22.299  0.00  0.00    +0.000 A 
BRANCH  26  29
ATOM     29  C   UNL     1      -3.701  12.631  23.186  0.00  0.00    +0.000 C 
ATOM     30  F   UNL     1      -4.831  12.437  22.447  0.00  0.00    +0.000 F 
ATOM     31  F   UNL     1      -3.849  11.844  24.291  0.00  0.00    +0.000 F 
ATOM     32  F   UNL     1      -3.761  13.916  23.632  0.00  0.00    +0.000 F 
ENDBRANCH  26  29
ENDBRANCH  22  23
BRANCH  22  33
ATOM     33  C   UNL     1       1.532  11.778  18.986  0.00  0.00    +0.000 C 
BRANCH  33  34
ATOM     34  N   UNL     1       2.226  12.983  19.445  0.00  0.00    +0.000 NA
ATOM     35  H   UNL     1       1.961  13.154  20.416  0.00  0.00    +0.000 HD
ATOM     36  H   UNL     1       1.899  13.789  18.915  0.00  0.00    +0.000 HD
ENDBRANCH  33  34
ENDBRANCH  22  33
ENDBRANCH   1  22
TORSDOF 7
ENDMDL
MODEL 4
REMARK VINA RESULT:      -6.8      5.318     10.025
REMARK  Name = 
REMARK  7 active torsions:
REMARK  status: ('A' for Active; 'I' for Inactive)
REMARK    1  A    between atoms: N_1  and  C_2
REMARK    2  A    between atoms: C_2  and  C_3
REMARK    3  A    between atoms: C_3  and  C_4
REMARK    4  A    between atoms: C_3  and  N_14
REMARK    5  A    between atoms: C_7  and  C_8
REMARK    6  A    between atoms: N_17  and  C_18
REMARK    7  A    between atoms: C_24  and  C_25
REMARK                            x       y       z     vdW  Elec       q    Type
REMARK                         _______ _______ _______ _____ _____    ______ ____
ROOT
ATOM      1  N   UNL     1      -0.867  11.435  20.678  0.00  0.00    +0.000 NA
ATOM      2  C   UNL     1      -0.761  11.604  22.143  0.00  0.00    +0.000 C 
ATOM      3  C   UNL     1      -0.823  13.058  22.671  0.00  0.00    +0.000 C 
ATOM      4  N   UNL     1      -2.027  13.695  22.143  0.00  0.00    +0.000 N 
ATOM      5  C   UNL     1      -2.142  13.680  20.677  0.00  0.00    +0.000 C 
ATOM      6  C   UNL     1      -1.997  12.229  20.151  0.00  0.00    +0.000 C 
ENDROOT
BRANCH   4   7
ATOM      7  C   UNL     1      -2.396  14.903  22.744  0.00  0.00    +0.000 A 
ATOM      8  N   UNL     1      -1.597  15.974  22.548  0.00  0.00    +0.000 NA
ATOM      9  C   UNL     1      -1.970  17.115  23.140  0.00  0.00    +0.000 A 
ATOM     10  N   UNL     1      -3.059  17.295  23.897  0.00  0.00    +0.000 NA
ATOM     11  C   UNL     1      -3.836  16.215  24.090  0.00  0.00    +0.000 A 
ATOM     12  N   UNL     1      -4.896  16.435  24.962  0.00  0.00    +0.000 N 
ATOM     13  C   UNL     1      -3.550  14.968  23.542  0.00  0.00    +0.000 A 
ATOM     14  H   UNL     1      -4.913  17.427  25.195  0.00  0.00    +0.000 HD
ATOM     15  H   UNL     1      -5.790  16.118  24.606  0.00  0.00    +0.000 HD
BRANCH  13  16
ATOM     16  C   UNL     1      -4.372  13.792  23.816  0.00  0.00    +0.000 A 
ATOM     17  C   UNL     1      -5.566  13.328  23.222  0.00  0.00    +0.000 A 
ATOM     18  N   UNL     1      -5.966  12.148  23.703  0.00  0.00    +0.000 NA
ATOM     19  N   UNL     1      -5.026  11.848  24.614  0.00  0.00    +0.000 N 
ATOM     20  C   UNL     1      -4.052  12.794  24.717  0.00  0.00    +0.000 A 
ATOM     21  H   UNL     1      -5.101  10.969  25.116  0.00  0.00    +0.000 HD
ENDBRANCH  13  16
ENDBRANCH   4   7
BRANCH   1  22
ATOM     22  C   UNL     1       0.401  11.545  19.912  0.00  0.00    +0.000 C 
BRANCH  22  23
ATOM     23  C   UNL     1       0.863  10.131  19.516  0.00  0.00    +0.000 A 
ATOM     24  C   UNL     1       1.230   9.802  18.204  0.00  0.00    +0.000 A 
ATOM     25  C   UNL     1       1.834   8.578  17.908  0.00  0.00    +0.000 A 
ATOM     26  C   UNL     1       2.079   7.642  18.919  0.00  0.00    +0.000 A 
ATOM     27  C   UNL     1       1.635   7.923  20.219  0.00  0.00    +0.000 A 
ATOM     28  C   UNL     1       1.040   9.155  20.515  0.00  0.00    +0.000 A 
BRANCH  26  29
ATOM     29  C   UNL     1       2.865   6.388  18.635  0.00  0.00    +0.000 C 
ATOM     30  F   UNL     1       3.585   6.446  17.478  0.00  0.00    +0.000 F 
ATOM     31  F   UNL     1       3.774   6.118  19.616  0.00  0.00    +0.000 F 
ATOM     32  F   UNL     1       2.083   5.279  18.535  0.00  0.00    +0.000 F 
ENDBRANCH  26  29
ENDBRANCH  22  23
BRANCH  22  33
ATOM     33  C   UNL     1       1.508  12.422  20.580  0.00  0.00    +0.000 C 
BRANCH  33  34
ATOM     34  N   UNL     1       1.723  13.748  19.998  0.00  0.00    +0.000 NA
ATOM     35  H   UNL     1       2.668  14.052  20.235  0.00  0.00    +0.000 HD
ATOM     36  H   UNL     1       1.090  14.419  20.431  0.00  0.00    +0.000 HD
ENDBRANCH  33  34
ENDBRANCH  22  33
ENDBRANCH   1  22
TORSDOF 7
ENDMDL
MODEL 5
REMARK VINA RESULT:      -6.6      4.969      9.663
REMARK  Name = 
REMARK  7 active torsions:
REMARK  status: ('A' for Active; 'I' for Inactive)
REMARK    1  A    between atoms: N_1  and  C_2
REMARK    2  A    between atoms: C_2  and  C_3
REMARK    3  A    between atoms: C_3  and  C_4
REMARK    4  A    between atoms: C_3  and  N_14
REMARK    5  A    between atoms: C_7  and  C_8
REMARK    6  A    between atoms: N_17  and  C_18
REMARK    7  A    between atoms: C_24  and  C_25
REMARK                            x       y       z     vdW  Elec       q    Type
REMARK                         _______ _______ _______ _____ _____    ______ ____
ROOT
ATOM      1  N   UNL     1      -0.156  10.651  19.799  0.00  0.00    +0.000 NA
ATOM      2  C   UNL     1       0.207  11.392  21.026  0.00  0.00    +0.000 C 
ATOM      3  C   UNL     1       0.026  12.929  20.978  0.00  0.00    +0.000 C 
ATOM      4  N   UNL     1      -1.342  13.224  20.559  0.00  0.00    +0.000 N 
ATOM      5  C   UNL     1      -1.738  12.624  19.276  0.00  0.00    +0.000 C 
ATOM      6  C   UNL     1      -1.476  11.096  19.304  0.00  0.00    +0.000 C 
ENDROOT
BRANCH   4   7
ATOM      7  C   UNL     1      -1.768  14.544  20.740  0.00  0.00    +0.000 A 
ATOM      8  N   UNL     1      -1.110  15.516  20.073  0.00  0.00    +0.000 NA
ATOM      9  C   UNL     1      -1.534  16.770  20.271  0.00  0.00    +0.000 A 
ATOM     10  N   UNL     1      -2.549  17.148  21.057  0.00  0.00    +0.000 NA
ATOM     11  C   UNL     1      -3.185  16.168  21.722  0.00  0.00    +0.000 A 
ATOM     12  N   UNL     1      -4.164  16.626  22.596  0.00  0.00    +0.000 N 
ATOM     13  C   UNL     1      -2.832  14.825  21.614  0.00  0.00    +0.000 A 
ATOM     14  H   UNL     1      -4.259  17.631  22.466  0.00  0.00    +0.000 HD
ATOM     15  H   UNL     1      -5.053  16.149  22.500  0.00  0.00    +0.000 HD
BRANCH  13  16
ATOM     16  C   UNL     1      -3.493  13.782  22.393  0.00  0.00    +0.000 A 
ATOM     17  C   UNL     1      -3.200  13.234  23.660  0.00  0.00    +0.000 A 
ATOM     18  N   UNL     1      -4.109  12.345  24.069  0.00  0.00    +0.000 NA
ATOM     19  N   UNL     1      -4.994  12.317  23.060  0.00  0.00    +0.000 N 
ATOM     20  C   UNL     1      -4.675  13.158  22.037  0.00  0.00    +0.000 A 
ATOM     21  H   UNL     1      -5.807  11.714  23.144  0.00  0.00    +0.000 HD
ENDBRANCH  13  16
ENDBRANCH   4   7
BRANCH   1  22
ATOM     22  C   UNL     1       0.905  10.534  18.766  0.00  0.00    +0.000 C 
BRANCH  22  23
ATOM     23  C   UNL     1       1.486   9.109  18.814  0.00  0.00    +0.000 A 
ATOM     24  C   UNL     1       2.176   8.544  17.734  0.00  0.00    +0.000 A 
ATOM     25  C   UNL     1       2.864   7.336  17.868  0.00  0.00    +0.000 A 
ATOM     26  C   UNL     1       2.873   6.654  19.089  0.00  0.00    +0.000 A 
ATOM     27  C   UNL     1       2.111   7.164  20.151  0.00  0.00    +0.000 A 
ATOM     28  C   UNL     1       1.431   8.379  20.018  0.00  0.00    +0.000 A 
BRANCH  26  29
ATOM     29  C   UNL     1       3.735   5.433  19.285  0.00  0.00    +0.000 C 
ATOM     30  F   UNL     1       3.209   4.529  20.161  0.00  0.00    +0.000 F 
ATOM     31  F   UNL     1       3.923   4.745  18.122  0.00  0.00    +0.000 F 
ATOM     32  F   UNL     1       4.979   5.727  19.751  0.00  0.00    +0.000 F 
ENDBRANCH  26  29
ENDBRANCH  22  23
BRANCH  22  33
ATOM     33  C   UNL     1       1.979  11.669  18.783  0.00  0.00    +0.000 C 
BRANCH  33  34
ATOM     34  N   UNL     1       2.505  12.081  17.480  0.00  0.00    +0.000 NA
ATOM     35  H   UNL     1       3.314  12.683  17.638  0.00  0.00    +0.000 HD
ATOM     36  H   UNL     1       1.814  12.654  16.997  0.00  0.00    +0.000 HD
ENDBRANCH  33  34
ENDBRANCH  22  33
ENDBRANCH   1  22
TORSDOF 7
ENDMDL
MODEL 6
REMARK VINA RESULT:      -6.6      5.293     10.222
REMARK  Name = 
REMARK  7 active torsions:
REMARK  status: ('A' for Active; 'I' for Inactive)
REMARK    1  A    between atoms: N_1  and  C_2
REMARK    2  A    between atoms: C_2  and  C_3
REMARK    3  A    between atoms: C_3  and  C_4
REMARK    4  A    between atoms: C_3  and  N_14
REMARK    5  A    between atoms: C_7  and  C_8
REMARK    6  A    between atoms: N_17  and  C_18
REMARK    7  A    between atoms: C_24  and  C_25
REMARK                            x       y       z     vdW  Elec       q    Type
REMARK                         _______ _______ _______ _____ _____    ______ ____
ROOT
ATOM      1  N   UNL     1      -0.325  11.406  20.236  0.00  0.00    +0.000 NA
ATOM      2  C   UNL     1      -0.959  12.686  19.853  0.00  0.00    +0.000 C 
ATOM      3  C   UNL     1      -2.373  12.949  20.428  0.00  0.00    +0.000 C 
ATOM      4  N   UNL     1      -2.323  12.787  21.879  0.00  0.00    +0.000 N 
ATOM      5  C   UNL     1      -1.820  11.484  22.339  0.00  0.00    +0.000 C 
ATOM      6  C   UNL     1      -0.442  11.192  21.694  0.00  0.00    +0.000 C 
ENDROOT
BRANCH   4   7
ATOM      7  C   UNL     1      -3.430  13.267  22.588  0.00  0.00    +0.000 A 
ATOM      8  N   UNL     1      -4.595  12.597  22.466  0.00  0.00    +0.000 NA
ATOM      9  C   UNL     1      -5.639  13.082  23.149  0.00  0.00    +0.000 A 
ATOM     10  N   UNL     1      -5.633  14.160  23.944  0.00  0.00    +0.000 NA
ATOM     11  C   UNL     1      -4.467  14.820  24.044  0.00  0.00    +0.000 A 
ATOM     12  N   UNL     1      -4.543  15.983  24.802  0.00  0.00    +0.000 N 
ATOM     13  C   UNL     1      -3.312  14.427  23.373  0.00  0.00    +0.000 A 
ATOM     14  H   UNL     1      -5.474  16.031  25.214  0.00  0.00    +0.000 HD
ATOM     15  H   UNL     1      -3.818  16.061  25.504  0.00  0.00    +0.000 HD
BRANCH  13  16
ATOM     16  C   UNL     1      -2.072  15.194  23.444  0.00  0.00    +0.000 A 
ATOM     17  C   UNL     1      -0.976  15.118  24.330  0.00  0.00    +0.000 A 
ATOM     18  N   UNL     1       0.019  15.947  24.005  0.00  0.00    +0.000 NA
ATOM     19  N   UNL     1      -0.436  16.563  22.903  0.00  0.00    +0.000 N 
ATOM     20  C   UNL     1      -1.677  16.148  22.525  0.00  0.00    +0.000 A 
ATOM     21  H   UNL     1       0.162  17.245  22.446  0.00  0.00    +0.000 HD
ENDBRANCH  13  16
ENDBRANCH   4   7
BRANCH   1  22
ATOM     22  C   UNL     1      -0.658  10.231  19.391  0.00  0.00    +0.000 C 
BRANCH  22  23
ATOM     23  C   UNL     1       0.610   9.377  19.209  0.00  0.00    +0.000 A 
ATOM     24  C   UNL     1       1.050   8.472  20.184  0.00  0.00    +0.000 A 
ATOM     25  C   UNL     1       2.080   7.567  19.918  0.00  0.00    +0.000 A 
ATOM     26  C   UNL     1       2.707   7.551  18.668  0.00  0.00    +0.000 A 
ATOM     27  C   UNL     1       2.337   8.512  17.716  0.00  0.00    +0.000 A 
ATOM     28  C   UNL     1       1.297   9.410  17.981  0.00  0.00    +0.000 A 
BRANCH  26  29
ATOM     29  C   UNL     1       3.712   6.482  18.323  0.00  0.00    +0.000 C 
ATOM     30  F   UNL     1       4.259   5.874  19.415  0.00  0.00    +0.000 F 
ATOM     31  F   UNL     1       3.158   5.475  17.586  0.00  0.00    +0.000 F 
ATOM     32  F   UNL     1       4.759   6.949  17.590  0.00  0.00    +0.000 F 
ENDBRANCH  26  29
ENDBRANCH  22  23
BRANCH  22  33
ATOM     33  C   UNL     1      -1.410  10.560  18.060  0.00  0.00    +0.000 C 
BRANCH  33  34
ATOM     34  N   UNL     1      -2.655   9.827  17.823  0.00  0.00    +0.000 NA
ATOM     35  H   UNL     1      -3.133   9.712  18.717  0.00  0.00    +0.000 HD
ATOM     36  H   UNL     1      -2.442   8.887  17.491  0.00  0.00    +0.000 HD
ENDBRANCH  33  34
ENDBRANCH  22  33
ENDBRANCH   1  22
TORSDOF 7
ENDMDL
MODEL 7
REMARK VINA RESULT:      -6.6      8.537     11.611
REMARK  Name = 
REMARK  7 active torsions:
REMARK  status: ('A' for Active; 'I' for Inactive)
REMARK    1  A    between atoms: N_1  and  C_2
REMARK    2  A    between atoms: C_2  and  C_3
REMARK    3  A    between atoms: C_3  and  C_4
REMARK    4  A    between atoms: C_3  and  N_14
REMARK    5  A    between atoms: C_7  and  C_8
REMARK    6  A    between atoms: N_17  and  C_18
REMARK    7  A    between atoms: C_24  and  C_25
REMARK                            x       y       z     vdW  Elec       q    Type
REMARK                         _______ _______ _______ _____ _____    ______ ____
ROOT
ATOM      1  N   UNL     1       5.464  15.175  19.116  0.00  0.00    +0.000 NA
ATOM      2  C   UNL     1       4.681  15.977  20.081  0.00  0.00    +0.000 C 
ATOM      3  C   UNL     1       3.685  16.996  19.476  0.00  0.00    +0.000 C 
ATOM      4  N   UNL     1       2.818  16.297  18.532  0.00  0.00    +0.000 N 
ATOM      5  C   UNL     1       3.524  15.577  17.461  0.00  0.00    +0.000 C 
ATOM      6  C   UNL     1       4.576  14.618  18.074  0.00  0.00    +0.000 C 
ENDROOT
BRANCH   4   7
ATOM      7  C   UNL     1       1.679  16.993  18.112  0.00  0.00    +0.000 A 
ATOM      8  N   UNL     1       1.830  17.927  17.150  0.00  0.00    +0.000 NA
ATOM      9  C   UNL     1       0.726  18.582  16.773  0.00  0.00    +0.000 A 
ATOM     10  N   UNL     1      -0.510  18.394  17.253  0.00  0.00    +0.000 NA
ATOM     11  C   UNL     1      -0.638  17.468  18.219  0.00  0.00    +0.000 A 
ATOM     12  N   UNL     1      -1.921  17.384  18.748  0.00  0.00    +0.000 N 
ATOM     13  C   UNL     1       0.435  16.729  18.709  0.00  0.00    +0.000 A 
ATOM     14  H   UNL     1      -2.529  17.992  18.202  0.00  0.00    +0.000 HD
ATOM     15  H   UNL     1      -2.282  16.438  18.796  0.00  0.00    +0.000 HD
BRANCH  13  16
ATOM     16  C   UNL     1       0.285  15.772  19.803  0.00  0.00    +0.000 A 
ATOM     17  C   UNL     1       0.056  14.379  19.801  0.00  0.00    +0.000 A 
ATOM     18  N   UNL     1       0.068  13.846  21.025  0.00  0.00    +0.000 NA
ATOM     19  N   UNL     1       0.304  14.899  21.822  0.00  0.00    +0.000 N 
ATOM     20  C   UNL     1       0.445  16.071  21.143  0.00  0.00    +0.000 A 
ATOM     21  H   UNL     1       0.378  14.743  22.823  0.00  0.00    +0.000 HD
ENDBRANCH  13  16
ENDBRANCH   4   7
BRANCH   1  22
ATOM     22  C   UNL     1       6.721  15.791  18.620  0.00  0.00    +0.000 C 
BRANCH  22  23
ATOM     23  C   UNL     1       7.876  14.795  18.829  0.00  0.00    +0.000 A 
ATOM     24  C   UNL     1       8.510  14.631  20.067  0.00  0.00    +0.000 A 
ATOM     25  C   UNL     1       9.413  13.587  20.284  0.00  0.00    +0.000 A 
ATOM     26  C   UNL     1       9.713  12.682  19.261  0.00  0.00    +0.000 A 
ATOM     27  C   UNL     1       9.153  12.890  17.992  0.00  0.00    +0.000 A 
ATOM     28  C   UNL     1       8.241  13.929  17.779  0.00  0.00    +0.000 A 
BRANCH  26  29
ATOM     29  C   UNL     1      10.565  11.468  19.530  0.00  0.00    +0.000 C 
ATOM     30  F   UNL     1      11.303  11.562  20.673  0.00  0.00    +0.000 F 
ATOM     31  F   UNL     1       9.816  10.336  19.673  0.00  0.00    +0.000 F 
ATOM     32  F   UNL     1      11.452  11.206  18.532  0.00  0.00    +0.000 F 
ENDBRANCH  26  29
ENDBRANCH  22  23
BRANCH  22  33
ATOM     33  C   UNL     1       7.010  17.233  19.150  0.00  0.00    +0.000 C 
BRANCH  33  34
ATOM     34  N   UNL     1       8.021  18.000  18.420  0.00  0.00    +0.000 NA
ATOM     35  H   UNL     1       7.555  18.510  17.669  0.00  0.00    +0.000 HD
ATOM     36  H   UNL     1       8.674  17.362  17.968  0.00  0.00    +0.000 HD
ENDBRANCH  33  34
ENDBRANCH  22  33
ENDBRANCH   1  22
TORSDOF 7
ENDMDL
MODEL 8
REMARK VINA RESULT:      -6.5      4.943      9.716
REMARK  Name = 
REMARK  7 active torsions:
REMARK  status: ('A' for Active; 'I' for Inactive)
REMARK    1  A    between atoms: N_1  and  C_2
REMARK    2  A    between atoms: C_2  and  C_3
REMARK    3  A    between atoms: C_3  and  C_4
REMARK    4  A    between atoms: C_3  and  N_14
REMARK    5  A    between atoms: C_7  and  C_8
REMARK    6  A    between atoms: N_17  and  C_18
REMARK    7  A    between atoms: C_24  and  C_25
REMARK                            x       y       z     vdW  Elec       q    Type
REMARK                         _______ _______ _______ _____ _____    ______ ____
ROOT
ATOM      1  N   UNL     1      -0.275  10.774  19.876  0.00  0.00    +0.000 NA
ATOM      2  C   UNL     1       0.061  11.468  21.137  0.00  0.00    +0.000 C 
ATOM      3  C   UNL     1      -0.129  13.005  21.146  0.00  0.00    +0.000 C 
ATOM      4  N   UNL     1      -1.491  13.309  20.714  0.00  0.00    +0.000 N 
ATOM      5  C   UNL     1      -1.860  12.757  19.401  0.00  0.00    +0.000 C 
ATOM      6  C   UNL     1      -1.589  11.231  19.375  0.00  0.00    +0.000 C 
ENDROOT
BRANCH   4   7
ATOM      7  C   UNL     1      -1.929  14.618  20.939  0.00  0.00    +0.000 A 
ATOM      8  N   UNL     1      -1.283  15.617  20.300  0.00  0.00    +0.000 NA
ATOM      9  C   UNL     1      -1.718  16.860  20.539  0.00  0.00    +0.000 A 
ATOM     10  N   UNL     1      -2.733  17.203  21.342  0.00  0.00    +0.000 NA
ATOM     11  C   UNL     1      -3.356  16.196  21.978  0.00  0.00    +0.000 A 
ATOM     12  N   UNL     1      -4.335  16.617  22.871  0.00  0.00    +0.000 N 
ATOM     13  C   UNL     1      -2.991  14.861  21.826  0.00  0.00    +0.000 A 
ATOM     14  H   UNL     1      -4.440  17.625  22.773  0.00  0.00    +0.000 HD
ATOM     15  H   UNL     1      -5.220  16.135  22.763  0.00  0.00    +0.000 HD
BRANCH  13  16
ATOM     16  C   UNL     1      -3.639  13.788  22.574  0.00  0.00    +0.000 A 
ATOM     17  C   UNL     1      -3.311  13.174  23.802  0.00  0.00    +0.000 A 
ATOM     18  N   UNL     1      -4.216  12.276  24.198  0.00  0.00    +0.000 NA
ATOM     19  N   UNL     1      -5.134  12.307  23.219  0.00  0.00    +0.000 N 
ATOM     20  C   UNL     1      -4.839  13.195  22.229  0.00  0.00    +0.000 A 
ATOM     21  H   UNL     1      -5.951  11.709  23.300  0.00  0.00    +0.000 HD
ENDBRANCH  13  16
ENDBRANCH   4   7
BRANCH   1  22
ATOM     22  C   UNL     1       0.805  10.704  18.859  0.00  0.00    +0.000 C 
BRANCH  22  23
ATOM     23  C   UNL     1       1.517   9.344  18.987  0.00  0.00    +0.000 A 
ATOM     24  C   UNL     1       1.478   8.586  20.165  0.00  0.00    +0.000 A 
ATOM     25  C   UNL     1       1.956   7.274  20.195  0.00  0.00    +0.000 A 
ATOM     26  C   UNL     1       2.497   6.687  19.047  0.00  0.00    +0.000 A 
ATOM     27  C   UNL     1       2.624   7.466  17.888  0.00  0.00    +0.000 A 
ATOM     28  C   UNL     1       2.134   8.777  17.856  0.00  0.00    +0.000 A 
BRANCH  26  29
ATOM     29  C   UNL     1       2.874   5.228  19.031  0.00  0.00    +0.000 C 
ATOM     30  F   UNL     1       2.795   4.630  20.254  0.00  0.00    +0.000 F 
ATOM     31  F   UNL     1       2.061   4.496  18.215  0.00  0.00    +0.000 F 
ATOM     32  F   UNL     1       4.143   5.009  18.589  0.00  0.00    +0.000 F 
ENDBRANCH  26  29
ENDBRANCH  22  23
BRANCH  22  33
ATOM     33  C   UNL     1       1.767  11.934  18.823  0.00  0.00    +0.000 C 
BRANCH  33  34
ATOM     34  N   UNL     1       2.407  12.218  17.537  0.00  0.00    +0.000 NA
ATOM     35  H   UNL     1       2.858  11.363  17.209  0.00  0.00    +0.000 HD
ATOM     36  H   UNL     1       3.152  12.901  17.668  0.00  0.00    +0.000 HD
ENDBRANCH  33  34
ENDBRANCH  22  33
ENDBRANCH   1  22
TORSDOF 7
ENDMDL
MODEL 9
REMARK VINA RESULT:      -6.5      5.162      9.915
REMARK  Name = 
REMARK  7 active torsions:
REMARK  status: ('A' for Active; 'I' for Inactive)
REMARK    1  A    between atoms: N_1  and  C_2
REMARK    2  A    between atoms: C_2  and  C_3
REMARK    3  A    between atoms: C_3  and  C_4
REMARK    4  A    between atoms: C_3  and  N_14
REMARK    5  A    between atoms: C_7  and  C_8
REMARK    6  A    between atoms: N_17  and  C_18
REMARK    7  A    between atoms: C_24  and  C_25
REMARK                            x       y       z     vdW  Elec       q    Type
REMARK                         _______ _______ _______ _____ _____    ______ ____
ROOT
ATOM      1  N   UNL     1      -0.914  11.316  20.338  0.00  0.00    +0.000 NA
ATOM      2  C   UNL     1      -0.581  11.509  21.766  0.00  0.00    +0.000 C 
ATOM      3  C   UNL     1      -0.604  12.968  22.284  0.00  0.00    +0.000 C 
ATOM      4  N   UNL     1      -1.896  13.562  21.948  0.00  0.00    +0.000 N 
ATOM      5  C   UNL     1      -2.241  13.523  20.519  0.00  0.00    +0.000 C 
ATOM      6  C   UNL     1      -2.136  12.070  19.990  0.00  0.00    +0.000 C 
ENDROOT
BRANCH   4   7
ATOM      7  C   UNL     1      -2.201  14.768  22.588  0.00  0.00    +0.000 A 
ATOM      8  N   UNL     1      -1.363  15.810  22.403  0.00  0.00    +0.000 NA
ATOM      9  C   UNL     1      -1.676  16.949  23.032  0.00  0.00    +0.000 A 
ATOM     10  N   UNL     1      -2.741  17.153  23.818  0.00  0.00    +0.000 NA
ATOM     11  C   UNL     1      -3.557  16.101  24.000  0.00  0.00    +0.000 A 
ATOM     12  N   UNL     1      -4.589  16.340  24.901  0.00  0.00    +0.000 N 
ATOM     13  C   UNL     1      -3.335  14.858  23.414  0.00  0.00    +0.000 A 
ATOM     14  H   UNL     1      -4.560  17.325  25.160  0.00  0.00    +0.000 HD
ATOM     15  H   UNL     1      -5.503  16.069  24.556  0.00  0.00    +0.000 HD
BRANCH  13  16
ATOM     16  C   UNL     1      -4.199  13.710  23.674  0.00  0.00    +0.000 A 
ATOM     17  C   UNL     1      -4.179  12.739  24.698  0.00  0.00    +0.000 A 
ATOM     18  N   UNL     1      -5.208  11.890  24.635  0.00  0.00    +0.000 NA
ATOM     19  N   UNL     1      -5.895  12.312  23.562  0.00  0.00    +0.000 N 
ATOM     20  C   UNL     1      -5.337  13.396  22.955  0.00  0.00    +0.000 A 
ATOM     21  H   UNL     1      -6.750  11.825  23.311  0.00  0.00    +0.000 HD
ENDBRANCH  13  16
ENDBRANCH   4   7
BRANCH   1  22
ATOM     22  C   UNL     1       0.213  11.452  19.380  0.00  0.00    +0.000 C 
BRANCH  22  23
ATOM     23  C   UNL     1       1.016  10.138  19.371  0.00  0.00    +0.000 A 
ATOM     24  C   UNL     1       1.051   9.274  20.473  0.00  0.00    +0.000 A 
ATOM     25  C   UNL     1       1.616   8.000  20.375  0.00  0.00    +0.000 A 
ATOM     26  C   UNL     1       2.171   7.559  19.169  0.00  0.00    +0.000 A 
ATOM     27  C   UNL     1       2.222   8.448  18.086  0.00  0.00    +0.000 A 
ATOM     28  C   UNL     1       1.646   9.720  18.183  0.00  0.00    +0.000 A 
BRANCH  26  29
ATOM     29  C   UNL     1       2.644   6.137  19.012  0.00  0.00    +0.000 C 
ATOM     30  F   UNL     1       2.816   5.759  17.712  0.00  0.00    +0.000 F 
ATOM     31  F   UNL     1       3.850   5.927  19.614  0.00  0.00    +0.000 F 
ATOM     32  F   UNL     1       1.791   5.227  19.557  0.00  0.00    +0.000 F 
ENDBRANCH  26  29
ENDBRANCH  22  23
BRANCH  22  33
ATOM     33  C   UNL     1       1.083  12.738  19.553  0.00  0.00    +0.000 C 
BRANCH  33  34
ATOM     34  N   UNL     1       0.821  13.828  18.611  0.00  0.00    +0.000 NA
ATOM     35  H   UNL     1       1.073  13.509  17.675  0.00  0.00    +0.000 HD
ATOM     36  H   UNL     1       1.435  14.615  18.818  0.00  0.00    +0.000 HD
ENDBRANCH  33  34
ENDBRANCH  22  33
ENDBRANCH   1  22
TORSDOF 7
ENDMDL
