MODEL 1
REMARK VINA RESULT:      -8.4      0.000      0.000
REMARK  Name = 
REMARK  6 active torsions:
REMARK  status: ('A' for Active; 'I' for Inactive)
REMARK    1  A    between atoms: C_2  and  C_4
REMARK    2  A    between atoms: C_7  and  N_8
REMARK    3  A    between atoms: C_11  and  C_12
REMARK    4  A    between atoms: C_12  and  N_13
REMARK    5  A    between atoms: C_14  and  C_16
REMARK    6  A    between atoms: C_16  and  C_17
REMARK                            x       y       z     vdW  Elec       q    Type
REMARK                         _______ _______ _______ _____ _____    ______ ____
ROOT
ATOM      1  N   UNL     1       5.404   5.897  18.197  0.00  0.00    +0.000 N 
ATOM      2  C   UNL     1       5.369   5.973  16.730  0.00  0.00    +0.000 C 
ATOM      3  C   UNL     1       6.821   5.805  16.298  0.00  0.00    +0.000 C 
ATOM      4  C   UNL     1       7.624   6.417  17.441  0.00  0.00    +0.000 C 
ATOM      5  C   UNL     1       6.796   6.029  18.678  0.00  0.00    +0.000 C 
ENDROOT
BRANCH   1   9
ATOM      6  C   UNL     1       2.513   3.681  20.357  0.00  0.00    +0.000 A 
ATOM      7  C   UNL     1       3.607   3.042  19.766  0.00  0.00    +0.000 A 
ATOM      8  C   UNL     1       4.578   3.784  19.093  0.00  0.00    +0.000 A 
ATOM      9  C   UNL     1       4.466   5.173  18.936  0.00  0.00    +0.000 A 
ATOM     10  C   UNL     1       3.320   5.794  19.544  0.00  0.00    +0.000 A 
ATOM     11  C   UNL     1       2.992   7.143  19.405  0.00  0.00    +0.000 A 
ATOM     12  N   UNL     1       1.951   7.777  19.982  0.00  0.00    +0.000 NA
ATOM     13  C   UNL     1       1.164   7.001  20.719  0.00  0.00    +0.000 A 
ATOM     14  N   UNL     1       1.317   5.685  20.892  0.00  0.00    +0.000 NA
ATOM     15  C   UNL     1       2.365   5.070  20.289  0.00  0.00    +0.000 A 
BRANCH   6  17
ATOM     16  N   UNL     1       0.334   2.566  20.295  0.00  0.00    +0.000 N 
ATOM     17  C   UNL     1       1.490   2.797  20.985  0.00  0.00    +0.000 C 
ATOM     18  O   UNL     1       1.676   2.290  22.086  0.00  0.00    +0.000 OA
ATOM     19  H   UNL     1      -0.267   1.829  20.636  0.00  0.00    +0.000 HD
ATOM     20  H   UNL     1       0.302   2.791  19.305  0.00  0.00    +0.000 HD
ENDBRANCH   6  17
ENDBRANCH   1   9
BRANCH   4  21
ATOM     21  C   UNL     1       7.776   7.938  17.281  0.00  0.00    +0.000 C 
BRANCH  21  22
ATOM     22  N   UNL     1       8.557   8.546  18.344  0.00  0.00    +0.000 N 
ATOM     23  C   UNL     1       8.672   9.915  18.476  0.00  0.00    +0.000 C 
ATOM     24  O   UNL     1       8.149  10.701  17.684  0.00  0.00    +0.000 OA
ATOM     25  H   UNL     1       9.069   7.948  18.981  0.00  0.00    +0.000 HD
BRANCH  23  26
ATOM     26  C   UNL     1       9.502  10.377  19.665  0.00  0.00    +0.000 C 
BRANCH  26  27
ATOM     27  C   UNL     1      10.405  11.559  19.392  0.00  0.00    +0.000 A 
ATOM     28  C   UNL     1      10.545  12.621  20.298  0.00  0.00    +0.000 A 
ATOM     29  C   UNL     1      11.389  13.696  20.011  0.00  0.00    +0.000 A 
ATOM     30  C   UNL     1      12.126  13.712  18.830  0.00  0.00    +0.000 A 
ATOM     31  C   UNL     1      12.036  12.642  17.943  0.00  0.00    +0.000 A 
ATOM     32  C   UNL     1      11.186  11.570  18.225  0.00  0.00    +0.000 A 
ENDBRANCH  26  27
ENDBRANCH  23  26
ENDBRANCH  21  22
ENDBRANCH   4  21
TORSDOF 6
ENDMDL
MODEL 2
REMARK VINA RESULT:      -8.1      0.782      1.187
REMARK  Name = 
REMARK  6 active torsions:
REMARK  status: ('A' for Active; 'I' for Inactive)
REMARK    1  A    between atoms: C_2  and  C_4
REMARK    2  A    between atoms: C_7  and  N_8
REMARK    3  A    between atoms: C_11  and  C_12
REMARK    4  A    between atoms: C_12  and  N_13
REMARK    5  A    between atoms: C_14  and  C_16
REMARK    6  A    between atoms: C_16  and  C_17
REMARK                            x       y       z     vdW  Elec       q    Type
REMARK                         _______ _______ _______ _____ _____    ______ ____
ROOT
ATOM      1  N   UNL     1       5.270   5.895  17.881  0.00  0.00    +0.000 N 
ATOM      2  C   UNL     1       5.470   5.996  16.428  0.00  0.00    +0.000 C 
ATOM      3  C   UNL     1       6.976   5.872  16.234  0.00  0.00    +0.000 C 
ATOM      4  C   UNL     1       7.568   6.485  17.500  0.00  0.00    +0.000 C 
ATOM      5  C   UNL     1       6.563   6.054  18.581  0.00  0.00    +0.000 C 
ENDROOT
BRANCH   1   9
ATOM      6  C   UNL     1       2.117   3.594  19.522  0.00  0.00    +0.000 A 
ATOM      7  C   UNL     1       3.129   2.987  18.772  0.00  0.00    +0.000 A 
ATOM      8  C   UNL     1       4.187   3.745  18.272  0.00  0.00    +0.000 A 
ATOM      9  C   UNL     1       4.247   5.135  18.450  0.00  0.00    +0.000 A 
ATOM     10  C   UNL     1       3.181   5.727  19.212  0.00  0.00    +0.000 A 
ATOM     11  C   UNL     1       3.021   7.101  19.402  0.00  0.00    +0.000 A 
ATOM     12  N   UNL     1       2.061   7.701  20.135  0.00  0.00    +0.000 NA
ATOM     13  C   UNL     1       1.180   6.872  20.686  0.00  0.00    +0.000 A 
ATOM     14  N   UNL     1       1.170   5.544  20.541  0.00  0.00    +0.000 NA
ATOM     15  C   UNL     1       2.140   4.968  19.787  0.00  0.00    +0.000 A 
BRANCH   6  17
ATOM     16  N   UNL     1       0.773   2.556  21.285  0.00  0.00    +0.000 N 
ATOM     17  C   UNL     1       0.989   2.717  19.947  0.00  0.00    +0.000 C 
ATOM     18  O   UNL     1       0.273   2.156  19.123  0.00  0.00    +0.000 OA
ATOM     19  H   UNL     1      -0.093   2.116  21.563  0.00  0.00    +0.000 HD
ATOM     20  H   UNL     1       1.211   3.204  21.933  0.00  0.00    +0.000 HD
ENDBRANCH   6  17
ENDBRANCH   1   9
BRANCH   4  21
ATOM     21  C   UNL     1       7.702   8.012  17.387  0.00  0.00    +0.000 C 
BRANCH  21  22
ATOM     22  N   UNL     1       8.523   8.589  18.437  0.00  0.00    +0.000 N 
ATOM     23  C   UNL     1       8.702   9.952  18.559  0.00  0.00    +0.000 C 
ATOM     24  O   UNL     1       8.206  10.757  17.768  0.00  0.00    +0.000 OA
ATOM     25  H   UNL     1       9.014   7.972  19.072  0.00  0.00    +0.000 HD
BRANCH  23  26
ATOM     26  C   UNL     1       9.566  10.382  19.735  0.00  0.00    +0.000 C 
BRANCH  26  27
ATOM     27  C   UNL     1      10.467  11.567  19.465  0.00  0.00    +0.000 A 
ATOM     28  C   UNL     1      11.294  11.637  18.335  0.00  0.00    +0.000 A 
ATOM     29  C   UNL     1      12.112  12.748  18.118  0.00  0.00    +0.000 A 
ATOM     30  C   UNL     1      12.093  13.816  19.012  0.00  0.00    +0.000 A 
ATOM     31  C   UNL     1      11.241  13.784  20.112  0.00  0.00    +0.000 A 
ATOM     32  C   UNL     1      10.428  12.669  20.335  0.00  0.00    +0.000 A 
ENDBRANCH  26  27
ENDBRANCH  23  26
ENDBRANCH  21  22
ENDBRANCH   4  21
TORSDOF 6
ENDMDL
MODEL 3
REMARK VINA RESULT:      -8.0      5.262      9.644
REMARK  Name = 
REMARK  6 active torsions:
REMARK  status: ('A' for Active; 'I' for Inactive)
REMARK    1  A    between atoms: C_2  and  C_4
REMARK    2  A    between atoms: C_7  and  N_8
REMARK    3  A    between atoms: C_11  and  C_12
REMARK    4  A    between atoms: C_12  and  N_13
REMARK    5  A    between atoms: C_14  and  C_16
REMARK    6  A    between atoms: C_16  and  C_17
REMARK                            x       y       z     vdW  Elec       q    Type
REMARK                         _______ _______ _______ _____ _____    ______ ____
ROOT
ATOM      1  N   UNL     1       1.651   8.383  19.057  0.00  0.00    +0.000 N 
ATOM      2  C   UNL     1       1.122   9.348  18.083  0.00  0.00    +0.000 C 
ATOM      3  C   UNL     1       1.128  10.684  18.818  0.00  0.00    +0.000 C 
ATOM      4  C   UNL     1       0.893  10.309  20.278  0.00  0.00    +0.000 C 
ATOM      5  C   UNL     1       1.658   8.982  20.410  0.00  0.00    +0.000 C 
ENDROOT
BRANCH   1   9
ATOM      6  C   UNL     1       4.413   5.372  17.946  0.00  0.00    +0.000 A 
ATOM      7  C   UNL     1       4.387   6.599  17.276  0.00  0.00    +0.000 A 
ATOM      8  C   UNL     1       3.504   7.601  17.677  0.00  0.00    +0.000 A 
ATOM      9  C   UNL     1       2.582   7.401  18.714  0.00  0.00    +0.000 A 
ATOM     10  C   UNL     1       2.627   6.121  19.370  0.00  0.00    +0.000 A 
ATOM     11  C   UNL     1       1.722   5.709  20.349  0.00  0.00    +0.000 A 
ATOM     12  N   UNL     1       1.744   4.536  21.015  0.00  0.00    +0.000 NA
ATOM     13  C   UNL     1       2.716   3.706  20.652  0.00  0.00    +0.000 A 
ATOM     14  N   UNL     1       3.614   3.939  19.691  0.00  0.00    +0.000 NA
ATOM     15  C   UNL     1       3.560   5.121  19.027  0.00  0.00    +0.000 A 
BRANCH   6  17
ATOM     16  N   UNL     1       6.444   4.016  18.126  0.00  0.00    +0.000 N 
ATOM     17  C   UNL     1       5.335   4.336  17.397  0.00  0.00    +0.000 C 
ATOM     18  O   UNL     1       5.107   3.786  16.325  0.00  0.00    +0.000 OA
ATOM     19  H   UNL     1       6.960   3.194  17.845  0.00  0.00    +0.000 HD
ATOM     20  H   UNL     1       6.487   4.298  19.101  0.00  0.00    +0.000 HD
ENDBRANCH   6  17
ENDBRANCH   1   9
BRANCH   4  21
ATOM     21  C   UNL     1      -0.604  10.167  20.596  0.00  0.00    +0.000 C 
BRANCH  21  22
ATOM     22  N   UNL     1      -1.162  11.343  21.240  0.00  0.00    +0.000 N 
ATOM     23  C   UNL     1      -1.213  11.470  22.614  0.00  0.00    +0.000 C 
ATOM     24  O   UNL     1      -0.820  10.584  23.374  0.00  0.00    +0.000 OA
ATOM     25  H   UNL     1      -1.567  12.072  20.666  0.00  0.00    +0.000 HD
BRANCH  23  26
ATOM     26  C   UNL     1      -1.800  12.782  23.114  0.00  0.00    +0.000 C 
BRANCH  26  27
ATOM     27  C   UNL     1      -3.309  12.810  23.209  0.00  0.00    +0.000 A 
ATOM     28  C   UNL     1      -4.124  13.086  22.101  0.00  0.00    +0.000 A 
ATOM     29  C   UNL     1      -5.516  13.102  22.227  0.00  0.00    +0.000 A 
ATOM     30  C   UNL     1      -6.111  12.814  23.452  0.00  0.00    +0.000 A 
ATOM     31  C   UNL     1      -5.318  12.489  24.549  0.00  0.00    +0.000 A 
ATOM     32  C   UNL     1      -3.926  12.481  24.427  0.00  0.00    +0.000 A 
ENDBRANCH  26  27
ENDBRANCH  23  26
ENDBRANCH  21  22
ENDBRANCH   4  21
TORSDOF 6
ENDMDL
MODEL 4
REMARK VINA RESULT:      -7.9      4.008      6.826
REMARK  Name = 
REMARK  6 active torsions:
REMARK  status: ('A' for Active; 'I' for Inactive)
REMARK    1  A    between atoms: C_2  and  C_4
REMARK    2  A    between atoms: C_7  and  N_8
REMARK    3  A    between atoms: C_11  and  C_12
REMARK    4  A    between atoms: C_12  and  N_13
REMARK    5  A    between atoms: C_14  and  C_16
REMARK    6  A    between atoms: C_16  and  C_17
REMARK                            x       y       z     vdW  Elec       q    Type
REMARK                         _______ _______ _______ _____ _____    ______ ____
ROOT
ATOM      1  N   UNL     1       2.203   5.737  19.382  0.00  0.00    +0.000 N 
ATOM      2  C   UNL     1       1.077   4.830  19.642  0.00  0.00    +0.000 C 
ATOM      3  C   UNL     1       1.523   3.988  20.831  0.00  0.00    +0.000 C 
ATOM      4  C   UNL     1       3.037   3.890  20.673  0.00  0.00    +0.000 C 
ATOM      5  C   UNL     1       3.405   5.273  20.110  0.00  0.00    +0.000 C 
ENDROOT
BRANCH   1   9
ATOM      6  C   UNL     1       1.765   9.865  18.545  0.00  0.00    +0.000 A 
ATOM      7  C   UNL     1       2.323   8.999  17.599  0.00  0.00    +0.000 A 
ATOM      8  C   UNL     1       2.424   7.634  17.866  0.00  0.00    +0.000 A 
ATOM      9  C   UNL     1       2.029   7.092  19.097  0.00  0.00    +0.000 A 
ATOM     10  C   UNL     1       1.474   8.014  20.052  0.00  0.00    +0.000 A 
ATOM     11  C   UNL     1       1.124   7.675  21.359  0.00  0.00    +0.000 A 
ATOM     12  N   UNL     1       0.570   8.493  22.277  0.00  0.00    +0.000 NA
ATOM     13  C   UNL     1       0.387   9.745  21.871  0.00  0.00    +0.000 A 
ATOM     14  N   UNL     1       0.730  10.228  20.673  0.00  0.00    +0.000 NA
ATOM     15  C   UNL     1       1.298   9.386  19.774  0.00  0.00    +0.000 A 
BRANCH   6  17
ATOM     16  N   UNL     1       0.587  11.992  18.260  0.00  0.00    +0.000 N 
ATOM     17  C   UNL     1       1.772  11.316  18.201  0.00  0.00    +0.000 C 
ATOM     18  O   UNL     1       2.807  11.888  17.877  0.00  0.00    +0.000 OA
ATOM     19  H   UNL     1       0.628  13.000  18.208  0.00  0.00    +0.000 HD
ATOM     20  H   UNL     1      -0.194  11.569  18.753  0.00  0.00    +0.000 HD
ENDBRANCH   6  17
ENDBRANCH   1   9
BRANCH   4  21
ATOM     21  C   UNL     1       3.441   2.740  19.737  0.00  0.00    +0.000 C 
BRANCH  21  22
ATOM     22  N   UNL     1       4.396   3.144  18.720  0.00  0.00    +0.000 N 
ATOM     23  C   UNL     1       4.019   3.371  17.411  0.00  0.00    +0.000 C 
ATOM     24  O   UNL     1       2.861   3.212  17.021  0.00  0.00    +0.000 OA
ATOM     25  H   UNL     1       5.375   3.219  18.967  0.00  0.00    +0.000 HD
BRANCH  23  26
ATOM     26  C   UNL     1       5.143   3.818  16.489  0.00  0.00    +0.000 C 
BRANCH  26  27
ATOM     27  C   UNL     1       5.998   4.945  17.026  0.00  0.00    +0.000 A 
ATOM     28  C   UNL     1       7.140   4.714  17.805  0.00  0.00    +0.000 A 
ATOM     29  C   UNL     1       7.906   5.780  18.283  0.00  0.00    +0.000 A 
ATOM     30  C   UNL     1       7.556   7.090  17.964  0.00  0.00    +0.000 A 
ATOM     31  C   UNL     1       6.454   7.335  17.150  0.00  0.00    +0.000 A 
ATOM     32  C   UNL     1       5.682   6.269  16.678  0.00  0.00    +0.000 A 
ENDBRANCH  26  27
ENDBRANCH  23  26
ENDBRANCH  21  22
ENDBRANCH   4  21
TORSDOF 6
ENDMDL
MODEL 5
REMARK VINA RESULT:      -7.9      4.361      7.801
REMARK  Name = 
REMARK  6 active torsions:
REMARK  status: ('A' for Active; 'I' for Inactive)
REMARK    1  A    between atoms: C_2  and  C_4
REMARK    2  A    between atoms: C_7  and  N_8
REMARK    3  A    between atoms: C_11  and  C_12
REMARK    4  A    between atoms: C_12  and  N_13
REMARK    5  A    between atoms: C_14  and  C_16
REMARK    6  A    between atoms: C_16  and  C_17
REMARK                            x       y       z     vdW  Elec       q    Type
REMARK                         _______ _______ _______ _____ _____    ______ ____
ROOT
ATOM      1  N   UNL     1       3.182   3.303  18.211  0.00  0.00    +0.000 N 
ATOM      2  C   UNL     1       3.281   1.983  18.849  0.00  0.00    +0.000 C 
ATOM      3  C   UNL     1       1.867   1.417  18.790  0.00  0.00    +0.000 C 
ATOM      4  C   UNL     1       0.968   2.647  18.874  0.00  0.00    +0.000 C 
ATOM      5  C   UNL     1       1.762   3.696  18.079  0.00  0.00    +0.000 C 
ENDROOT
BRANCH   1   9
ATOM      6  C   UNL     1       6.109   4.645  15.461  0.00  0.00    +0.000 A 
ATOM      7  C   UNL     1       4.962   3.982  15.016  0.00  0.00    +0.000 A 
ATOM      8  C   UNL     1       3.982   3.582  15.924  0.00  0.00    +0.000 A 
ATOM      9  C   UNL     1       4.133   3.774  17.304  0.00  0.00    +0.000 A 
ATOM     10  C   UNL     1       5.333   4.445  17.727  0.00  0.00    +0.000 A 
ATOM     11  C   UNL     1       5.701   4.631  19.061  0.00  0.00    +0.000 A 
ATOM     12  N   UNL     1       6.794   5.282  19.507  0.00  0.00    +0.000 NA
ATOM     13  C   UNL     1       7.594   5.747  18.553  0.00  0.00    +0.000 A 
ATOM     14  N   UNL     1       7.404   5.592  17.239  0.00  0.00    +0.000 NA
ATOM     15  C   UNL     1       6.302   4.921  16.819  0.00  0.00    +0.000 A 
BRANCH   6  17
ATOM     16  N   UNL     1       8.162   5.791  14.778  0.00  0.00    +0.000 N 
ATOM     17  C   UNL     1       7.135   4.963  14.426  0.00  0.00    +0.000 C 
ATOM     18  O   UNL     1       7.063   4.497  13.294  0.00  0.00    +0.000 OA
ATOM     19  H   UNL     1       8.943   5.854  14.140  0.00  0.00    +0.000 HD
ATOM     20  H   UNL     1       8.333   5.967  15.763  0.00  0.00    +0.000 HD
ENDBRANCH   6  17
ENDBRANCH   1   9
BRANCH   4  21
ATOM     21  C   UNL     1       0.713   3.070  20.329  0.00  0.00    +0.000 C 
BRANCH  21  22
ATOM     22  N   UNL     1       0.643   4.511  20.498  0.00  0.00    +0.000 N 
ATOM     23  C   UNL     1       1.710   5.244  20.977  0.00  0.00    +0.000 C 
ATOM     24  O   UNL     1       2.771   4.719  21.320  0.00  0.00    +0.000 OA
ATOM     25  H   UNL     1      -0.229   4.987  20.300  0.00  0.00    +0.000 HD
BRANCH  23  26
ATOM     26  C   UNL     1       1.471   6.745  21.058  0.00  0.00    +0.000 C 
BRANCH  26  27
ATOM     27  C   UNL     1       1.862   7.520  19.820  0.00  0.00    +0.000 A 
ATOM     28  C   UNL     1       2.708   6.987  18.837  0.00  0.00    +0.000 A 
ATOM     29  C   UNL     1       3.046   7.733  17.706  0.00  0.00    +0.000 A 
ATOM     30  C   UNL     1       2.521   9.011  17.528  0.00  0.00    +0.000 A 
ATOM     31  C   UNL     1       1.640   9.535  18.469  0.00  0.00    +0.000 A 
ATOM     32  C   UNL     1       1.307   8.793  19.606  0.00  0.00    +0.000 A 
ENDBRANCH  26  27
ENDBRANCH  23  26
ENDBRANCH  21  22
ENDBRANCH   4  21
TORSDOF 6
ENDMDL
MODEL 6
REMARK VINA RESULT:      -7.8      5.141      8.027
REMARK  Name = 
REMARK  6 active torsions:
REMARK  status: ('A' for Active; 'I' for Inactive)
REMARK    1  A    between atoms: C_2  and  C_4
REMARK    2  A    between atoms: C_7  and  N_8
REMARK    3  A    between atoms: C_11  and  C_12
REMARK    4  A    between atoms: C_12  and  N_13
REMARK    5  A    between atoms: C_14  and  C_16
REMARK    6  A    between atoms: C_16  and  C_17
REMARK                            x       y       z     vdW  Elec       q    Type
REMARK                         _______ _______ _______ _____ _____    ______ ____
ROOT
ATOM      1  N   UNL     1       2.292   7.884  19.109  0.00  0.00    +0.000 N 
ATOM      2  C   UNL     1       1.725   8.527  20.303  0.00  0.00    +0.000 C 
ATOM      3  C   UNL     1       0.527   9.316  19.786  0.00  0.00    +0.000 C 
ATOM      4  C   UNL     1       0.928   9.718  18.370  0.00  0.00    +0.000 C 
ATOM      5  C   UNL     1       1.725   8.496  17.888  0.00  0.00    +0.000 C 
ENDROOT
BRANCH   1   9
ATOM      6  C   UNL     1       3.661   3.877  19.156  0.00  0.00    +0.000 A 
ATOM      7  C   UNL     1       2.696   4.313  20.069  0.00  0.00    +0.000 A 
ATOM      8  C   UNL     1       2.219   5.623  20.019  0.00  0.00    +0.000 A 
ATOM      9  C   UNL     1       2.722   6.556  19.102  0.00  0.00    +0.000 A 
ATOM     10  C   UNL     1       3.725   6.077  18.188  0.00  0.00    +0.000 A 
ATOM     11  C   UNL     1       4.409   6.885  17.280  0.00  0.00    +0.000 A 
ATOM     12  N   UNL     1       5.329   6.477  16.381  0.00  0.00    +0.000 NA
ATOM     13  C   UNL     1       5.609   5.179  16.420  0.00  0.00    +0.000 A 
ATOM     14  N   UNL     1       5.081   4.298  17.274  0.00  0.00    +0.000 NA
ATOM     15  C   UNL     1       4.168   4.738  18.176  0.00  0.00    +0.000 A 
BRANCH   6  17
ATOM     16  N   UNL     1       3.841   1.559  18.388  0.00  0.00    +0.000 N 
ATOM     17  C   UNL     1       4.165   2.486  19.337  0.00  0.00    +0.000 C 
ATOM     18  O   UNL     1       4.851   2.179  20.307  0.00  0.00    +0.000 OA
ATOM     19  H   UNL     1       4.332   0.677  18.418  0.00  0.00    +0.000 HD
ATOM     20  H   UNL     1       3.487   1.881  17.492  0.00  0.00    +0.000 HD
ENDBRANCH   6  17
ENDBRANCH   1   9
BRANCH   4  21
ATOM     21  C   UNL     1       1.757  11.012  18.357  0.00  0.00    +0.000 C 
BRANCH  21  22
ATOM     22  N   UNL     1       1.387  11.935  19.416  0.00  0.00    +0.000 N 
ATOM     23  C   UNL     1       0.349  12.834  19.273  0.00  0.00    +0.000 C 
ATOM     24  O   UNL     1      -0.303  12.930  18.231  0.00  0.00    +0.000 OA
ATOM     25  H   UNL     1       1.935  11.951  20.268  0.00  0.00    +0.000 HD
BRANCH  23  26
ATOM     26  C   UNL     1       0.079  13.701  20.494  0.00  0.00    +0.000 C 
BRANCH  26  27
ATOM     27  C   UNL     1      -0.928  13.134  21.470  0.00  0.00    +0.000 A 
ATOM     28  C   UNL     1      -2.204  13.689  21.637  0.00  0.00    +0.000 A 
ATOM     29  C   UNL     1      -3.109  13.137  22.547  0.00  0.00    +0.000 A 
ATOM     30  C   UNL     1      -2.760  12.006  23.281  0.00  0.00    +0.000 A 
ATOM     31  C   UNL     1      -1.515  11.413  23.090  0.00  0.00    +0.000 A 
ATOM     32  C   UNL     1      -0.606  11.969  22.186  0.00  0.00    +0.000 A 
ENDBRANCH  26  27
ENDBRANCH  23  26
ENDBRANCH  21  22
ENDBRANCH   4  21
TORSDOF 6
ENDMDL
MODEL 7
REMARK VINA RESULT:      -7.8      5.202      8.055
REMARK  Name = 
REMARK  6 active torsions:
REMARK  status: ('A' for Active; 'I' for Inactive)
REMARK    1  A    between atoms: C_2  and  C_4
REMARK    2  A    between atoms: C_7  and  N_8
REMARK    3  A    between atoms: C_11  and  C_12
REMARK    4  A    between atoms: C_12  and  N_13
REMARK    5  A    between atoms: C_14  and  C_16
REMARK    6  A    between atoms: C_16  and  C_17
REMARK                            x       y       z     vdW  Elec       q    Type
REMARK                         _______ _______ _______ _____ _____    ______ ____
ROOT
ATOM      1  N   UNL     1       2.229   7.864  19.057  0.00  0.00    +0.000 N 
ATOM      2  C   UNL     1       1.695   8.486  20.276  0.00  0.00    +0.000 C 
ATOM      3  C   UNL     1       0.519   9.329  19.799  0.00  0.00    +0.000 C 
ATOM      4  C   UNL     1       0.917   9.764  18.392  0.00  0.00    +0.000 C 
ATOM      5  C   UNL     1       1.669   8.532  17.861  0.00  0.00    +0.000 C 
ENDROOT
BRANCH   1   9
ATOM      6  C   UNL     1       3.466   3.815  18.962  0.00  0.00    +0.000 A 
ATOM      7  C   UNL     1       2.498   4.245  19.876  0.00  0.00    +0.000 A 
ATOM      8  C   UNL     1       2.065   5.571  19.871  0.00  0.00    +0.000 A 
ATOM      9  C   UNL     1       2.616   6.524  19.002  0.00  0.00    +0.000 A 
ATOM     10  C   UNL     1       3.620   6.049  18.088  0.00  0.00    +0.000 A 
ATOM     11  C   UNL     1       4.348   6.870  17.226  0.00  0.00    +0.000 A 
ATOM     12  N   UNL     1       5.272   6.469  16.329  0.00  0.00    +0.000 NA
ATOM     13  C   UNL     1       5.509   5.162  16.319  0.00  0.00    +0.000 A 
ATOM     14  N   UNL     1       4.936   4.265  17.126  0.00  0.00    +0.000 NA
ATOM     15  C   UNL     1       4.020   4.698  18.029  0.00  0.00    +0.000 A 
BRANCH   6  17
ATOM     16  N   UNL     1       5.069   2.163  19.796  0.00  0.00    +0.000 N 
ATOM     17  C   UNL     1       3.921   2.402  19.096  0.00  0.00    +0.000 C 
ATOM     18  O   UNL     1       3.286   1.479  18.596  0.00  0.00    +0.000 OA
ATOM     19  H   UNL     1       5.270   1.203  20.038  0.00  0.00    +0.000 HD
ATOM     20  H   UNL     1       5.438   2.896  20.394  0.00  0.00    +0.000 HD
ENDBRANCH   6  17
ENDBRANCH   1   9
BRANCH   4  21
ATOM     21  C   UNL     1       1.787  11.030  18.410  0.00  0.00    +0.000 C 
BRANCH  21  22
ATOM     22  N   UNL     1       1.426  11.952  19.473  0.00  0.00    +0.000 N 
ATOM     23  C   UNL     1       0.414  12.878  19.325  0.00  0.00    +0.000 C 
ATOM     24  O   UNL     1      -0.220  13.001  18.276  0.00  0.00    +0.000 OA
ATOM     25  H   UNL     1       1.963  11.946  20.332  0.00  0.00    +0.000 HD
BRANCH  23  26
ATOM     26  C   UNL     1       0.151  13.741  20.551  0.00  0.00    +0.000 C 
BRANCH  26  27
ATOM     27  C   UNL     1      -0.864  13.178  21.521  0.00  0.00    +0.000 A 
ATOM     28  C   UNL     1      -0.674  11.953  22.177  0.00  0.00    +0.000 A 
ATOM     29  C   UNL     1      -1.634  11.465  23.067  0.00  0.00    +0.000 A 
ATOM     30  C   UNL     1      -2.781  12.207  23.335  0.00  0.00    +0.000 A 
ATOM     31  C   UNL     1      -2.961  13.448  22.730  0.00  0.00    +0.000 A 
ATOM     32  C   UNL     1      -2.006  13.934  21.833  0.00  0.00    +0.000 A 
ENDBRANCH  26  27
ENDBRANCH  23  26
ENDBRANCH  21  22
ENDBRANCH   4  21
TORSDOF 6
ENDMDL
MODEL 8
REMARK VINA RESULT:      -7.8      5.297      9.589
REMARK  Name = 
REMARK  6 active torsions:
REMARK  status: ('A' for Active; 'I' for Inactive)
REMARK    1  A    between atoms: C_2  and  C_4
REMARK    2  A    between atoms: C_7  and  N_8
REMARK    3  A    between atoms: C_11  and  C_12
REMARK    4  A    between atoms: C_12  and  N_13
REMARK    5  A    between atoms: C_14  and  C_16
REMARK    6  A    between atoms: C_16  and  C_17
REMARK                            x       y       z     vdW  Elec       q    Type
REMARK                         _______ _______ _______ _____ _____    ______ ____
ROOT
ATOM      1  N   UNL     1       1.682   8.343  19.098  0.00  0.00    +0.000 N 
ATOM      2  C   UNL     1       1.177   9.334  18.138  0.00  0.00    +0.000 C 
ATOM      3  C   UNL     1       1.182  10.653  18.903  0.00  0.00    +0.000 C 
ATOM      4  C   UNL     1       0.919  10.246  20.349  0.00  0.00    +0.000 C 
ATOM      5  C   UNL     1       1.670   8.910  20.464  0.00  0.00    +0.000 C 
ENDROOT
BRANCH   1   9
ATOM      6  C   UNL     1       4.436   5.331  17.967  0.00  0.00    +0.000 A 
ATOM      7  C   UNL     1       4.409   6.561  17.302  0.00  0.00    +0.000 A 
ATOM      8  C   UNL     1       3.529   7.564  17.709  0.00  0.00    +0.000 A 
ATOM      9  C   UNL     1       2.610   7.360  18.748  0.00  0.00    +0.000 A 
ATOM     10  C   UNL     1       2.655   6.078  19.398  0.00  0.00    +0.000 A 
ATOM     11  C   UNL     1       1.752   5.662  20.378  0.00  0.00    +0.000 A 
ATOM     12  N   UNL     1       1.773   4.487  21.040  0.00  0.00    +0.000 NA
ATOM     13  C   UNL     1       2.743   3.657  20.670  0.00  0.00    +0.000 A 
ATOM     14  N   UNL     1       3.639   3.892  19.708  0.00  0.00    +0.000 NA
ATOM     15  C   UNL     1       3.585   5.077  19.049  0.00  0.00    +0.000 A 
BRANCH   6  17
ATOM     16  N   UNL     1       4.803   3.143  16.933  0.00  0.00    +0.000 N 
ATOM     17  C   UNL     1       5.354   4.297  17.411  0.00  0.00    +0.000 C 
ATOM     18  O   UNL     1       6.567   4.473  17.380  0.00  0.00    +0.000 OA
ATOM     19  H   UNL     1       5.403   2.533  16.396  0.00  0.00    +0.000 HD
ATOM     20  H   UNL     1       3.804   3.118  16.748  0.00  0.00    +0.000 HD
ENDBRANCH   6  17
ENDBRANCH   1   9
BRANCH   4  21
ATOM     21  C   UNL     1      -0.585  10.110  20.639  0.00  0.00    +0.000 C 
BRANCH  21  22
ATOM     22  N   UNL     1      -1.150  11.288  21.275  0.00  0.00    +0.000 N 
ATOM     23  C   UNL     1      -1.201  11.425  22.647  0.00  0.00    +0.000 C 
ATOM     24  O   UNL     1      -0.802  10.546  23.414  0.00  0.00    +0.000 OA
ATOM     25  H   UNL     1      -1.559  12.010  20.695  0.00  0.00    +0.000 HD
BRANCH  23  26
ATOM     26  C   UNL     1      -1.796  12.736  23.139  0.00  0.00    +0.000 C 
BRANCH  26  27
ATOM     27  C   UNL     1      -3.305  12.756  23.232  0.00  0.00    +0.000 A 
ATOM     28  C   UNL     1      -3.986  12.478  24.427  0.00  0.00    +0.000 A 
ATOM     29  C   UNL     1      -5.382  12.507  24.475  0.00  0.00    +0.000 A 
ATOM     30  C   UNL     1      -6.114  12.841  23.339  0.00  0.00    +0.000 A 
ATOM     31  C   UNL     1      -5.453  13.168  22.159  0.00  0.00    +0.000 A 
ATOM     32  C   UNL     1      -4.057  13.131  22.107  0.00  0.00    +0.000 A 
ENDBRANCH  26  27
ENDBRANCH  23  26
ENDBRANCH  21  22
ENDBRANCH   4  21
TORSDOF 6
ENDMDL
MODEL 9
REMARK VINA RESULT:      -7.8      5.291      7.095
REMARK  Name = 
REMARK  6 active torsions:
REMARK  status: ('A' for Active; 'I' for Inactive)
REMARK    1  A    between atoms: C_2  and  C_4
REMARK    2  A    between atoms: C_7  and  N_8
REMARK    3  A    between atoms: C_11  and  C_12
REMARK    4  A    between atoms: C_12  and  N_13
REMARK    5  A    between atoms: C_14  and  C_16
REMARK    6  A    between atoms: C_16  and  C_17
REMARK                            x       y       z     vdW  Elec       q    Type
REMARK                         _______ _______ _______ _____ _____    ______ ____
ROOT
ATOM      1  N   UNL     1       2.252   7.920  19.132  0.00  0.00    +0.000 N 
ATOM      2  C   UNL     1       1.615   8.537  20.304  0.00  0.00    +0.000 C 
ATOM      3  C   UNL     1       0.445   9.332  19.736  0.00  0.00    +0.000 C 
ATOM      4  C   UNL     1       0.922   9.762  18.352  0.00  0.00    +0.000 C 
ATOM      5  C   UNL     1       1.750   8.552  17.892  0.00  0.00    +0.000 C 
ENDROOT
BRANCH   1   9
ATOM      6  C   UNL     1       3.639   3.919  19.175  0.00  0.00    +0.000 A 
ATOM      7  C   UNL     1       2.683   4.353  20.099  0.00  0.00    +0.000 A 
ATOM      8  C   UNL     1       2.199   5.660  20.050  0.00  0.00    +0.000 A 
ATOM      9  C   UNL     1       2.688   6.593  19.124  0.00  0.00    +0.000 A 
ATOM     10  C   UNL     1       3.681   6.116  18.200  0.00  0.00    +0.000 A 
ATOM     11  C   UNL     1       4.352   6.924  17.281  0.00  0.00    +0.000 A 
ATOM     12  N   UNL     1       5.263   6.518  16.374  0.00  0.00    +0.000 NA
ATOM     13  C   UNL     1       5.550   5.221  16.413  0.00  0.00    +0.000 A 
ATOM     14  N   UNL     1       5.036   4.340  17.276  0.00  0.00    +0.000 NA
ATOM     15  C   UNL     1       4.131   4.779  18.187  0.00  0.00    +0.000 A 
BRANCH   6  17
ATOM     16  N   UNL     1       3.811   1.596  18.420  0.00  0.00    +0.000 N 
ATOM     17  C   UNL     1       4.152   2.530  19.356  0.00  0.00    +0.000 C 
ATOM     18  O   UNL     1       4.859   2.232  20.312  0.00  0.00    +0.000 OA
ATOM     19  H   UNL     1       4.305   0.716  18.445  0.00  0.00    +0.000 HD
ATOM     20  H   UNL     1       3.436   1.910  17.529  0.00  0.00    +0.000 HD
ENDBRANCH   6  17
ENDBRANCH   1   9
BRANCH   4  21
ATOM     21  C   UNL     1       1.744  11.059  18.409  0.00  0.00    +0.000 C 
BRANCH  21  22
ATOM     22  N   UNL     1       0.931  12.237  18.656  0.00  0.00    +0.000 N 
ATOM     23  C   UNL     1       1.028  12.962  19.826  0.00  0.00    +0.000 C 
ATOM     24  O   UNL     1       1.784  12.636  20.743  0.00  0.00    +0.000 OA
ATOM     25  H   UNL     1       0.240  12.510  17.967  0.00  0.00    +0.000 HD
BRANCH  23  26
ATOM     26  C   UNL     1       0.125  14.184  19.900  0.00  0.00    +0.000 C 
BRANCH  26  27
ATOM     27  C   UNL     1       0.610  15.384  19.118  0.00  0.00    +0.000 A 
ATOM     28  C   UNL     1       1.967  15.595  18.835  0.00  0.00    +0.000 A 
ATOM     29  C   UNL     1       2.378  16.715  18.108  0.00  0.00    +0.000 A 
ATOM     30  C   UNL     1       1.437  17.623  17.630  0.00  0.00    +0.000 A 
ATOM     31  C   UNL     1       0.082  17.402  17.859  0.00  0.00    +0.000 A 
ATOM     32  C   UNL     1      -0.330  16.286  18.594  0.00  0.00    +0.000 A 
ENDBRANCH  26  27
ENDBRANCH  23  26
ENDBRANCH  21  22
ENDBRANCH   4  21
TORSDOF 6
ENDMDL
