MODEL 1
REMARK VINA RESULT:      -8.9      0.000      0.000
REMARK  Name = 
REMARK  6 active torsions:
REMARK  status: ('A' for Active; 'I' for Inactive)
REMARK    1  A    between atoms: N_2  and  C_4
REMARK    2  A    between atoms: C_7  and  C_8
REMARK    3  A    between atoms: C_8  and  O_9
REMARK    4  A    between atoms: O_9  and  C_10
REMARK    5  A    between atoms: C_13  and  N_14
REMARK    6  A    between atoms: N_14  and  C_15
REMARK                            x       y       z     vdW  Elec       q    Type
REMARK                         _______ _______ _______ _____ _____    ______ ____
ROOT
ATOM      1  N   UNL     1       1.454   9.419  20.508  0.00  0.00    +0.000 N 
ATOM      2  H   UNL     1       1.999   9.570  21.359  0.00  0.00    +0.000 HD
ENDROOT
BRANCH   1   3
ATOM      3  C   UNL     1       0.066  10.008  20.787  0.00  0.00    +0.000 A 
ATOM      4  N   UNL     1      -0.649   9.995  19.689  0.00  0.00    +0.000 NA
ATOM      5  C   UNL     1      -0.995  11.221  19.327  0.00  0.00    +0.000 A 
ATOM      6  N   UNL     1      -0.785  12.378  20.008  0.00  0.00    +0.000 NA
ATOM      7  C   UNL     1      -0.583  12.316  21.322  0.00  0.00    +0.000 A 
ATOM      8  C   UNL     1      -0.984  13.507  22.083  0.00  0.00    +0.000 A 
ATOM      9  C   UNL     1      -1.716  13.550  23.290  0.00  0.00    +0.000 A 
ATOM     10  C   UNL     1      -2.192  12.298  23.541  0.00  0.00    +0.000 A 
ATOM     11  C   UNL     1      -1.428  11.082  22.990  0.00  0.00    +0.000 A 
ATOM     12  C   UNL     1      -0.401  11.050  21.861  0.00  0.00    +0.000 A 
ATOM     13  O   UNL     1      -3.523  12.058  23.855  0.00  0.00    +0.000 OA
ATOM     14  C   UNL     1      -4.576  13.050  24.043  0.00  0.00    +0.000 C 
ATOM     15  C   UNL     1      -4.767  14.375  23.245  0.00  0.00    +0.000 C 
ATOM     16  O   UNL     1      -5.158  15.400  24.175  0.00  0.00    +0.000 OA
ATOM     17  C   UNL     1      -4.054  16.004  24.860  0.00  0.00    +0.000 C 
ATOM     18  C   UNL     1      -2.755  15.128  25.030  0.00  0.00    +0.000 C 
ATOM     19  O   UNL     1      -2.086  14.797  23.766  0.00  0.00    +0.000 OA
ENDBRANCH   1   3
BRANCH   1  23
ATOM     20  C   UNL     1       2.539   5.113  19.259  0.00  0.00    +0.000 A 
ATOM     21  C   UNL     1       1.935   5.443  20.447  0.00  0.00    +0.000 A 
ATOM     22  C   UNL     1       1.583   6.806  20.833  0.00  0.00    +0.000 A 
ATOM     23  C   UNL     1       1.844   7.972  20.070  0.00  0.00    +0.000 A 
ATOM     24  C   UNL     1       2.363   7.615  18.787  0.00  0.00    +0.000 A 
ATOM     25  C   UNL     1       2.731   6.228  18.407  0.00  0.00    +0.000 A 
BRANCH  20  26
ATOM     26  O   UNL     1       3.083   3.872  18.943  0.00  0.00    +0.000 OA
BRANCH  26  27
ATOM     27  C   UNL     1       4.527   3.642  18.813  0.00  0.00    +0.000 C 
BRANCH  27  31
ATOM     28  C   UNL     1       6.626   4.745  15.112  0.00  0.00    +0.000 A 
ATOM     29  C   UNL     1       7.034   5.245  16.327  0.00  0.00    +0.000 A 
ATOM     30  C   UNL     1       6.350   4.909  17.517  0.00  0.00    +0.000 A 
ATOM     31  C   UNL     1       5.254   4.044  17.515  0.00  0.00    +0.000 A 
ATOM     32  C   UNL     1       4.797   3.575  16.250  0.00  0.00    +0.000 A 
ATOM     33  C   UNL     1       5.470   3.904  15.054  0.00  0.00    +0.000 A 
BRANCH  28  35
ATOM     34  O   UNL     1       6.942   4.516  12.843  0.00  0.00    +0.000 OA
ATOM     35  N   UNL     1       7.351   5.027  13.885  0.00  0.00    +0.000 N 
ATOM     36  O   UNL     1       8.381   5.749  13.926  0.00  0.00    +0.000 OA
ENDBRANCH  28  35
ENDBRANCH  27  31
ENDBRANCH  26  27
ENDBRANCH  20  26
ENDBRANCH   1  23
TORSDOF 6
ENDMDL
MODEL 2
REMARK VINA RESULT:      -8.9      1.607      2.330
REMARK  Name = 
REMARK  6 active torsions:
REMARK  status: ('A' for Active; 'I' for Inactive)
REMARK    1  A    between atoms: N_2  and  C_4
REMARK    2  A    between atoms: C_7  and  C_8
REMARK    3  A    between atoms: C_8  and  O_9
REMARK    4  A    between atoms: O_9  and  C_10
REMARK    5  A    between atoms: C_13  and  N_14
REMARK    6  A    between atoms: N_14  and  C_15
REMARK                            x       y       z     vdW  Elec       q    Type
REMARK                         _______ _______ _______ _____ _____    ______ ____
ROOT
ATOM      1  N   UNL     1       1.386  11.080  18.134  0.00  0.00    +0.000 N 
ATOM      2  H   UNL     1       2.269  11.485  17.820  0.00  0.00    +0.000 HD
ENDROOT
BRANCH   1   3
ATOM      3  C   UNL     1       0.703  12.164  18.976  0.00  0.00    +0.000 A 
ATOM      4  N   UNL     1       1.610  12.877  19.600  0.00  0.00    +0.000 NA
ATOM      5  C   UNL     1       1.472  12.786  20.913  0.00  0.00    +0.000 A 
ATOM      6  N   UNL     1       0.481  12.163  21.602  0.00  0.00    +0.000 NA
ATOM      7  C   UNL     1      -0.683  11.949  20.993  0.00  0.00    +0.000 A 
ATOM      8  C   UNL     1      -1.858  11.883  21.873  0.00  0.00    +0.000 A 
ATOM      9  C   UNL     1      -3.109  12.511  21.685  0.00  0.00    +0.000 A 
ATOM     10  C   UNL     1      -2.991  13.384  20.646  0.00  0.00    +0.000 A 
ATOM     11  C   UNL     1      -1.944  13.112  19.553  0.00  0.00    +0.000 A 
ATOM     12  C   UNL     1      -0.722  12.201  19.629  0.00  0.00    +0.000 A 
ATOM     13  O   UNL     1      -3.415  14.704  20.732  0.00  0.00    +0.000 OA
ATOM     14  C   UNL     1      -4.097  15.338  21.856  0.00  0.00    +0.000 C 
ATOM     15  C   UNL     1      -3.839  15.082  23.372  0.00  0.00    +0.000 C 
ATOM     16  O   UNL     1      -5.113  15.058  24.039  0.00  0.00    +0.000 OA
ATOM     17  C   UNL     1      -5.775  13.790  23.967  0.00  0.00    +0.000 C 
ATOM     18  C   UNL     1      -5.425  12.873  22.734  0.00  0.00    +0.000 C 
ATOM     19  O   UNL     1      -4.033  12.406  22.711  0.00  0.00    +0.000 OA
ENDBRANCH   1   3
BRANCH   1  23
ATOM     20  C   UNL     1       2.444   6.757  19.346  0.00  0.00    +0.000 A 
ATOM     21  C   UNL     1       1.865   7.674  20.187  0.00  0.00    +0.000 A 
ATOM     22  C   UNL     1       1.521   9.038  19.795  0.00  0.00    +0.000 A 
ATOM     23  C   UNL     1       1.767   9.617  18.525  0.00  0.00    +0.000 A 
ATOM     24  C   UNL     1       2.260   8.628  17.619  0.00  0.00    +0.000 A 
ATOM     25  C   UNL     1       2.620   7.246  18.028  0.00  0.00    +0.000 A 
BRANCH  20  26
ATOM     26  O   UNL     1       2.982   5.532  19.728  0.00  0.00    +0.000 OA
BRANCH  26  27
ATOM     27  C   UNL     1       4.411   5.215  19.615  0.00  0.00    +0.000 C 
BRANCH  27  31
ATOM     28  C   UNL     1       6.333   4.998  15.668  0.00  0.00    +0.000 A 
ATOM     29  C   UNL     1       6.755   5.912  16.606  0.00  0.00    +0.000 A 
ATOM     30  C   UNL     1       6.127   5.999  17.869  0.00  0.00    +0.000 A 
ATOM     31  C   UNL     1       5.075   5.153  18.226  0.00  0.00    +0.000 A 
ATOM     32  C   UNL     1       4.601   4.249  17.233  0.00  0.00    +0.000 A 
ATOM     33  C   UNL     1       5.218   4.153  15.967  0.00  0.00    +0.000 A 
BRANCH  28  35
ATOM     34  O   UNL     1       6.551   4.026  13.592  0.00  0.00    +0.000 OA
ATOM     35  N   UNL     1       7.003   4.849  14.388  0.00  0.00    +0.000 N 
ATOM     36  O   UNL     1       8.033   5.531  14.145  0.00  0.00    +0.000 OA
ENDBRANCH  28  35
ENDBRANCH  27  31
ENDBRANCH  26  27
ENDBRANCH  20  26
ENDBRANCH   1  23
TORSDOF 6
ENDMDL
MODEL 3
REMARK VINA RESULT:      -8.8      2.167      3.178
REMARK  Name = 
REMARK  6 active torsions:
REMARK  status: ('A' for Active; 'I' for Inactive)
REMARK    1  A    between atoms: N_2  and  C_4
REMARK    2  A    between atoms: C_7  and  C_8
REMARK    3  A    between atoms: C_8  and  O_9
REMARK    4  A    between atoms: O_9  and  C_10
REMARK    5  A    between atoms: C_13  and  N_14
REMARK    6  A    between atoms: N_14  and  C_15
REMARK                            x       y       z     vdW  Elec       q    Type
REMARK                         _______ _______ _______ _____ _____    ______ ____
ROOT
ATOM      1  N   UNL     1      -0.311  11.129  17.867  0.00  0.00    +0.000 N 
ATOM      2  H   UNL     1       0.463  11.627  17.422  0.00  0.00    +0.000 HD
ENDROOT
BRANCH   1   3
ATOM      3  C   UNL     1      -1.260  12.213  18.393  0.00  0.00    +0.000 A 
ATOM      4  N   UNL     1      -0.639  13.367  18.423  0.00  0.00    +0.000 NA
ATOM      5  C   UNL     1      -0.572  13.843  19.657  0.00  0.00    +0.000 A 
ATOM      6  N   UNL     1      -1.148  13.332  20.776  0.00  0.00    +0.000 NA
ATOM      7  C   UNL     1      -2.198  12.525  20.642  0.00  0.00    +0.000 A 
ATOM      8  C   UNL     1      -3.137  12.511  21.771  0.00  0.00    +0.000 A 
ATOM      9  C   UNL     1      -4.547  12.575  21.716  0.00  0.00    +0.000 A 
ATOM     10  C   UNL     1      -4.908  12.872  20.437  0.00  0.00    +0.000 A 
ATOM     11  C   UNL     1      -3.977  12.467  19.282  0.00  0.00    +0.000 A 
ATOM     12  C   UNL     1      -2.495  12.107  19.352  0.00  0.00    +0.000 A 
ATOM     13  O   UNL     1      -5.804  13.890  20.135  0.00  0.00    +0.000 OA
ATOM     14  C   UNL     1      -6.540  14.724  21.079  0.00  0.00    +0.000 C 
ATOM     15  C   UNL     1      -6.024  15.273  22.443  0.00  0.00    +0.000 C 
ATOM     16  O   UNL     1      -7.096  15.169  23.396  0.00  0.00    +0.000 OA
ATOM     17  C   UNL     1      -7.209  13.872  23.993  0.00  0.00    +0.000 C 
ATOM     18  C   UNL     1      -6.676  12.651  23.151  0.00  0.00    +0.000 C 
ATOM     19  O   UNL     1      -5.226  12.671  22.920  0.00  0.00    +0.000 OA
ENDBRANCH   1   3
BRANCH   1  23
ATOM     20  C   UNL     1       1.828   7.707  20.099  0.00  0.00    +0.000 A 
ATOM     21  C   UNL     1       2.039   8.017  18.779  0.00  0.00    +0.000 A 
ATOM     22  C   UNL     1       1.368   9.108  18.080  0.00  0.00    +0.000 A 
ATOM     23  C   UNL     1       0.389   9.967  18.639  0.00  0.00    +0.000 A 
ATOM     24  C   UNL     1       0.259   9.719  20.041  0.00  0.00    +0.000 A 
ATOM     25  C   UNL     1       0.935   8.598  20.742  0.00  0.00    +0.000 A 
BRANCH  20  26
ATOM     26  O   UNL     1       2.275   6.557  20.743  0.00  0.00    +0.000 OA
BRANCH  26  27
ATOM     27  C   UNL     1       2.440   5.269  20.058  0.00  0.00    +0.000 C 
BRANCH  27  31
ATOM     28  C   UNL     1       5.650   4.711  17.108  0.00  0.00    +0.000 A 
ATOM     29  C   UNL     1       5.925   5.218  18.357  0.00  0.00    +0.000 A 
ATOM     30  C   UNL     1       4.893   5.418  19.302  0.00  0.00    +0.000 A 
ATOM     31  C   UNL     1       3.565   5.090  19.020  0.00  0.00    +0.000 A 
ATOM     32  C   UNL     1       3.275   4.622  17.706  0.00  0.00    +0.000 A 
ATOM     33  C   UNL     1       4.296   4.420  16.753  0.00  0.00    +0.000 A 
BRANCH  28  35
ATOM     34  O   UNL     1       6.375   4.016  15.036  0.00  0.00    +0.000 OA
ATOM     35  N   UNL     1       6.703   4.440  16.144  0.00  0.00    +0.000 N 
ATOM     36  O   UNL     1       7.905   4.611  16.475  0.00  0.00    +0.000 OA
ENDBRANCH  28  35
ENDBRANCH  27  31
ENDBRANCH  26  27
ENDBRANCH  20  26
ENDBRANCH   1  23
TORSDOF 6
ENDMDL
MODEL 4
REMARK VINA RESULT:      -8.8      0.955      1.302
REMARK  Name = 
REMARK  6 active torsions:
REMARK  status: ('A' for Active; 'I' for Inactive)
REMARK    1  A    between atoms: N_2  and  C_4
REMARK    2  A    between atoms: C_7  and  C_8
REMARK    3  A    between atoms: C_8  and  O_9
REMARK    4  A    between atoms: O_9  and  C_10
REMARK    5  A    between atoms: C_13  and  N_14
REMARK    6  A    between atoms: N_14  and  C_15
REMARK                            x       y       z     vdW  Elec       q    Type
REMARK                         _______ _______ _______ _____ _____    ______ ____
ROOT
ATOM      1  N   UNL     1       1.331   9.847  18.756  0.00  0.00    +0.000 N 
ATOM      2  H   UNL     1       2.089  10.483  19.011  0.00  0.00    +0.000 HD
ENDROOT
BRANCH   1   3
ATOM      3  C   UNL     1       0.073  10.399  19.436  0.00  0.00    +0.000 A 
ATOM      4  N   UNL     1      -0.890  10.518  18.554  0.00  0.00    +0.000 NA
ATOM      5  C   UNL     1      -1.277  11.778  18.434  0.00  0.00    +0.000 A 
ATOM      6  N   UNL     1      -0.873  12.845  19.172  0.00  0.00    +0.000 NA
ATOM      7  C   UNL     1      -0.356  12.627  20.379  0.00  0.00    +0.000 A 
ATOM      8  C   UNL     1      -0.522  13.718  21.348  0.00  0.00    +0.000 A 
ATOM      9  C   UNL     1      -0.934  13.616  22.695  0.00  0.00    +0.000 A 
ATOM     10  C   UNL     1      -1.371  12.343  22.908  0.00  0.00    +0.000 A 
ATOM     11  C   UNL     1      -0.802  11.202  22.049  0.00  0.00    +0.000 A 
ATOM     12  C   UNL     1      -0.086  11.305  20.705  0.00  0.00    +0.000 A 
ATOM     13  O   UNL     1      -2.591  12.067  23.512  0.00  0.00    +0.000 OA
ATOM     14  C   UNL     1      -3.536  13.030  24.068  0.00  0.00    +0.000 C 
ATOM     15  C   UNL     1      -3.877  14.441  23.501  0.00  0.00    +0.000 C 
ATOM     16  O   UNL     1      -3.997  15.347  24.612  0.00  0.00    +0.000 OA
ATOM     17  C   UNL     1      -2.741  15.865  25.068  0.00  0.00    +0.000 C 
ATOM     18  C   UNL     1      -1.467  14.974  24.809  0.00  0.00    +0.000 C 
ATOM     19  O   UNL     1      -1.139  14.797  23.389  0.00  0.00    +0.000 OA
ENDBRANCH   1   3
BRANCH   1  23
ATOM     20  C   UNL     1       3.175   5.638  19.151  0.00  0.00    +0.000 A 
ATOM     21  C   UNL     1       2.330   6.200  20.074  0.00  0.00    +0.000 A 
ATOM     22  C   UNL     1       1.740   7.528  19.940  0.00  0.00    +0.000 A 
ATOM     23  C   UNL     1       1.979   8.432  18.874  0.00  0.00    +0.000 A 
ATOM     24  C   UNL     1       2.763   7.800  17.859  0.00  0.00    +0.000 A 
ATOM     25  C   UNL     1       3.371   6.454  18.010  0.00  0.00    +0.000 A 
BRANCH  20  26
ATOM     26  O   UNL     1       3.924   4.480  19.335  0.00  0.00    +0.000 OA
BRANCH  26  27
ATOM     27  C   UNL     1       5.359   4.399  19.032  0.00  0.00    +0.000 C 
BRANCH  27  31
ATOM     28  C   UNL     1       6.706   4.579  14.853  0.00  0.00    +0.000 A 
ATOM     29  C   UNL     1       5.588   3.858  15.200  0.00  0.00    +0.000 A 
ATOM     30  C   UNL     1       5.162   3.780  16.545  0.00  0.00    +0.000 A 
ATOM     31  C   UNL     1       5.838   4.447  17.569  0.00  0.00    +0.000 A 
ATOM     32  C   UNL     1       7.029   5.144  17.216  0.00  0.00    +0.000 A 
ATOM     33  C   UNL     1       7.466   5.228  15.877  0.00  0.00    +0.000 A 
BRANCH  28  35
ATOM     34  O   UNL     1       6.649   3.951  12.638  0.00  0.00    +0.000 OA
ATOM     35  N   UNL     1       7.126   4.724  13.470  0.00  0.00    +0.000 N 
ATOM     36  O   UNL     1       7.979   5.599  13.169  0.00  0.00    +0.000 OA
ENDBRANCH  28  35
ENDBRANCH  27  31
ENDBRANCH  26  27
ENDBRANCH  20  26
ENDBRANCH   1  23
TORSDOF 6
ENDMDL
MODEL 5
REMARK VINA RESULT:      -8.7      1.516      2.319
REMARK  Name = 
REMARK  6 active torsions:
REMARK  status: ('A' for Active; 'I' for Inactive)
REMARK    1  A    between atoms: N_2  and  C_4
REMARK    2  A    between atoms: C_7  and  C_8
REMARK    3  A    between atoms: C_8  and  O_9
REMARK    4  A    between atoms: O_9  and  C_10
REMARK    5  A    between atoms: C_13  and  N_14
REMARK    6  A    between atoms: N_14  and  C_15
REMARK                            x       y       z     vdW  Elec       q    Type
REMARK                         _______ _______ _______ _____ _____    ______ ____
ROOT
ATOM      1  N   UNL     1       0.488  10.307  18.082  0.00  0.00    +0.000 N 
ATOM      2  H   UNL     1       0.818  10.514  17.137  0.00  0.00    +0.000 HD
ENDROOT
BRANCH   1   3
ATOM      3  C   UNL     1       0.316  11.666  18.772  0.00  0.00    +0.000 A 
ATOM      4  N   UNL     1       1.452  12.320  18.749  0.00  0.00    +0.000 NA
ATOM      5  C   UNL     1       1.890  12.564  19.975  0.00  0.00    +0.000 A 
ATOM      6  N   UNL     1       1.252  12.315  21.149  0.00  0.00    +0.000 NA
ATOM      7  C   UNL     1      -0.073  12.188  21.141  0.00  0.00    +0.000 A 
ATOM      8  C   UNL     1      -0.754  12.549  22.391  0.00  0.00    +0.000 A 
ATOM      9  C   UNL     1      -1.914  13.340  22.541  0.00  0.00    +0.000 A 
ATOM     10  C   UNL     1      -2.195  13.911  21.336  0.00  0.00    +0.000 A 
ATOM     11  C   UNL     1      -1.746  13.201  20.048  0.00  0.00    +0.000 A 
ATOM     12  C   UNL     1      -0.680  12.120  19.894  0.00  0.00    +0.000 A 
ATOM     13  O   UNL     1      -2.444  15.270  21.197  0.00  0.00    +0.000 OA
ATOM     14  C   UNL     1      -2.525  16.264  22.263  0.00  0.00    +0.000 C 
ATOM     15  C   UNL     1      -1.657  16.323  23.555  0.00  0.00    +0.000 C 
ATOM     16  O   UNL     1      -2.515  16.694  24.648  0.00  0.00    +0.000 OA
ATOM     17  C   UNL     1      -3.233  15.591  25.215  0.00  0.00    +0.000 C 
ATOM     18  C   UNL     1      -3.516  14.364  24.267  0.00  0.00    +0.000 C 
ATOM     19  O   UNL     1      -2.309  13.652  23.832  0.00  0.00    +0.000 OA
ENDBRANCH   1   3
BRANCH   1  23
ATOM     20  C   UNL     1       2.968   6.654  19.416  0.00  0.00    +0.000 A 
ATOM     21  C   UNL     1       2.054   7.298  20.211  0.00  0.00    +0.000 A 
ATOM     22  C   UNL     1       1.263   8.447  19.781  0.00  0.00    +0.000 A 
ATOM     23  C   UNL     1       1.349   9.080  18.515  0.00  0.00    +0.000 A 
ATOM     24  C   UNL     1       2.213   8.337  17.651  0.00  0.00    +0.000 A 
ATOM     25  C   UNL     1       3.025   7.177  18.101  0.00  0.00    +0.000 A 
BRANCH  20  26
ATOM     26  O   UNL     1       3.890   5.705  19.845  0.00  0.00    +0.000 OA
BRANCH  26  27
ATOM     27  C   UNL     1       4.167   4.468  19.104  0.00  0.00    +0.000 C 
BRANCH  27  31
ATOM     28  C   UNL     1       6.435   4.676  15.345  0.00  0.00    +0.000 A 
ATOM     29  C   UNL     1       5.151   4.183  15.364  0.00  0.00    +0.000 A 
ATOM     30  C   UNL     1       4.425   4.095  16.574  0.00  0.00    +0.000 A 
ATOM     31  C   UNL     1       4.966   4.524  17.788  0.00  0.00    +0.000 A 
ATOM     32  C   UNL     1       6.315   4.979  17.775  0.00  0.00    +0.000 A 
ATOM     33  C   UNL     1       7.052   5.070  16.574  0.00  0.00    +0.000 A 
BRANCH  28  35
ATOM     34  O   UNL     1       8.112   5.633  14.090  0.00  0.00    +0.000 OA
ATOM     35  N   UNL     1       7.176   4.833  14.106  0.00  0.00    +0.000 N 
ATOM     36  O   UNL     1       6.826   4.181  13.087  0.00  0.00    +0.000 OA
ENDBRANCH  28  35
ENDBRANCH  27  31
ENDBRANCH  26  27
ENDBRANCH  20  26
ENDBRANCH   1  23
TORSDOF 6
ENDMDL
MODEL 6
REMARK VINA RESULT:      -8.7      0.804      1.389
REMARK  Name = 
REMARK  6 active torsions:
REMARK  status: ('A' for Active; 'I' for Inactive)
REMARK    1  A    between atoms: N_2  and  C_4
REMARK    2  A    between atoms: C_7  and  C_8
REMARK    3  A    between atoms: C_8  and  O_9
REMARK    4  A    between atoms: O_9  and  C_10
REMARK    5  A    between atoms: C_13  and  N_14
REMARK    6  A    between atoms: N_14  and  C_15
REMARK                            x       y       z     vdW  Elec       q    Type
REMARK                         _______ _______ _______ _____ _____    ______ ____
ROOT
ATOM      1  N   UNL     1       1.159   8.624  21.485  0.00  0.00    +0.000 N 
ATOM      2  H   UNL     1       1.104   8.136  22.381  0.00  0.00    +0.000 HD
ENDROOT
BRANCH   1   3
ATOM      3  C   UNL     1      -0.096   9.502  21.408  0.00  0.00    +0.000 A 
ATOM      4  N   UNL     1      -0.472   9.627  20.158  0.00  0.00    +0.000 NA
ATOM      5  C   UNL     1      -0.441  10.894  19.773  0.00  0.00    +0.000 A 
ATOM      6  N   UNL     1      -0.187  11.988  20.538  0.00  0.00    +0.000 NA
ATOM      7  C   UNL     1      -0.367  11.902  21.854  0.00  0.00    +0.000 A 
ATOM      8  C   UNL     1      -0.701  13.161  22.533  0.00  0.00    +0.000 A 
ATOM      9  C   UNL     1      -1.707  13.376  23.500  0.00  0.00    +0.000 A 
ATOM     10  C   UNL     1      -2.485  12.259  23.556  0.00  0.00    +0.000 A 
ATOM     11  C   UNL     1      -1.873  10.900  23.176  0.00  0.00    +0.000 A 
ATOM     12  C   UNL     1      -0.609  10.634  22.363  0.00  0.00    +0.000 A 
ATOM     13  O   UNL     1      -3.871  12.314  23.490  0.00  0.00    +0.000 OA
ATOM     14  C   UNL     1      -4.703  13.511  23.433  0.00  0.00    +0.000 C 
ATOM     15  C   UNL     1      -4.386  14.836  22.675  0.00  0.00    +0.000 C 
ATOM     16  O   UNL     1      -4.792  15.933  23.512  0.00  0.00    +0.000 OA
ATOM     17  C   UNL     1      -3.815  16.295  24.495  0.00  0.00    +0.000 C 
ATOM     18  C   UNL     1      -2.825  15.163  24.967  0.00  0.00    +0.000 C 
ATOM     19  O   UNL     1      -1.922  14.680  23.915  0.00  0.00    +0.000 OA
ENDBRANCH   1   3
BRANCH   1  23
ATOM     20  C   UNL     1       2.697   5.440  18.523  0.00  0.00    +0.000 A 
ATOM     21  C   UNL     1       2.643   6.785  18.252  0.00  0.00    +0.000 A 
ATOM     22  C   UNL     1       2.166   7.790  19.197  0.00  0.00    +0.000 A 
ATOM     23  C   UNL     1       1.661   7.527  20.495  0.00  0.00    +0.000 A 
ATOM     24  C   UNL     1       1.828   6.144  20.818  0.00  0.00    +0.000 A 
ATOM     25  C   UNL     1       2.301   5.126  19.846  0.00  0.00    +0.000 A 
BRANCH  20  26
ATOM     26  O   UNL     1       2.936   4.434  17.593  0.00  0.00    +0.000 OA
BRANCH  26  27
ATOM     27  C   UNL     1       4.227   3.745  17.474  0.00  0.00    +0.000 C 
BRANCH  27  31
ATOM     28  C   UNL     1       6.917   4.765  14.151  0.00  0.00    +0.000 A 
ATOM     29  C   UNL     1       5.657   4.269  13.908  0.00  0.00    +0.000 A 
ATOM     30  C   UNL     1       4.796   3.921  14.973  0.00  0.00    +0.000 A 
ATOM     31  C   UNL     1       5.174   4.086  16.307  0.00  0.00    +0.000 A 
ATOM     32  C   UNL     1       6.500   4.543  16.556  0.00  0.00    +0.000 A 
ATOM     33  C   UNL     1       7.370   4.893  15.502  0.00  0.00    +0.000 A 
BRANCH  28  35
ATOM     34  O   UNL     1       7.574   4.749  11.944  0.00  0.00    +0.000 OA
ATOM     35  N   UNL     1       7.794   5.187  13.073  0.00  0.00    +0.000 N 
ATOM     36  O   UNL     1       8.762   5.951  13.325  0.00  0.00    +0.000 OA
ENDBRANCH  28  35
ENDBRANCH  27  31
ENDBRANCH  26  27
ENDBRANCH  20  26
ENDBRANCH   1  23
TORSDOF 6
ENDMDL
MODEL 7
REMARK VINA RESULT:      -8.6      2.822      3.608
REMARK  Name = 
REMARK  6 active torsions:
REMARK  status: ('A' for Active; 'I' for Inactive)
REMARK    1  A    between atoms: N_2  and  C_4
REMARK    2  A    between atoms: C_7  and  C_8
REMARK    3  A    between atoms: C_8  and  O_9
REMARK    4  A    between atoms: O_9  and  C_10
REMARK    5  A    between atoms: C_13  and  N_14
REMARK    6  A    between atoms: N_14  and  C_15
REMARK                            x       y       z     vdW  Elec       q    Type
REMARK                         _______ _______ _______ _____ _____    ______ ____
ROOT
ATOM      1  N   UNL     1       1.122  10.247  19.693  0.00  0.00    +0.000 N 
ATOM      2  H   UNL     1       0.886  10.339  20.683  0.00  0.00    +0.000 HD
ENDROOT
BRANCH   1   3
ATOM      3  C   UNL     1       0.015  10.981  18.928  0.00  0.00    +0.000 A 
ATOM      4  N   UNL     1       0.522  12.013  18.298  0.00  0.00    +0.000 NA
ATOM      5  C   UNL     1      -0.015  13.146  18.723  0.00  0.00    +0.000 A 
ATOM      6  N   UNL     1      -1.043  13.300  19.598  0.00  0.00    +0.000 NA
ATOM      7  C   UNL     1      -1.886  12.286  19.777  0.00  0.00    +0.000 A 
ATOM      8  C   UNL     1      -3.249  12.655  20.182  0.00  0.00    +0.000 A 
ATOM      9  C   UNL     1      -4.464  12.157  19.662  0.00  0.00    +0.000 A 
ATOM     10  C   UNL     1      -4.179  11.419  18.553  0.00  0.00    +0.000 A 
ATOM     11  C   UNL     1      -2.803  10.744  18.436  0.00  0.00    +0.000 A 
ATOM     12  C   UNL     1      -1.526  11.074  19.203  0.00  0.00    +0.000 A 
ATOM     13  O   UNL     1      -4.845  11.602  17.348  0.00  0.00    +0.000 OA
ATOM     14  C   UNL     1      -5.959  12.508  17.085  0.00  0.00    +0.000 C 
ATOM     15  C   UNL     1      -6.164  13.934  17.677  0.00  0.00    +0.000 C 
ATOM     16  O   UNL     1      -7.558  14.083  17.999  0.00  0.00    +0.000 OA
ATOM     17  C   UNL     1      -7.915  13.534  19.273  0.00  0.00    +0.000 C 
ATOM     18  C   UNL     1      -7.020  12.356  19.816  0.00  0.00    +0.000 C 
ATOM     19  O   UNL     1      -5.636  12.743  20.114  0.00  0.00    +0.000 OA
ENDBRANCH   1   3
BRANCH   1  23
ATOM     20  C   UNL     1       2.470   5.849  19.358  0.00  0.00    +0.000 A 
ATOM     21  C   UNL     1       1.854   6.385  20.461  0.00  0.00    +0.000 A 
ATOM     22  C   UNL     1       1.419   7.775  20.558  0.00  0.00    +0.000 A 
ATOM     23  C   UNL     1       1.600   8.767  19.562  0.00  0.00    +0.000 A 
ATOM     24  C   UNL     1       2.134   8.179  18.373  0.00  0.00    +0.000 A 
ATOM     25  C   UNL     1       2.587   6.768  18.286  0.00  0.00    +0.000 A 
BRANCH  20  26
ATOM     26  O   UNL     1       3.090   4.605  19.300  0.00  0.00    +0.000 OA
BRANCH  26  27
ATOM     27  C   UNL     1       4.546   4.440  19.206  0.00  0.00    +0.000 C 
BRANCH  27  31
ATOM     28  C   UNL     1       6.506   4.680  15.279  0.00  0.00    +0.000 A 
ATOM     29  C   UNL     1       5.311   4.016  15.428  0.00  0.00    +0.000 A 
ATOM     30  C   UNL     1       4.687   3.919  16.692  0.00  0.00    +0.000 A 
ATOM     31  C   UNL     1       5.239   4.508  17.831  0.00  0.00    +0.000 A 
ATOM     32  C   UNL     1       6.506   5.144  17.686  0.00  0.00    +0.000 A 
ATOM     33  C   UNL     1       7.140   5.246  16.430  0.00  0.00    +0.000 A 
BRANCH  28  35
ATOM     34  O   UNL     1       6.714   4.162  13.045  0.00  0.00    +0.000 OA
ATOM     35  N   UNL     1       7.133   4.845  13.980  0.00  0.00    +0.000 N 
ATOM     36  O   UNL     1       8.097   5.645  13.853  0.00  0.00    +0.000 OA
ENDBRANCH  28  35
ENDBRANCH  27  31
ENDBRANCH  26  27
ENDBRANCH  20  26
ENDBRANCH   1  23
TORSDOF 6
ENDMDL
MODEL 8
REMARK VINA RESULT:      -8.6      1.357      2.113
REMARK  Name = 
REMARK  6 active torsions:
REMARK  status: ('A' for Active; 'I' for Inactive)
REMARK    1  A    between atoms: N_2  and  C_4
REMARK    2  A    between atoms: C_7  and  C_8
REMARK    3  A    between atoms: C_8  and  O_9
REMARK    4  A    between atoms: O_9  and  C_10
REMARK    5  A    between atoms: C_13  and  N_14
REMARK    6  A    between atoms: N_14  and  C_15
REMARK                            x       y       z     vdW  Elec       q    Type
REMARK                         _______ _______ _______ _____ _____    ______ ____
ROOT
ATOM      1  N   UNL     1       0.913   9.556  19.721  0.00  0.00    +0.000 N 
ATOM      2  H   UNL     1       1.169  10.156  18.936  0.00  0.00    +0.000 HD
ENDROOT
BRANCH   1   3
ATOM      3  C   UNL     1       0.840  10.476  20.946  0.00  0.00    +0.000 A 
ATOM      4  N   UNL     1       1.251   9.830  22.010  0.00  0.00    +0.000 NA
ATOM      5  C   UNL     1       0.291   9.743  22.918  0.00  0.00    +0.000 A 
ATOM      6  N   UNL     1      -0.938  10.321  22.885  0.00  0.00    +0.000 NA
ATOM      7  C   UNL     1      -1.120  11.390  22.113  0.00  0.00    +0.000 A 
ATOM      8  C   UNL     1      -2.167  12.321  22.552  0.00  0.00    +0.000 A 
ATOM      9  C   UNL     1      -2.091  13.729  22.623  0.00  0.00    +0.000 A 
ATOM     10  C   UNL     1      -0.794  14.093  22.420  0.00  0.00    +0.000 A 
ATOM     11  C   UNL     1       0.118  13.180  21.583  0.00  0.00    +0.000 A 
ATOM     12  C   UNL     1      -0.085  11.707  21.243  0.00  0.00    +0.000 A 
ATOM     13  O   UNL     1      -0.126  14.968  23.267  0.00  0.00    +0.000 OA
ATOM     14  C   UNL     1      -0.680  15.678  24.415  0.00  0.00    +0.000 C 
ATOM     15  C   UNL     1      -1.733  15.139  25.429  0.00  0.00    +0.000 C 
ATOM     16  O   UNL     1      -2.653  16.206  25.721  0.00  0.00    +0.000 OA
ATOM     17  C   UNL     1      -3.699  16.344  24.752  0.00  0.00    +0.000 C 
ATOM     18  C   UNL     1      -3.385  15.844  23.290  0.00  0.00    +0.000 C 
ATOM     19  O   UNL     1      -3.166  14.397  23.186  0.00  0.00    +0.000 OA
ENDBRANCH   1   3
BRANCH   1  23
ATOM     20  C   UNL     1       3.382   5.708  19.114  0.00  0.00    +0.000 A 
ATOM     21  C   UNL     1       2.580   5.947  20.202  0.00  0.00    +0.000 A 
ATOM     22  C   UNL     1       1.792   7.161  20.385  0.00  0.00    +0.000 A 
ATOM     23  C   UNL     1       1.768   8.269  19.501  0.00  0.00    +0.000 A 
ATOM     24  C   UNL     1       2.509   7.969  18.315  0.00  0.00    +0.000 A 
ATOM     25  C   UNL     1       3.320   6.737  18.143  0.00  0.00    +0.000 A 
BRANCH  20  26
ATOM     26  O   UNL     1       4.308   4.676  19.000  0.00  0.00    +0.000 OA
BRANCH  26  27
ATOM     27  C   UNL     1       4.391   3.804  17.822  0.00  0.00    +0.000 C 
BRANCH  27  31
ATOM     28  C   UNL     1       6.938   4.918  14.417  0.00  0.00    +0.000 A 
ATOM     29  C   UNL     1       7.213   5.383  15.682  0.00  0.00    +0.000 A 
ATOM     30  C   UNL     1       6.386   5.044  16.776  0.00  0.00    +0.000 A 
ATOM     31  C   UNL     1       5.276   4.209  16.627  0.00  0.00    +0.000 A 
ATOM     32  C   UNL     1       4.959   3.777  15.307  0.00  0.00    +0.000 A 
ATOM     33  C   UNL     1       5.776   4.110  14.206  0.00  0.00    +0.000 A 
BRANCH  28  35
ATOM     34  O   UNL     1       8.782   5.932  13.483  0.00  0.00    +0.000 OA
ATOM     35  N   UNL     1       7.809   5.203  13.290  0.00  0.00    +0.000 N 
ATOM     36  O   UNL     1       7.531   4.731  12.157  0.00  0.00    +0.000 OA
ENDBRANCH  28  35
ENDBRANCH  27  31
ENDBRANCH  26  27
ENDBRANCH  20  26
ENDBRANCH   1  23
TORSDOF 6
ENDMDL
MODEL 9
REMARK VINA RESULT:      -8.6      1.616      2.331
REMARK  Name = 
REMARK  6 active torsions:
REMARK  status: ('A' for Active; 'I' for Inactive)
REMARK    1  A    between atoms: N_2  and  C_4
REMARK    2  A    between atoms: C_7  and  C_8
REMARK    3  A    between atoms: C_8  and  O_9
REMARK    4  A    between atoms: O_9  and  C_10
REMARK    5  A    between atoms: C_13  and  N_14
REMARK    6  A    between atoms: N_14  and  C_15
REMARK                            x       y       z     vdW  Elec       q    Type
REMARK                         _______ _______ _______ _____ _____    ______ ____
ROOT
ATOM      1  N   UNL     1       2.137  10.058  18.185  0.00  0.00    +0.000 N 
ATOM      2  H   UNL     1       3.106  10.352  18.320  0.00  0.00    +0.000 HD
ENDROOT
BRANCH   1   3
ATOM      3  C   UNL     1       1.271  11.225  18.674  0.00  0.00    +0.000 A 
ATOM      4  N   UNL     1       1.936  12.349  18.556  0.00  0.00    +0.000 NA
ATOM      5  C   UNL     1       2.110  12.928  19.734  0.00  0.00    +0.000 A 
ATOM      6  N   UNL     1       1.597  12.544  20.932  0.00  0.00    +0.000 NA
ATOM      7  C   UNL     1       0.510  11.776  20.944  0.00  0.00    +0.000 A 
ATOM      8  C   UNL     1      -0.346  11.904  22.130  0.00  0.00    +0.000 A 
ATOM      9  C   UNL     1      -1.752  12.026  22.167  0.00  0.00    +0.000 A 
ATOM     10  C   UNL     1      -2.193  12.226  20.893  0.00  0.00    +0.000 A 
ATOM     11  C   UNL     1      -1.363  11.679  19.719  0.00  0.00    +0.000 A 
ATOM     12  C   UNL     1       0.104  11.261  19.720  0.00  0.00    +0.000 A 
ATOM     13  O   UNL     1      -3.067  13.253  20.561  0.00  0.00    +0.000 OA
ATOM     14  C   UNL     1      -3.701  14.199  21.474  0.00  0.00    +0.000 C 
ATOM     15  C   UNL     1      -3.067  14.842  22.744  0.00  0.00    +0.000 C 
ATOM     16  O   UNL     1      -4.071  14.871  23.773  0.00  0.00    +0.000 OA
ATOM     17  C   UNL     1      -4.191  13.638  24.492  0.00  0.00    +0.000 C 
ATOM     18  C   UNL     1      -3.768  12.325  23.730  0.00  0.00    +0.000 C 
ATOM     19  O   UNL     1      -2.339  12.258  23.400  0.00  0.00    +0.000 OA
ENDBRANCH   1   3
BRANCH   1  23
ATOM     20  C   UNL     1       2.073   5.668  19.599  0.00  0.00    +0.000 A 
ATOM     21  C   UNL     1       1.867   6.747  20.422  0.00  0.00    +0.000 A 
ATOM     22  C   UNL     1       1.876   8.134  19.967  0.00  0.00    +0.000 A 
ATOM     23  C   UNL     1       2.135   8.565  18.642  0.00  0.00    +0.000 A 
ATOM     24  C   UNL     1       2.231   7.439  17.767  0.00  0.00    +0.000 A 
ATOM     25  C   UNL     1       2.234   6.031  18.239  0.00  0.00    +0.000 A 
BRANCH  20  26
ATOM     26  O   UNL     1       2.285   4.358  20.017  0.00  0.00    +0.000 OA
BRANCH  26  27
ATOM     27  C   UNL     1       3.586   3.686  19.910  0.00  0.00    +0.000 C 
BRANCH  27  31
ATOM     28  C   UNL     1       6.074   4.365  16.351  0.00  0.00    +0.000 A 
ATOM     29  C   UNL     1       4.969   3.548  16.290  0.00  0.00    +0.000 A 
ATOM     30  C   UNL     1       4.178   3.311  17.437  0.00  0.00    +0.000 A 
ATOM     31  C   UNL     1       4.466   3.909  18.665  0.00  0.00    +0.000 A 
ATOM     32  C   UNL     1       5.644   4.706  18.741  0.00  0.00    +0.000 A 
ATOM     33  C   UNL     1       6.444   4.949  17.603  0.00  0.00    +0.000 A 
BRANCH  28  35
ATOM     34  O   UNL     1       7.706   5.566  15.258  0.00  0.00    +0.000 OA
ATOM     35  N   UNL     1       6.865   4.671  15.173  0.00  0.00    +0.000 N 
ATOM     36  O   UNL     1       6.649   4.047  14.101  0.00  0.00    +0.000 OA
ENDBRANCH  28  35
ENDBRANCH  27  31
ENDBRANCH  26  27
ENDBRANCH  20  26
ENDBRANCH   1  23
TORSDOF 6
ENDMDL
