MODEL 1
REMARK VINA RESULT:      -7.1      0.000      0.000
REMARK  Name = 
REMARK  8 active torsions:
REMARK  status: ('A' for Active; 'I' for Inactive)
REMARK    1  A    between atoms: C_1  and  O_2
REMARK    2  A    between atoms: O_2  and  C_3
REMARK    3  A    between atoms: C_6  and  C_7
REMARK    4  A    between atoms: C_8  and  C_9
REMARK    5  A    between atoms: N_11  and  C_12
REMARK    6  A    between atoms: N_11  and  C_13
REMARK    7  A    between atoms: C_21  and  O_22
REMARK    8  A    between atoms: O_22  and  C_23
REMARK                            x       y       z     vdW  Elec       q    Type
REMARK                         _______ _______ _______ _____ _____    ______ ____
ROOT
ATOM      1  C   UNL     1       1.467   7.458  20.814  0.00  0.00    +0.000 C 
ATOM      2  C   UNL     1       2.185   7.313  19.691  0.00  0.00    +0.000 C 
ENDROOT
BRANCH   1   6
ATOM      3  C   UNL     1      -0.429  11.136  21.920  0.00  0.00    +0.000 A 
ATOM      4  C   UNL     1      -0.581   9.979  22.705  0.00  0.00    +0.000 A 
ATOM      5  C   UNL     1       0.019   8.773  22.333  0.00  0.00    +0.000 A 
ATOM      6  C   UNL     1       0.744   8.687  21.144  0.00  0.00    +0.000 A 
ATOM      7  C   UNL     1       0.833   9.823  20.333  0.00  0.00    +0.000 A 
ATOM      8  C   UNL     1       0.247  11.044  20.697  0.00  0.00    +0.000 A 
BRANCH   3  10
ATOM      9  C   UNL     1      -2.078  12.265  23.191  0.00  0.00    +0.000 C 
ATOM     10  O   UNL     1      -0.950  12.338  22.319  0.00  0.00    +0.000 OA
ENDBRANCH   3  10
BRANCH   8  11
ATOM     11  O   UNL     1       0.471  12.007  19.750  0.00  0.00    +0.000 OA
ATOM     12  C   UNL     1       1.513  11.829  18.808  0.00  0.00    +0.000 C 
ENDBRANCH   8  11
ENDBRANCH   1   6
BRANCH   2  13
ATOM     13  C   UNL     1       2.985   6.087  19.502  0.00  0.00    +0.000 C 
ATOM     14  O   UNL     1       2.841   5.154  20.289  0.00  0.00    +0.000 OA
ATOM     15  N   UNL     1       3.892   6.077  18.443  0.00  0.00    +0.000 N 
ATOM     16  C   UNL     1       3.984   7.155  17.454  0.00  0.00    +0.000 C 
BRANCH  15  17
ATOM     17  C   UNL     1       4.844   4.946  18.397  0.00  0.00    +0.000 C 
ATOM     18  C   UNL     1       6.028   5.127  19.361  0.00  0.00    +0.000 C 
ATOM     19  C   UNL     1       7.136   5.854  18.617  0.00  0.00    +0.000 C 
ATOM     20  S   UNL     1       7.035   5.275  16.936  0.00  0.00    +0.000 S 
ATOM     21  O   UNL     1       7.982   4.192  16.767  0.00  0.00    +0.000 OA
ATOM     22  O   UNL     1       7.013   6.424  16.055  0.00  0.00    +0.000 OA
ATOM     23  C   UNL     1       5.398   4.584  17.019  0.00  0.00    +0.000 C 
ENDBRANCH  15  17
ENDBRANCH   2  13
TORSDOF 5
ENDMDL
MODEL 2
REMARK VINA RESULT:      -6.9      5.243      7.802
REMARK  Name = 
REMARK  8 active torsions:
REMARK  status: ('A' for Active; 'I' for Inactive)
REMARK    1  A    between atoms: C_1  and  O_2
REMARK    2  A    between atoms: O_2  and  C_3
REMARK    3  A    between atoms: C_6  and  C_7
REMARK    4  A    between atoms: C_8  and  C_9
REMARK    5  A    between atoms: N_11  and  C_12
REMARK    6  A    between atoms: N_11  and  C_13
REMARK    7  A    between atoms: C_21  and  O_22
REMARK    8  A    between atoms: O_22  and  C_23
REMARK                            x       y       z     vdW  Elec       q    Type
REMARK                         _______ _______ _______ _____ _____    ______ ____
ROOT
ATOM      1  C   UNL     1       8.338   9.329  17.802  0.00  0.00    +0.000 C 
ATOM      2  C   UNL     1       8.215   8.105  18.337  0.00  0.00    +0.000 C 
ENDROOT
BRANCH   1   6
ATOM      3  C   UNL     1      10.364  12.520  19.816  0.00  0.00    +0.000 A 
ATOM      4  C   UNL     1      10.040  11.329  20.490  0.00  0.00    +0.000 A 
ATOM      5  C   UNL     1       9.358  10.297  19.840  0.00  0.00    +0.000 A 
ATOM      6  C   UNL     1       8.947  10.452  18.516  0.00  0.00    +0.000 A 
ATOM      7  C   UNL     1       9.213  11.665  17.873  0.00  0.00    +0.000 A 
ATOM      8  C   UNL     1       9.905  12.707  18.506  0.00  0.00    +0.000 A 
BRANCH   3  10
ATOM      9  C   UNL     1      10.352  14.447  21.194  0.00  0.00    +0.000 C 
ATOM     10  O   UNL     1      11.098  13.503  20.425  0.00  0.00    +0.000 OA
ENDBRANCH   3  10
BRANCH   8  11
ATOM     11  O   UNL     1      10.047  13.788  17.679  0.00  0.00    +0.000 OA
ATOM     12  C   UNL     1      11.260  13.970  16.972  0.00  0.00    +0.000 C 
ENDBRANCH   8  11
ENDBRANCH   1   6
BRANCH   2  13
ATOM     13  C   UNL     1       7.474   7.068  17.594  0.00  0.00    +0.000 C 
ATOM     14  O   UNL     1       7.238   7.242  16.401  0.00  0.00    +0.000 OA
ATOM     15  N   UNL     1       7.053   5.949  18.314  0.00  0.00    +0.000 N 
ATOM     16  C   UNL     1       7.425   5.706  19.711  0.00  0.00    +0.000 C 
BRANCH  15  17
ATOM     17  C   UNL     1       6.123   5.030  17.624  0.00  0.00    +0.000 C 
ATOM     18  C   UNL     1       5.092   5.770  16.754  0.00  0.00    +0.000 C 
ATOM     19  C   UNL     1       3.875   6.067  17.614  0.00  0.00    +0.000 C 
ATOM     20  S   UNL     1       3.733   4.683  18.726  0.00  0.00    +0.000 S 
ATOM     21  O   UNL     1       2.789   3.739  18.165  0.00  0.00    +0.000 OA
ATOM     22  O   UNL     1       3.606   5.191  20.077  0.00  0.00    +0.000 OA
ATOM     23  C   UNL     1       5.375   4.033  18.510  0.00  0.00    +0.000 C 
ENDBRANCH  15  17
ENDBRANCH   2  13
TORSDOF 5
ENDMDL
MODEL 3
REMARK VINA RESULT:      -6.8      5.317      7.925
REMARK  Name = 
REMARK  8 active torsions:
REMARK  status: ('A' for Active; 'I' for Inactive)
REMARK    1  A    between atoms: C_1  and  O_2
REMARK    2  A    between atoms: O_2  and  C_3
REMARK    3  A    between atoms: C_6  and  C_7
REMARK    4  A    between atoms: C_8  and  C_9
REMARK    5  A    between atoms: N_11  and  C_12
REMARK    6  A    between atoms: N_11  and  C_13
REMARK    7  A    between atoms: C_21  and  O_22
REMARK    8  A    between atoms: O_22  and  C_23
REMARK                            x       y       z     vdW  Elec       q    Type
REMARK                         _______ _______ _______ _____ _____    ______ ____
ROOT
ATOM      1  C   UNL     1       8.349   9.371  17.785  0.00  0.00    +0.000 C 
ATOM      2  C   UNL     1       8.128   8.111  18.188  0.00  0.00    +0.000 C 
ENDROOT
BRANCH   1   6
ATOM      3  C   UNL     1      10.868  12.228  19.744  0.00  0.00    +0.000 A 
ATOM      4  C   UNL     1      11.058  11.905  18.389  0.00  0.00    +0.000 A 
ATOM      5  C   UNL     1      10.251  10.956  17.755  0.00  0.00    +0.000 A 
ATOM      6  C   UNL     1       9.268  10.277  18.475  0.00  0.00    +0.000 A 
ATOM      7  C   UNL     1       9.130  10.554  19.839  0.00  0.00    +0.000 A 
ATOM      8  C   UNL     1       9.923  11.511  20.488  0.00  0.00    +0.000 A 
BRANCH   3  10
ATOM      9  C   UNL     1      11.221  14.552  20.040  0.00  0.00    +0.000 C 
ATOM     10  O   UNL     1      11.604  13.212  20.349  0.00  0.00    +0.000 OA
ENDBRANCH   3  10
BRANCH   8  11
ATOM     11  O   UNL     1       9.603  11.608  21.816  0.00  0.00    +0.000 OA
ATOM     12  C   UNL     1       8.580  12.497  22.222  0.00  0.00    +0.000 C 
ENDBRANCH   8  11
ENDBRANCH   1   6
BRANCH   2  13
ATOM     13  C   UNL     1       7.090   7.311  17.510  0.00  0.00    +0.000 C 
ATOM     14  O   UNL     1       6.654   7.695  16.427  0.00  0.00    +0.000 OA
ATOM     15  N   UNL     1       6.638   6.167  18.167  0.00  0.00    +0.000 N 
ATOM     16  C   UNL     1       7.233   5.667  19.410  0.00  0.00    +0.000 C 
BRANCH  15  17
ATOM     17  C   UNL     1       5.448   5.501  17.595  0.00  0.00    +0.000 C 
ATOM     18  C   UNL     1       4.133   5.993  18.223  0.00  0.00    +0.000 C 
ATOM     19  C   UNL     1       3.825   5.113  19.423  0.00  0.00    +0.000 C 
ATOM     20  S   UNL     1       4.409   3.490  18.982  0.00  0.00    +0.000 S 
ATOM     21  O   UNL     1       3.295   2.728  18.459  0.00  0.00    +0.000 OA
ATOM     22  O   UNL     1       5.246   2.996  20.056  0.00  0.00    +0.000 OA
ATOM     23  C   UNL     1       5.450   3.973  17.621  0.00  0.00    +0.000 C 
ENDBRANCH  15  17
ENDBRANCH   2  13
TORSDOF 5
ENDMDL
MODEL 4
REMARK VINA RESULT:      -6.8      5.895      7.775
REMARK  Name = 
REMARK  8 active torsions:
REMARK  status: ('A' for Active; 'I' for Inactive)
REMARK    1  A    between atoms: C_1  and  O_2
REMARK    2  A    between atoms: O_2  and  C_3
REMARK    3  A    between atoms: C_6  and  C_7
REMARK    4  A    between atoms: C_8  and  C_9
REMARK    5  A    between atoms: N_11  and  C_12
REMARK    6  A    between atoms: N_11  and  C_13
REMARK    7  A    between atoms: C_21  and  O_22
REMARK    8  A    between atoms: O_22  and  C_23
REMARK                            x       y       z     vdW  Elec       q    Type
REMARK                         _______ _______ _______ _____ _____    ______ ____
ROOT
ATOM      1  C   UNL     1       8.733   9.163  18.750  0.00  0.00    +0.000 C 
ATOM      2  C   UNL     1       8.011   8.423  17.895  0.00  0.00    +0.000 C 
ENDROOT
BRANCH   1   6
ATOM      3  C   UNL     1      10.046  13.080  17.619  0.00  0.00    +0.000 A 
ATOM      4  C   UNL     1      10.947  12.139  18.148  0.00  0.00    +0.000 A 
ATOM      5  C   UNL     1      10.515  10.869  18.539  0.00  0.00    +0.000 A 
ATOM      6  C   UNL     1       9.165  10.529  18.451  0.00  0.00    +0.000 A 
ATOM      7  C   UNL     1       8.263  11.493  17.987  0.00  0.00    +0.000 A 
ATOM      8  C   UNL     1       8.681  12.767  17.581  0.00  0.00    +0.000 A 
BRANCH   3  10
ATOM      9  C   UNL     1      11.786  14.687  17.580  0.00  0.00    +0.000 C 
ATOM     10  O   UNL     1      10.477  14.297  17.164  0.00  0.00    +0.000 OA
ENDBRANCH   3  10
BRANCH   8  11
ATOM     11  O   UNL     1       7.623  13.531  17.166  0.00  0.00    +0.000 OA
ATOM     12  C   UNL     1       7.069  14.490  18.047  0.00  0.00    +0.000 C 
ENDBRANCH   8  11
ENDBRANCH   1   6
BRANCH   2  13
ATOM     13  C   UNL     1       7.730   7.013  18.226  0.00  0.00    +0.000 C 
ATOM     14  O   UNL     1       8.454   6.433  19.031  0.00  0.00    +0.000 OA
ATOM     15  N   UNL     1       6.660   6.407  17.568  0.00  0.00    +0.000 N 
ATOM     16  C   UNL     1       5.744   7.134  16.685  0.00  0.00    +0.000 C 
BRANCH  15  17
ATOM     17  C   UNL     1       6.525   4.943  17.731  0.00  0.00    +0.000 C 
ATOM     18  C   UNL     1       6.432   4.201  16.387  0.00  0.00    +0.000 C 
ATOM     19  C   UNL     1       4.965   4.111  15.999  0.00  0.00    +0.000 C 
ATOM     20  S   UNL     1       4.080   3.928  17.534  0.00  0.00    +0.000 S 
ATOM     21  O   UNL     1       3.844   2.518  17.762  0.00  0.00    +0.000 OA
ATOM     22  O   UNL     1       3.012   4.905  17.567  0.00  0.00    +0.000 OA
ATOM     23  C   UNL     1       5.381   4.464  18.624  0.00  0.00    +0.000 C 
ENDBRANCH  15  17
ENDBRANCH   2  13
TORSDOF 5
ENDMDL
MODEL 5
REMARK VINA RESULT:      -6.8      1.081      2.087
REMARK  Name = 
REMARK  8 active torsions:
REMARK  status: ('A' for Active; 'I' for Inactive)
REMARK    1  A    between atoms: C_1  and  O_2
REMARK    2  A    between atoms: O_2  and  C_3
REMARK    3  A    between atoms: C_6  and  C_7
REMARK    4  A    between atoms: C_8  and  C_9
REMARK    5  A    between atoms: N_11  and  C_12
REMARK    6  A    between atoms: N_11  and  C_13
REMARK    7  A    between atoms: C_21  and  O_22
REMARK    8  A    between atoms: O_22  and  C_23
REMARK                            x       y       z     vdW  Elec       q    Type
REMARK                         _______ _______ _______ _____ _____    ______ ____
ROOT
ATOM      1  C   UNL     1       1.799   8.053  20.203  0.00  0.00    +0.000 C 
ATOM      2  C   UNL     1       2.192   7.498  19.047  0.00  0.00    +0.000 C 
ENDROOT
BRANCH   1   6
ATOM      3  C   UNL     1      -0.396  11.726  20.384  0.00  0.00    +0.000 A 
ATOM      4  C   UNL     1       0.102  11.240  19.162  0.00  0.00    +0.000 A 
ATOM      5  C   UNL     1       0.838  10.053  19.105  0.00  0.00    +0.000 A 
ATOM      6  C   UNL     1       1.130   9.353  20.276  0.00  0.00    +0.000 A 
ATOM      7  C   UNL     1       0.690   9.877  21.495  0.00  0.00    +0.000 A 
ATOM      8  C   UNL     1      -0.059  11.060  21.569  0.00  0.00    +0.000 A 
BRANCH   3  10
ATOM      9  C   UNL     1      -1.081  13.726  19.315  0.00  0.00    +0.000 C 
ATOM     10  O   UNL     1      -1.182  12.846  20.435  0.00  0.00    +0.000 OA
ENDBRANCH   3  10
BRANCH   8  11
ATOM     11  O   UNL     1      -0.376  11.371  22.864  0.00  0.00    +0.000 OA
ATOM     12  C   UNL     1      -1.725  11.299  23.287  0.00  0.00    +0.000 C 
ENDBRANCH   8  11
ENDBRANCH   1   6
BRANCH   2  13
ATOM     13  C   UNL     1       2.972   6.246  19.079  0.00  0.00    +0.000 C 
ATOM     14  O   UNL     1       2.731   5.416  19.951  0.00  0.00    +0.000 OA
ATOM     15  N   UNL     1       3.973   6.096  18.118  0.00  0.00    +0.000 N 
ATOM     16  C   UNL     1       4.185   7.048  17.024  0.00  0.00    +0.000 C 
BRANCH  15  17
ATOM     17  C   UNL     1       4.894   4.953  18.295  0.00  0.00    +0.000 C 
ATOM     18  C   UNL     1       5.914   5.181  19.424  0.00  0.00    +0.000 C 
ATOM     19  C   UNL     1       7.142   5.844  18.822  0.00  0.00    +0.000 C 
ATOM     20  S   UNL     1       7.297   5.159  17.186  0.00  0.00    +0.000 S 
ATOM     21  O   UNL     1       8.233   4.056  17.238  0.00  0.00    +0.000 OA
ATOM     22  O   UNL     1       7.440   6.250  16.244  0.00  0.00    +0.000 OA
ATOM     23  C   UNL     1       5.651   4.496  17.048  0.00  0.00    +0.000 C 
ENDBRANCH  15  17
ENDBRANCH   2  13
TORSDOF 5
ENDMDL
MODEL 6
REMARK VINA RESULT:      -6.7      2.881      8.698
REMARK  Name = 
REMARK  8 active torsions:
REMARK  status: ('A' for Active; 'I' for Inactive)
REMARK    1  A    between atoms: C_1  and  O_2
REMARK    2  A    between atoms: O_2  and  C_3
REMARK    3  A    between atoms: C_6  and  C_7
REMARK    4  A    between atoms: C_8  and  C_9
REMARK    5  A    between atoms: N_11  and  C_12
REMARK    6  A    between atoms: N_11  and  C_13
REMARK    7  A    between atoms: C_21  and  O_22
REMARK    8  A    between atoms: O_22  and  C_23
REMARK                            x       y       z     vdW  Elec       q    Type
REMARK                         _______ _______ _______ _____ _____    ______ ____
ROOT
ATOM      1  C   UNL     1       3.265   6.258  18.869  0.00  0.00    +0.000 C 
ATOM      2  C   UNL     1       2.834   7.520  18.728  0.00  0.00    +0.000 C 
ENDROOT
BRANCH   1   6
ATOM      3  C   UNL     1       5.903   4.554  15.956  0.00  0.00    +0.000 A 
ATOM      4  C   UNL     1       4.713   3.902  16.324  0.00  0.00    +0.000 A 
ATOM      5  C   UNL     1       3.863   4.445  17.292  0.00  0.00    +0.000 A 
ATOM      6  C   UNL     1       4.209   5.629  17.943  0.00  0.00    +0.000 A 
ATOM      7  C   UNL     1       5.426   6.238  17.621  0.00  0.00    +0.000 A 
ATOM      8  C   UNL     1       6.285   5.712  16.646  0.00  0.00    +0.000 A 
BRANCH   3  10
ATOM      9  C   UNL     1       6.077   3.928  13.678  0.00  0.00    +0.000 C 
ATOM     10  O   UNL     1       6.700   4.066  14.956  0.00  0.00    +0.000 OA
ENDBRANCH   3  10
BRANCH   8  11
ATOM     11  O   UNL     1       7.410   6.480  16.504  0.00  0.00    +0.000 OA
ATOM     12  C   UNL     1       7.683   7.495  17.452  0.00  0.00    +0.000 C 
ENDBRANCH   8  11
ENDBRANCH   1   6
BRANCH   2  13
ATOM     13  C   UNL     1       1.786   8.028  19.633  0.00  0.00    +0.000 C 
ATOM     14  O   UNL     1       1.441   7.340  20.590  0.00  0.00    +0.000 OA
ATOM     15  N   UNL     1       1.223   9.265  19.322  0.00  0.00    +0.000 N 
ATOM     16  C   UNL     1       1.711  10.120  18.236  0.00  0.00    +0.000 C 
BRANCH  15  17
ATOM     17  C   UNL     1       0.026   9.661  20.096  0.00  0.00    +0.000 C 
ATOM     18  C   UNL     1      -0.925  10.568  19.297  0.00  0.00    +0.000 C 
ATOM     19  C   UNL     1      -0.514  12.011  19.539  0.00  0.00    +0.000 C 
ATOM     20  S   UNL     1       0.060  12.063  21.224  0.00  0.00    +0.000 S 
ATOM     21  O   UNL     1      -1.033  12.500  22.067  0.00  0.00    +0.000 OA
ATOM     22  O   UNL     1       1.357  12.706  21.247  0.00  0.00    +0.000 OA
ATOM     23  C   UNL     1       0.283  10.313  21.454  0.00  0.00    +0.000 C 
ENDBRANCH  15  17
ENDBRANCH   2  13
TORSDOF 5
ENDMDL
MODEL 7
REMARK VINA RESULT:      -6.6      4.106      9.333
REMARK  Name = 
REMARK  8 active torsions:
REMARK  status: ('A' for Active; 'I' for Inactive)
REMARK    1  A    between atoms: C_1  and  O_2
REMARK    2  A    between atoms: O_2  and  C_3
REMARK    3  A    between atoms: C_6  and  C_7
REMARK    4  A    between atoms: C_8  and  C_9
REMARK    5  A    between atoms: N_11  and  C_12
REMARK    6  A    between atoms: N_11  and  C_13
REMARK    7  A    between atoms: C_21  and  O_22
REMARK    8  A    between atoms: O_22  and  C_23
REMARK                            x       y       z     vdW  Elec       q    Type
REMARK                         _______ _______ _______ _____ _____    ______ ____
ROOT
ATOM      1  C   UNL     1       1.396   8.376  21.298  0.00  0.00    +0.000 C 
ATOM      2  C   UNL     1       0.264   9.092  21.230  0.00  0.00    +0.000 C 
ENDROOT
BRANCH   1   6
ATOM      3  C   UNL     1       2.547   5.169  18.702  0.00  0.00    +0.000 A 
ATOM      4  C   UNL     1       2.709   6.510  18.311  0.00  0.00    +0.000 A 
ATOM      5  C   UNL     1       2.313   7.557  19.148  0.00  0.00    +0.000 A 
ATOM      6  C   UNL     1       1.704   7.284  20.373  0.00  0.00    +0.000 A 
ATOM      7  C   UNL     1       1.483   5.948  20.725  0.00  0.00    +0.000 A 
ATOM      8  C   UNL     1       1.884   4.886  19.903  0.00  0.00    +0.000 A 
BRANCH   3  10
ATOM      9  C   UNL     1       4.288   3.625  18.263  0.00  0.00    +0.000 C 
ATOM     10  O   UNL     1       3.003   4.142  17.920  0.00  0.00    +0.000 OA
ENDBRANCH   3  10
BRANCH   8  11
ATOM     11  O   UNL     1       1.565   3.677  20.458  0.00  0.00    +0.000 OA
ATOM     12  C   UNL     1       2.221   3.258  21.641  0.00  0.00    +0.000 C 
ENDBRANCH   8  11
ENDBRANCH   1   6
BRANCH   2  13
ATOM     13  C   UNL     1      -0.021  10.088  22.281  0.00  0.00    +0.000 C 
ATOM     14  O   UNL     1       0.287   9.833  23.443  0.00  0.00    +0.000 OA
ATOM     15  N   UNL     1      -0.660  11.263  21.887  0.00  0.00    +0.000 N 
ATOM     16  C   UNL     1      -0.933  11.598  20.486  0.00  0.00    +0.000 C 
BRANCH  15  17
ATOM     17  C   UNL     1      -1.143  12.149  22.968  0.00  0.00    +0.000 C 
ATOM     18  C   UNL     1      -2.617  11.895  23.330  0.00  0.00    +0.000 C 
ATOM     19  C   UNL     1      -3.478  12.793  22.456  0.00  0.00    +0.000 C 
ATOM     20  S   UNL     1      -2.536  14.288  22.241  0.00  0.00    +0.000 S 
ATOM     21  O   UNL     1      -2.977  15.254  23.226  0.00  0.00    +0.000 OA
ATOM     22  O   UNL     1      -2.482  14.598  20.827  0.00  0.00    +0.000 OA
ATOM     23  C   UNL     1      -0.954  13.649  22.748  0.00  0.00    +0.000 C 
ENDBRANCH  15  17
ENDBRANCH   2  13
TORSDOF 5
ENDMDL
MODEL 8
REMARK VINA RESULT:      -6.6      5.425      7.465
REMARK  Name = 
REMARK  8 active torsions:
REMARK  status: ('A' for Active; 'I' for Inactive)
REMARK    1  A    between atoms: C_1  and  O_2
REMARK    2  A    between atoms: O_2  and  C_3
REMARK    3  A    between atoms: C_6  and  C_7
REMARK    4  A    between atoms: C_8  and  C_9
REMARK    5  A    between atoms: N_11  and  C_12
REMARK    6  A    between atoms: N_11  and  C_13
REMARK    7  A    between atoms: C_21  and  O_22
REMARK    8  A    between atoms: O_22  and  C_23
REMARK                            x       y       z     vdW  Elec       q    Type
REMARK                         _______ _______ _______ _____ _____    ______ ____
ROOT
ATOM      1  C   UNL     1       7.341   8.952  17.583  0.00  0.00    +0.000 C 
ATOM      2  C   UNL     1       7.539   7.628  17.662  0.00  0.00    +0.000 C 
ENDROOT
BRANCH   1   6
ATOM      3  C   UNL     1      10.186  11.734  19.167  0.00  0.00    +0.000 A 
ATOM      4  C   UNL     1      10.059  10.443  19.707  0.00  0.00    +0.000 A 
ATOM      5  C   UNL     1       9.115   9.542  19.206  0.00  0.00    +0.000 A 
ATOM      6  C   UNL     1       8.248   9.931  18.185  0.00  0.00    +0.000 A 
ATOM      7  C   UNL     1       8.334  11.239  17.698  0.00  0.00    +0.000 A 
ATOM      8  C   UNL     1       9.282  12.152  18.182  0.00  0.00    +0.000 A 
BRANCH   3  10
ATOM      9  C   UNL     1      10.772  13.497  20.637  0.00  0.00    +0.000 C 
ATOM     10  O   UNL     1      11.160  12.593  19.602  0.00  0.00    +0.000 OA
ENDBRANCH   3  10
BRANCH   8  11
ATOM     11  O   UNL     1       9.175  13.363  17.553  0.00  0.00    +0.000 OA
ATOM     12  C   UNL     1       8.253  14.320  18.040  0.00  0.00    +0.000 C 
ENDBRANCH   8  11
ENDBRANCH   1   6
BRANCH   2  13
ATOM     13  C   UNL     1       6.507   6.714  17.137  0.00  0.00    +0.000 C 
ATOM     14  O   UNL     1       6.109   6.863  15.984  0.00  0.00    +0.000 OA
ATOM     15  N   UNL     1       6.017   5.741  18.008  0.00  0.00    +0.000 N 
ATOM     16  C   UNL     1       6.568   5.510  19.346  0.00  0.00    +0.000 C 
BRANCH  15  17
ATOM     17  C   UNL     1       4.832   4.982  17.553  0.00  0.00    +0.000 C 
ATOM     18  C   UNL     1       3.540   5.412  18.269  0.00  0.00    +0.000 C 
ATOM     19  C   UNL     1       3.385   4.558  19.516  0.00  0.00    +0.000 C 
ATOM     20  S   UNL     1       4.038   2.960  19.079  0.00  0.00    +0.000 S 
ATOM     21  O   UNL     1       2.939   2.111  18.670  0.00  0.00    +0.000 OA
ATOM     22  O   UNL     1       4.986   2.558  20.098  0.00  0.00    +0.000 OA
ATOM     23  C   UNL     1       4.936   3.459  17.626  0.00  0.00    +0.000 C 
ENDBRANCH  15  17
ENDBRANCH   2  13
TORSDOF 5
ENDMDL
MODEL 9
REMARK VINA RESULT:      -6.6      2.924      3.867
REMARK  Name = 
REMARK  8 active torsions:
REMARK  status: ('A' for Active; 'I' for Inactive)
REMARK    1  A    between atoms: C_1  and  O_2
REMARK    2  A    between atoms: O_2  and  C_3
REMARK    3  A    between atoms: C_6  and  C_7
REMARK    4  A    between atoms: C_8  and  C_9
REMARK    5  A    between atoms: N_11  and  C_12
REMARK    6  A    between atoms: N_11  and  C_13
REMARK    7  A    between atoms: C_21  and  O_22
REMARK    8  A    between atoms: O_22  and  C_23
REMARK                            x       y       z     vdW  Elec       q    Type
REMARK                         _______ _______ _______ _____ _____    ______ ____
ROOT
ATOM      1  C   UNL     1       1.524   8.861  17.958  0.00  0.00    +0.000 C 
ATOM      2  C   UNL     1       2.256   8.111  18.794  0.00  0.00    +0.000 C 
ENDROOT
BRANCH   1   6
ATOM      3  C   UNL     1      -1.139  12.001  19.138  0.00  0.00    +0.000 A 
ATOM      4  C   UNL     1       0.072  11.786  19.818  0.00  0.00    +0.000 A 
ATOM      5  C   UNL     1       0.931  10.746  19.449  0.00  0.00    +0.000 A 
ATOM      6  C   UNL     1       0.574   9.874  18.421  0.00  0.00    +0.000 A 
ATOM      7  C   UNL     1      -0.664  10.052  17.794  0.00  0.00    +0.000 A 
ATOM      8  C   UNL     1      -1.532  11.095  18.144  0.00  0.00    +0.000 A 
BRANCH   3  10
ATOM      9  C   UNL     1      -1.411  13.999  20.381  0.00  0.00    +0.000 C 
ATOM     10  O   UNL     1      -1.947  13.062  19.446  0.00  0.00    +0.000 OA
ENDBRANCH   3  10
BRANCH   8  11
ATOM     11  O   UNL     1      -2.676  11.066  17.394  0.00  0.00    +0.000 OA
ATOM     12  C   UNL     1      -2.606  10.686  16.032  0.00  0.00    +0.000 C 
ENDBRANCH   8  11
ENDBRANCH   1   6
BRANCH   2  13
ATOM     13  C   UNL     1       3.092   7.026  18.244  0.00  0.00    +0.000 C 
ATOM     14  O   UNL     1       3.767   7.245  17.241  0.00  0.00    +0.000 OA
ATOM     15  N   UNL     1       3.037   5.791  18.889  0.00  0.00    +0.000 N 
ATOM     16  C   UNL     1       2.306   5.570  20.140  0.00  0.00    +0.000 C 
BRANCH  15  17
ATOM     17  C   UNL     1       3.694   4.657  18.204  0.00  0.00    +0.000 C 
ATOM     18  C   UNL     1       2.773   3.963  17.186  0.00  0.00    +0.000 C 
ATOM     19  C   UNL     1       2.020   2.858  17.908  0.00  0.00    +0.000 C 
ATOM     20  S   UNL     1       3.160   2.224  19.121  0.00  0.00    +0.000 S 
ATOM     21  O   UNL     1       3.821   1.062  18.565  0.00  0.00    +0.000 OA
ATOM     22  O   UNL     1       2.491   2.191  20.405  0.00  0.00    +0.000 OA
ATOM     23  C   UNL     1       4.306   3.585  19.106  0.00  0.00    +0.000 C 
ENDBRANCH  15  17
ENDBRANCH   2  13
TORSDOF 5
ENDMDL
