MODEL 1
REMARK VINA RESULT:      -7.1      0.000      0.000
REMARK  Name = 
REMARK  3 active torsions:
REMARK  status: ('A' for Active; 'I' for Inactive)
REMARK    1  A    between atoms: C_1  and  C_2
REMARK    2  A    between atoms: C_3  and  C_4
REMARK    3  A    between atoms: N_6  and  C_7
REMARK                            x       y       z     vdW  Elec       q    Type
REMARK                         _______ _______ _______ _____ _____    ______ ____
ROOT
ATOM      1  C   UNL     1       2.250   5.832  20.787  0.00  0.00    +0.000 C 
ATOM      2  C   UNL     1       2.123   7.060  19.955  0.00  0.00    +0.000 A 
ATOM      3  C   UNL     1       2.638   7.309  18.687  0.00  0.00    +0.000 A 
ATOM      4  O   UNL     1       2.296   8.575  18.280  0.00  0.00    +0.000 OA
ATOM      5  C   UNL     1       1.532   9.121  19.279  0.00  0.00    +0.000 A 
ATOM      6  C   UNL     1       0.945  10.387  19.284  0.00  0.00    +0.000 A 
ATOM      7  C   UNL     1       0.186  10.731  20.417  0.00  0.00    +0.000 A 
ATOM      8  C   UNL     1       0.037   9.840  21.481  0.00  0.00    +0.000 A 
ATOM      9 BR   UNL     1      -0.997  10.327  22.989  0.00  0.00    +0.000 Br
ATOM     10  C   UNL     1       0.639   8.580  21.458  0.00  0.00    +0.000 A 
ATOM     11  C   UNL     1       1.400   8.222  20.329  0.00  0.00    +0.000 A 
ENDROOT
BRANCH   3  12
ATOM     12  C   UNL     1       3.407   6.411  17.840  0.00  0.00    +0.000 C 
ATOM     13  O   UNL     1       2.984   5.278  17.614  0.00  0.00    +0.000 OA
ATOM     14  N   UNL     1       4.631   6.858  17.353  0.00  0.00    +0.000 N 
ATOM     15  H   UNL     1       4.985   7.729  17.733  0.00  0.00    +0.000 HD
BRANCH  14  16
ATOM     16  C   UNL     1       5.494   6.047  16.562  0.00  0.00    +0.000 A 
ATOM     17  C   UNL     1       5.226   5.721  15.227  0.00  0.00    +0.000 A 
ATOM     18  C   UNL     1       6.022   4.811  14.538  0.00  0.00    +0.000 A 
ATOM     19  C   UNL     1       7.109   4.274  15.194  0.00  0.00    +0.000 A 
ATOM     20  N   UNL     1       7.461   4.613  16.451  0.00  0.00    +0.000 NA
ATOM     21  C   UNL     1       6.650   5.494  17.104  0.00  0.00    +0.000 A 
ENDBRANCH  14  16
ENDBRANCH   3  12
TORSDOF 2
ENDMDL
MODEL 2
REMARK VINA RESULT:      -7.0      3.122      3.579
REMARK  Name = 
REMARK  3 active torsions:
REMARK  status: ('A' for Active; 'I' for Inactive)
REMARK    1  A    between atoms: C_1  and  C_2
REMARK    2  A    between atoms: C_3  and  C_4
REMARK    3  A    between atoms: N_6  and  C_7
REMARK                            x       y       z     vdW  Elec       q    Type
REMARK                         _______ _______ _______ _____ _____    ______ ____
ROOT
ATOM      1  C   UNL     1       1.750   9.182  17.906  0.00  0.00    +0.000 C 
ATOM      2  C   UNL     1       1.452   8.798  19.314  0.00  0.00    +0.000 A 
ATOM      3  C   UNL     1       1.756   7.613  19.976  0.00  0.00    +0.000 A 
ATOM      4  O   UNL     1       1.294   7.663  21.268  0.00  0.00    +0.000 OA
ATOM      5  C   UNL     1       0.722   8.898  21.437  0.00  0.00    +0.000 A 
ATOM      6  C   UNL     1       0.143   9.395  22.605  0.00  0.00    +0.000 A 
ATOM      7  C   UNL     1      -0.370  10.704  22.552  0.00  0.00    +0.000 A 
ATOM      8  C   UNL     1      -0.300  11.457  21.379  0.00  0.00    +0.000 A 
ATOM      9 BR   UNL     1      -0.992  13.218  21.340  0.00  0.00    +0.000 Br
ATOM     10  C   UNL     1       0.278  10.937  20.220  0.00  0.00    +0.000 A 
ATOM     11  C   UNL     1       0.798   9.629  20.260  0.00  0.00    +0.000 A 
ENDROOT
BRANCH   3  12
ATOM     12  C   UNL     1       2.477   6.459  19.461  0.00  0.00    +0.000 C 
ATOM     13  O   UNL     1       3.502   6.628  18.803  0.00  0.00    +0.000 OA
ATOM     14  N   UNL     1       1.944   5.196  19.697  0.00  0.00    +0.000 N 
ATOM     15  H   UNL     1       1.009   5.159  20.088  0.00  0.00    +0.000 HD
BRANCH  14  16
ATOM     16  C   UNL     1       2.533   4.001  19.194  0.00  0.00    +0.000 A 
ATOM     17  C   UNL     1       2.149   3.408  17.985  0.00  0.00    +0.000 A 
ATOM     18  C   UNL     1       2.650   2.167  17.604  0.00  0.00    +0.000 A 
ATOM     19  C   UNL     1       3.572   1.559  18.430  0.00  0.00    +0.000 A 
ATOM     20  N   UNL     1       4.038   2.120  19.565  0.00  0.00    +0.000 NA
ATOM     21  C   UNL     1       3.513   3.329  19.917  0.00  0.00    +0.000 A 
ENDBRANCH  14  16
ENDBRANCH   3  12
TORSDOF 2
ENDMDL
MODEL 3
REMARK VINA RESULT:      -6.8      0.692      1.095
REMARK  Name = 
REMARK  3 active torsions:
REMARK  status: ('A' for Active; 'I' for Inactive)
REMARK    1  A    between atoms: C_1  and  C_2
REMARK    2  A    between atoms: C_3  and  C_4
REMARK    3  A    between atoms: N_6  and  C_7
REMARK                            x       y       z     vdW  Elec       q    Type
REMARK                         _______ _______ _______ _____ _____    ______ ____
ROOT
ATOM      1  C   UNL     1       1.929   6.055  20.892  0.00  0.00    +0.000 C 
ATOM      2  C   UNL     1       1.886   7.284  20.053  0.00  0.00    +0.000 A 
ATOM      3  C   UNL     1       2.443   7.500  18.796  0.00  0.00    +0.000 A 
ATOM      4  O   UNL     1       2.178   8.781  18.377  0.00  0.00    +0.000 OA
ATOM      5  C   UNL     1       1.420   9.370  19.356  0.00  0.00    +0.000 A 
ATOM      6  C   UNL     1       0.900  10.665  19.342  0.00  0.00    +0.000 A 
ATOM      7  C   UNL     1       0.133  11.054  20.455  0.00  0.00    +0.000 A 
ATOM      8  C   UNL     1      -0.087  10.177  21.519  0.00  0.00    +0.000 A 
ATOM      9 BR   UNL     1      -1.130  10.724  23.000  0.00  0.00    +0.000 Br
ATOM     10  C   UNL     1       0.448   8.888  21.514  0.00  0.00    +0.000 A 
ATOM     11  C   UNL     1       1.217   8.484  20.406  0.00  0.00    +0.000 A 
ENDROOT
BRANCH   3  12
ATOM     12  C   UNL     1       3.185   6.559  17.972  0.00  0.00    +0.000 C 
ATOM     13  O   UNL     1       2.682   5.473  17.689  0.00  0.00    +0.000 OA
ATOM     14  N   UNL     1       4.469   6.911  17.570  0.00  0.00    +0.000 N 
ATOM     15  H   UNL     1       4.871   7.740  17.995  0.00  0.00    +0.000 HD
BRANCH  14  16
ATOM     16  C   UNL     1       5.307   6.047  16.809  0.00  0.00    +0.000 A 
ATOM     17  C   UNL     1       6.203   5.143  17.390  0.00  0.00    +0.000 A 
ATOM     18  C   UNL     1       7.102   4.422  16.609  0.00  0.00    +0.000 A 
ATOM     19  C   UNL     1       7.052   4.589  15.241  0.00  0.00    +0.000 A 
ATOM     20  N   UNL     1       6.155   5.385  14.622  0.00  0.00    +0.000 NA
ATOM     21  C   UNL     1       5.301   6.090  15.418  0.00  0.00    +0.000 A 
ENDBRANCH  14  16
ENDBRANCH   3  12
TORSDOF 2
ENDMDL
MODEL 4
REMARK VINA RESULT:      -6.8      1.280      2.188
REMARK  Name = 
REMARK  3 active torsions:
REMARK  status: ('A' for Active; 'I' for Inactive)
REMARK    1  A    between atoms: C_1  and  C_2
REMARK    2  A    between atoms: C_3  and  C_4
REMARK    3  A    between atoms: N_6  and  C_7
REMARK                            x       y       z     vdW  Elec       q    Type
REMARK                         _______ _______ _______ _____ _____    ______ ____
ROOT
ATOM      1  C   UNL     1       1.874   9.503  17.536  0.00  0.00    +0.000 C 
ATOM      2  C   UNL     1       1.740   8.770  18.825  0.00  0.00    +0.000 A 
ATOM      3  C   UNL     1       2.218   7.507  19.162  0.00  0.00    +0.000 A 
ATOM      4  O   UNL     1       1.868   7.200  20.453  0.00  0.00    +0.000 OA
ATOM      5  C   UNL     1       1.194   8.286  20.951  0.00  0.00    +0.000 A 
ATOM      6  C   UNL     1       0.673   8.426  22.238  0.00  0.00    +0.000 A 
ATOM      7  C   UNL     1       0.030   9.642  22.534  0.00  0.00    +0.000 A 
ATOM      8  C   UNL     1      -0.078  10.650  21.575  0.00  0.00    +0.000 A 
ATOM      9 BR   UNL     1      -0.941  12.279  22.005  0.00  0.00    +0.000 Br
ATOM     10  C   UNL     1       0.445  10.486  20.292  0.00  0.00    +0.000 A 
ATOM     11  C   UNL     1       1.093   9.275  19.982  0.00  0.00    +0.000 A 
ENDROOT
BRANCH   3  12
ATOM     12  C   UNL     1       3.001   6.598  18.340  0.00  0.00    +0.000 C 
ATOM     13  O   UNL     1       2.540   5.496  18.046  0.00  0.00    +0.000 OA
ATOM     14  N   UNL     1       4.277   6.997  17.956  0.00  0.00    +0.000 N 
ATOM     15  H   UNL     1       4.645   7.836  18.390  0.00  0.00    +0.000 HD
BRANCH  14  16
ATOM     16  C   UNL     1       5.153   6.167  17.199  0.00  0.00    +0.000 A 
ATOM     17  C   UNL     1       6.057   5.274  17.785  0.00  0.00    +0.000 A 
ATOM     18  C   UNL     1       6.991   4.589  17.013  0.00  0.00    +0.000 A 
ATOM     19  C   UNL     1       6.969   4.781  15.648  0.00  0.00    +0.000 A 
ATOM     20  N   UNL     1       6.068   5.566  15.023  0.00  0.00    +0.000 NA
ATOM     21  C   UNL     1       5.179   6.236  15.810  0.00  0.00    +0.000 A 
ENDBRANCH  14  16
ENDBRANCH   3  12
TORSDOF 2
ENDMDL
MODEL 5
REMARK VINA RESULT:      -6.8      3.226      3.799
REMARK  Name = 
REMARK  3 active torsions:
REMARK  status: ('A' for Active; 'I' for Inactive)
REMARK    1  A    between atoms: C_1  and  C_2
REMARK    2  A    between atoms: C_3  and  C_4
REMARK    3  A    between atoms: N_6  and  C_7
REMARK                            x       y       z     vdW  Elec       q    Type
REMARK                         _______ _______ _______ _____ _____    ______ ____
ROOT
ATOM      1  C   UNL     1       1.874   9.152  18.081  0.00  0.00    +0.000 C 
ATOM      2  C   UNL     1       1.486   8.769  19.466  0.00  0.00    +0.000 A 
ATOM      3  C   UNL     1       1.700   7.564  20.128  0.00  0.00    +0.000 A 
ATOM      4  O   UNL     1       1.174   7.623  21.395  0.00  0.00    +0.000 OA
ATOM      5  C   UNL     1       0.654   8.882  21.551  0.00  0.00    +0.000 A 
ATOM      6  C   UNL     1       0.040   9.395  22.694  0.00  0.00    +0.000 A 
ATOM      7  C   UNL     1      -0.408  10.727  22.632  0.00  0.00    +0.000 A 
ATOM      8  C   UNL     1      -0.242  11.488  21.473  0.00  0.00    +0.000 A 
ATOM      9 BR   UNL     1      -0.846  13.281  21.421  0.00  0.00    +0.000 Br
ATOM     10  C   UNL     1       0.370  10.952  20.339  0.00  0.00    +0.000 A 
ATOM     11  C   UNL     1       0.824   9.620  20.388  0.00  0.00    +0.000 A 
ENDROOT
BRANCH   3  12
ATOM     12  C   UNL     1       2.390   6.382  19.636  0.00  0.00    +0.000 C 
ATOM     13  O   UNL     1       3.435   6.511  18.999  0.00  0.00    +0.000 OA
ATOM     14  N   UNL     1       1.809   5.140  19.868  0.00  0.00    +0.000 N 
ATOM     15  H   UNL     1       0.865   5.138  20.240  0.00  0.00    +0.000 HD
BRANCH  14  16
ATOM     16  C   UNL     1       2.366   3.921  19.386  0.00  0.00    +0.000 A 
ATOM     17  C   UNL     1       3.377   3.224  20.057  0.00  0.00    +0.000 A 
ATOM     18  C   UNL     1       3.990   2.116  19.478  0.00  0.00    +0.000 A 
ATOM     19  C   UNL     1       3.539   1.697  18.245  0.00  0.00    +0.000 A 
ATOM     20  N   UNL     1       2.515   2.281  17.590  0.00  0.00    +0.000 NA
ATOM     21  C   UNL     1       1.948   3.374  18.177  0.00  0.00    +0.000 A 
ENDBRANCH  14  16
ENDBRANCH   3  12
TORSDOF 2
ENDMDL
MODEL 6
REMARK VINA RESULT:      -6.8      2.327      3.288
REMARK  Name = 
REMARK  3 active torsions:
REMARK  status: ('A' for Active; 'I' for Inactive)
REMARK    1  A    between atoms: C_1  and  C_2
REMARK    2  A    between atoms: C_3  and  C_4
REMARK    3  A    between atoms: N_6  and  C_7
REMARK                            x       y       z     vdW  Elec       q    Type
REMARK                         _______ _______ _______ _____ _____    ______ ____
ROOT
ATOM      1  C   UNL     1       1.080  10.481  18.371  0.00  0.00    +0.000 C 
ATOM      2  C   UNL     1       0.910   9.757  19.660  0.00  0.00    +0.000 A 
ATOM      3  C   UNL     1       1.427   8.523  20.041  0.00  0.00    +0.000 A 
ATOM      4  O   UNL     1       1.021   8.214  21.315  0.00  0.00    +0.000 OA
ATOM      5  C   UNL     1       0.269   9.272  21.760  0.00  0.00    +0.000 A 
ATOM      6  C   UNL     1      -0.328   9.402  23.014  0.00  0.00    +0.000 A 
ATOM      7  C   UNL     1      -1.044  10.588  23.257  0.00  0.00    +0.000 A 
ATOM      8  C   UNL     1      -1.146  11.579  22.279  0.00  0.00    +0.000 A 
ATOM      9 BR   UNL     1      -2.109  13.169  22.638  0.00  0.00    +0.000 Br
ATOM     10  C   UNL     1      -0.545  11.425  21.029  0.00  0.00    +0.000 A 
ATOM     11  C   UNL     1       0.176  10.244  20.773  0.00  0.00    +0.000 A 
ENDROOT
BRANCH   3  12
ATOM     12  C   UNL     1       2.298   7.643  19.277  0.00  0.00    +0.000 C 
ATOM     13  O   UNL     1       2.730   8.014  18.187  0.00  0.00    +0.000 OA
ATOM     14  N   UNL     1       2.570   6.381  19.795  0.00  0.00    +0.000 N 
ATOM     15  H   UNL     1       2.031   6.091  20.604  0.00  0.00    +0.000 HD
BRANCH  14  16
ATOM     16  C   UNL     1       3.363   5.417  19.109  0.00  0.00    +0.000 A 
ATOM     17  C   UNL     1       2.864   4.608  18.081  0.00  0.00    +0.000 A 
ATOM     18  C   UNL     1       3.634   3.583  17.538  0.00  0.00    +0.000 A 
ATOM     19  C   UNL     1       4.919   3.418  18.010  0.00  0.00    +0.000 A 
ATOM     20  N   UNL     1       5.478   4.219  18.940  0.00  0.00    +0.000 NA
ATOM     21  C   UNL     1       4.691   5.202  19.463  0.00  0.00    +0.000 A 
ENDBRANCH  14  16
ENDBRANCH   3  12
TORSDOF 2
ENDMDL
MODEL 7
REMARK VINA RESULT:      -6.8      1.312      2.093
REMARK  Name = 
REMARK  3 active torsions:
REMARK  status: ('A' for Active; 'I' for Inactive)
REMARK    1  A    between atoms: C_1  and  C_2
REMARK    2  A    between atoms: C_3  and  C_4
REMARK    3  A    between atoms: N_6  and  C_7
REMARK                            x       y       z     vdW  Elec       q    Type
REMARK                         _______ _______ _______ _____ _____    ______ ____
ROOT
ATOM      1  C   UNL     1       1.713   9.741  17.705  0.00  0.00    +0.000 C 
ATOM      2  C   UNL     1       1.562   9.020  18.998  0.00  0.00    +0.000 A 
ATOM      3  C   UNL     1       2.007   7.748  19.342  0.00  0.00    +0.000 A 
ATOM      4  O   UNL     1       1.651   7.457  20.636  0.00  0.00    +0.000 OA
ATOM      5  C   UNL     1       1.005   8.563  21.128  0.00  0.00    +0.000 A 
ATOM      6  C   UNL     1       0.489   8.724  22.414  0.00  0.00    +0.000 A 
ATOM      7  C   UNL     1      -0.122   9.958  22.703  0.00  0.00    +0.000 A 
ATOM      8  C   UNL     1      -0.206  10.963  21.738  0.00  0.00    +0.000 A 
ATOM      9 BR   UNL     1      -1.027  12.616  22.158  0.00  0.00    +0.000 Br
ATOM     10  C   UNL     1       0.312  10.777  20.455  0.00  0.00    +0.000 A 
ATOM     11  C   UNL     1       0.929   9.548  20.152  0.00  0.00    +0.000 A 
ENDROOT
BRANCH   3  12
ATOM     12  C   UNL     1       2.766   6.813  18.526  0.00  0.00    +0.000 C 
ATOM     13  O   UNL     1       2.279   5.720  18.243  0.00  0.00    +0.000 OA
ATOM     14  N   UNL     1       4.050   7.180  18.134  0.00  0.00    +0.000 N 
ATOM     15  H   UNL     1       4.438   8.014  18.559  0.00  0.00    +0.000 HD
BRANCH  14  16
ATOM     16  C   UNL     1       4.904   6.324  17.381  0.00  0.00    +0.000 A 
ATOM     17  C   UNL     1       5.007   6.380  15.987  0.00  0.00    +0.000 A 
ATOM     18  C   UNL     1       5.744   5.431  15.283  0.00  0.00    +0.000 A 
ATOM     19  C   UNL     1       6.408   4.462  16.004  0.00  0.00    +0.000 A 
ATOM     20  N   UNL     1       6.410   4.408  17.352  0.00  0.00    +0.000 NA
ATOM     21  C   UNL     1       5.664   5.342  18.009  0.00  0.00    +0.000 A 
ENDBRANCH  14  16
ENDBRANCH   3  12
TORSDOF 2
ENDMDL
MODEL 8
REMARK VINA RESULT:      -6.7      3.832      7.769
REMARK  Name = 
REMARK  3 active torsions:
REMARK  status: ('A' for Active; 'I' for Inactive)
REMARK    1  A    between atoms: C_1  and  C_2
REMARK    2  A    between atoms: C_3  and  C_4
REMARK    3  A    between atoms: N_6  and  C_7
REMARK                            x       y       z     vdW  Elec       q    Type
REMARK                         _______ _______ _______ _____ _____    ______ ____
ROOT
ATOM      1  C   UNL     1       2.564   8.339  17.470  0.00  0.00    +0.000 C 
ATOM      2  C   UNL     1       3.076   7.167  18.231  0.00  0.00    +0.000 A 
ATOM      3  C   UNL     1       2.729   6.740  19.509  0.00  0.00    +0.000 A 
ATOM      4  O   UNL     1       3.445   5.617  19.842  0.00  0.00    +0.000 OA
ATOM      5  C   UNL     1       4.227   5.309  18.758  0.00  0.00    +0.000 A 
ATOM      6  C   UNL     1       5.101   4.228  18.640  0.00  0.00    +0.000 A 
ATOM      7  C   UNL     1       5.793   4.100  17.422  0.00  0.00    +0.000 A 
ATOM      8  C   UNL     1       5.607   5.020  16.389  0.00  0.00    +0.000 A 
ATOM      9 BR   UNL     1       6.545   4.818  14.758  0.00  0.00    +0.000 Br
ATOM     10  C   UNL     1       4.732   6.098  16.531  0.00  0.00    +0.000 A 
ATOM     11  C   UNL     1       4.031   6.238  17.744  0.00  0.00    +0.000 A 
ENDROOT
BRANCH   3  12
ATOM     12  C   UNL     1       1.746   7.320  20.411  0.00  0.00    +0.000 C 
ATOM     13  O   UNL     1       0.966   6.584  21.014  0.00  0.00    +0.000 OA
ATOM     14  N   UNL     1       1.696   8.706  20.520  0.00  0.00    +0.000 N 
ATOM     15  H   UNL     1       2.248   9.239  19.857  0.00  0.00    +0.000 HD
BRANCH  14  16
ATOM     16  C   UNL     1       0.740   9.385  21.329  0.00  0.00    +0.000 A 
ATOM     17  C   UNL     1      -0.242  10.233  20.804  0.00  0.00    +0.000 A 
ATOM     18  C   UNL     1      -1.062  10.986  21.640  0.00  0.00    +0.000 A 
ATOM     19  C   UNL     1      -0.910  10.836  23.002  0.00  0.00    +0.000 A 
ATOM     20  N   UNL     1      -0.036   9.974  23.562  0.00  0.00    +0.000 NA
ATOM     21  C   UNL     1       0.763   9.265  22.715  0.00  0.00    +0.000 A 
ENDBRANCH  14  16
ENDBRANCH   3  12
TORSDOF 2
ENDMDL
MODEL 9
REMARK VINA RESULT:      -6.7      2.200      3.334
REMARK  Name = 
REMARK  3 active torsions:
REMARK  status: ('A' for Active; 'I' for Inactive)
REMARK    1  A    between atoms: C_1  and  C_2
REMARK    2  A    between atoms: C_3  and  C_4
REMARK    3  A    between atoms: N_6  and  C_7
REMARK                            x       y       z     vdW  Elec       q    Type
REMARK                         _______ _______ _______ _____ _____    ______ ____
ROOT
ATOM      1  C   UNL     1       0.582  10.096  18.211  0.00  0.00    +0.000 C 
ATOM      2  C   UNL     1       0.685   9.545  19.590  0.00  0.00    +0.000 A 
ATOM      3  C   UNL     1       1.433   8.462  20.041  0.00  0.00    +0.000 A 
ATOM      4  O   UNL     1       1.237   8.282  21.388  0.00  0.00    +0.000 OA
ATOM      5  C   UNL     1       0.387   9.276  21.802  0.00  0.00    +0.000 A 
ATOM      6  C   UNL     1      -0.068   9.497  23.103  0.00  0.00    +0.000 A 
ATOM      7  C   UNL     1      -0.927  10.594  23.298  0.00  0.00    +0.000 A 
ATOM      8  C   UNL     1      -1.301  11.413  22.231  0.00  0.00    +0.000 A 
ATOM      9 BR   UNL     1      -2.452  12.886  22.525  0.00  0.00    +0.000 Br
ATOM     10  C   UNL     1      -0.839  11.169  20.937  0.00  0.00    +0.000 A 
ATOM     11  C   UNL     1       0.023  10.076  20.727  0.00  0.00    +0.000 A 
ENDROOT
BRANCH   3  12
ATOM     12  C   UNL     1       2.332   7.613  19.275  0.00  0.00    +0.000 C 
ATOM     13  O   UNL     1       2.783   8.018  18.205  0.00  0.00    +0.000 OA
ATOM     14  N   UNL     1       2.611   6.342  19.768  0.00  0.00    +0.000 N 
ATOM     15  H   UNL     1       2.058   6.025  20.557  0.00  0.00    +0.000 HD
BRANCH  14  16
ATOM     16  C   UNL     1       3.432   5.407  19.076  0.00  0.00    +0.000 A 
ATOM     17  C   UNL     1       4.812   5.300  19.283  0.00  0.00    +0.000 A 
ATOM     18  C   UNL     1       5.596   4.473  18.484  0.00  0.00    +0.000 A 
ATOM     19  C   UNL     1       4.966   3.725  17.512  0.00  0.00    +0.000 A 
ATOM     20  N   UNL     1       3.630   3.727  17.322  0.00  0.00    +0.000 NA
ATOM     21  C   UNL     1       2.894   4.562  18.110  0.00  0.00    +0.000 A 
ENDBRANCH  14  16
ENDBRANCH   3  12
TORSDOF 2
ENDMDL
