MODEL 1
REMARK VINA RESULT:      -8.2      0.000      0.000
REMARK  Name = 
REMARK  2 active torsions:
REMARK  status: ('A' for Active; 'I' for Inactive)
REMARK    1  A    between atoms: C_4  and  N_5
REMARK    2  A    between atoms: N_5  and  C_6
REMARK                            x       y       z     vdW  Elec       q    Type
REMARK                         _______ _______ _______ _____ _____    ______ ____
ROOT
ATOM      1  O   UNL     1       7.670   5.768  20.207  0.00  0.00    +0.000 OA
ATOM      2  C   UNL     1       6.879   5.280  19.406  0.00  0.00    +0.000 A 
ATOM      3  C   UNL     1       7.309   4.903  18.059  0.00  0.00    +0.000 A 
ATOM      4  C   UNL     1       6.499   4.383  17.124  0.00  0.00    +0.000 A 
ATOM      5  C   UNL     1       5.082   4.148  17.504  0.00  0.00    +0.000 A 
ATOM      6  C   UNL     1       4.119   3.593  16.648  0.00  0.00    +0.000 A 
ATOM      7  C   UNL     1       2.805   3.361  17.079  0.00  0.00    +0.000 A 
ATOM      8  C   UNL     1       2.403   3.672  18.384  0.00  0.00    +0.000 A 
ATOM      9  C   UNL     1       1.096   3.405  18.826  0.00  0.00    +0.000 A 
ATOM     10  C   UNL     1       0.707   3.705  20.132  0.00  0.00    +0.000 A 
ATOM     11  C   UNL     1       1.616   4.289  21.008  0.00  0.00    +0.000 A 
ATOM     12  C   UNL     1       2.915   4.565  20.579  0.00  0.00    +0.000 A 
ATOM     13  C   UNL     1       3.336   4.254  19.267  0.00  0.00    +0.000 A 
ATOM     14  C   UNL     1       4.655   4.481  18.796  0.00  0.00    +0.000 A 
ATOM     15  O   UNL     1       5.557   5.062  19.719  0.00  0.00    +0.000 OA
ENDROOT
BRANCH   4  16
ATOM     16  N   UNL     1       6.932   4.011  15.854  0.00  0.00    +0.000 N 
ATOM     17  H   UNL     1       7.014   3.012  15.713  0.00  0.00    +0.000 HD
BRANCH  16  18
ATOM     18  C   UNL     1       6.507   4.754  14.662  0.00  0.00    +0.000 C 
ATOM     19  C   UNL     1       7.332   4.825  13.411  0.00  0.00    +0.000 C 
ATOM     20  C   UNL     1       6.104   3.966  13.443  0.00  0.00    +0.000 C 
ENDBRANCH  16  18
ENDBRANCH   4  16
TORSDOF 2
ENDMDL
MODEL 2
REMARK VINA RESULT:      -8.1      1.593      1.742
REMARK  Name = 
REMARK  2 active torsions:
REMARK  status: ('A' for Active; 'I' for Inactive)
REMARK    1  A    between atoms: C_4  and  N_5
REMARK    2  A    between atoms: N_5  and  C_6
REMARK                            x       y       z     vdW  Elec       q    Type
REMARK                         _______ _______ _______ _____ _____    ______ ____
ROOT
ATOM      1  O   UNL     1       6.888   7.539  17.189  0.00  0.00    +0.000 OA
ATOM      2  C   UNL     1       6.180   6.548  17.036  0.00  0.00    +0.000 A 
ATOM      3  C   UNL     1       6.466   5.576  15.980  0.00  0.00    +0.000 A 
ATOM      4  C   UNL     1       5.729   4.481  15.740  0.00  0.00    +0.000 A 
ATOM      5  C   UNL     1       4.567   4.232  16.632  0.00  0.00    +0.000 A 
ATOM      6  C   UNL     1       3.714   3.124  16.524  0.00  0.00    +0.000 A 
ATOM      7  C   UNL     1       2.656   2.925  17.423  0.00  0.00    +0.000 A 
ATOM      8  C   UNL     1       2.412   3.826  18.467  0.00  0.00    +0.000 A 
ATOM      9  C   UNL     1       1.374   3.607  19.389  0.00  0.00    +0.000 A 
ATOM     10  C   UNL     1       1.145   4.501  20.436  0.00  0.00    +0.000 A 
ATOM     11  C   UNL     1       1.942   5.634  20.564  0.00  0.00    +0.000 A 
ATOM     12  C   UNL     1       2.971   5.866  19.651  0.00  0.00    +0.000 A 
ATOM     13  C   UNL     1       3.233   4.965  18.594  0.00  0.00    +0.000 A 
ATOM     14  C   UNL     1       4.289   5.139  17.664  0.00  0.00    +0.000 A 
ATOM     15  O   UNL     1       5.089   6.294  17.835  0.00  0.00    +0.000 OA
ENDROOT
BRANCH   4  16
ATOM     16  N   UNL     1       6.028   3.557  14.742  0.00  0.00    +0.000 N 
ATOM     17  H   UNL     1       5.654   2.630  14.901  0.00  0.00    +0.000 HD
BRANCH  16  18
ATOM     18  C   UNL     1       6.072   3.954  13.331  0.00  0.00    +0.000 C 
ATOM     19  C   UNL     1       6.368   2.986  12.223  0.00  0.00    +0.000 C 
ATOM     20  C   UNL     1       4.966   3.476  12.426  0.00  0.00    +0.000 C 
ENDBRANCH  16  18
ENDBRANCH   4  16
TORSDOF 2
ENDMDL
MODEL 3
REMARK VINA RESULT:      -7.9      0.922      1.062
REMARK  Name = 
REMARK  2 active torsions:
REMARK  status: ('A' for Active; 'I' for Inactive)
REMARK    1  A    between atoms: C_4  and  N_5
REMARK    2  A    between atoms: N_5  and  C_6
REMARK                            x       y       z     vdW  Elec       q    Type
REMARK                         _______ _______ _______ _____ _____    ______ ____
ROOT
ATOM      1  O   UNL     1       7.686   5.315  19.492  0.00  0.00    +0.000 OA
ATOM      2  C   UNL     1       6.664   5.025  18.878  0.00  0.00    +0.000 A 
ATOM      3  C   UNL     1       6.615   5.103  17.418  0.00  0.00    +0.000 A 
ATOM      4  C   UNL     1       5.530   4.821  16.681  0.00  0.00    +0.000 A 
ATOM      5  C   UNL     1       4.313   4.368  17.404  0.00  0.00    +0.000 A 
ATOM      6  C   UNL     1       3.109   4.017  16.776  0.00  0.00    +0.000 A 
ATOM      7  C   UNL     1       2.007   3.559  17.512  0.00  0.00    +0.000 A 
ATOM      8  C   UNL     1       2.067   3.432  18.906  0.00  0.00    +0.000 A 
ATOM      9  C   UNL     1       0.975   2.939  19.640  0.00  0.00    +0.000 A 
ATOM     10  C   UNL     1       1.047   2.803  21.027  0.00  0.00    +0.000 A 
ATOM     11  C   UNL     1       2.207   3.172  21.699  0.00  0.00    +0.000 A 
ATOM     12  C   UNL     1       3.296   3.669  20.982  0.00  0.00    +0.000 A 
ATOM     13  C   UNL     1       3.253   3.799  19.576  0.00  0.00    +0.000 A 
ATOM     14  C   UNL     1       4.345   4.264  18.801  0.00  0.00    +0.000 A 
ATOM     15  O   UNL     1       5.515   4.615  19.517  0.00  0.00    +0.000 OA
ENDROOT
BRANCH   4  16
ATOM     16  N   UNL     1       5.509   4.882  15.290  0.00  0.00    +0.000 N 
ATOM     17  H   UNL     1       5.391   5.813  14.911  0.00  0.00    +0.000 HD
BRANCH  16  18
ATOM     18  C   UNL     1       6.367   4.008  14.482  0.00  0.00    +0.000 C 
ATOM     19  C   UNL     1       6.056   3.655  13.057  0.00  0.00    +0.000 C 
ATOM     20  C   UNL     1       7.153   4.631  13.357  0.00  0.00    +0.000 C 
ENDBRANCH  16  18
ENDBRANCH   4  16
TORSDOF 2
ENDMDL
MODEL 4
REMARK VINA RESULT:      -7.8      2.474      3.663
REMARK  Name = 
REMARK  2 active torsions:
REMARK  status: ('A' for Active; 'I' for Inactive)
REMARK    1  A    between atoms: C_4  and  N_5
REMARK    2  A    between atoms: N_5  and  C_6
REMARK                            x       y       z     vdW  Elec       q    Type
REMARK                         _______ _______ _______ _____ _____    ______ ____
ROOT
ATOM      1  O   UNL     1       5.904   3.485  14.556  0.00  0.00    +0.000 OA
ATOM      2  C   UNL     1       5.485   4.159  15.492  0.00  0.00    +0.000 A 
ATOM      3  C   UNL     1       6.040   5.484  15.772  0.00  0.00    +0.000 A 
ATOM      4  C   UNL     1       5.649   6.269  16.786  0.00  0.00    +0.000 A 
ATOM      5  C   UNL     1       4.555   5.765  17.657  0.00  0.00    +0.000 A 
ATOM      6  C   UNL     1       4.021   6.475  18.742  0.00  0.00    +0.000 A 
ATOM      7  C   UNL     1       2.962   5.960  19.503  0.00  0.00    +0.000 A 
ATOM      8  C   UNL     1       2.392   4.715  19.205  0.00  0.00    +0.000 A 
ATOM      9  C   UNL     1       1.307   4.216  19.945  0.00  0.00    +0.000 A 
ATOM     10  C   UNL     1       0.736   2.981  19.634  0.00  0.00    +0.000 A 
ATOM     11  C   UNL     1       1.253   2.224  18.589  0.00  0.00    +0.000 A 
ATOM     12  C   UNL     1       2.335   2.705  17.851  0.00  0.00    +0.000 A 
ATOM     13  C   UNL     1       2.918   3.961  18.136  0.00  0.00    +0.000 A 
ATOM     14  C   UNL     1       3.993   4.508  17.392  0.00  0.00    +0.000 A 
ATOM     15  O   UNL     1       4.484   3.717  16.326  0.00  0.00    +0.000 OA
ENDROOT
BRANCH   4  16
ATOM     16  N   UNL     1       6.175   7.537  17.024  0.00  0.00    +0.000 N 
ATOM     17  H   UNL     1       5.599   8.129  17.608  0.00  0.00    +0.000 HD
BRANCH  16  18
ATOM     18  C   UNL     1       7.618   7.735  17.203  0.00  0.00    +0.000 C 
ATOM     19  C   UNL     1       8.189   8.846  18.035  0.00  0.00    +0.000 C 
ATOM     20  C   UNL     1       8.211   7.441  18.556  0.00  0.00    +0.000 C 
ENDBRANCH  16  18
ENDBRANCH   4  16
TORSDOF 2
ENDMDL
MODEL 5
REMARK VINA RESULT:      -7.6      2.693      5.919
REMARK  Name = 
REMARK  2 active torsions:
REMARK  status: ('A' for Active; 'I' for Inactive)
REMARK    1  A    between atoms: C_4  and  N_5
REMARK    2  A    between atoms: N_5  and  C_6
REMARK                            x       y       z     vdW  Elec       q    Type
REMARK                         _______ _______ _______ _____ _____    ______ ____
ROOT
ATOM      1  O   UNL     1       2.223   9.030  18.045  0.00  0.00    +0.000 OA
ATOM      2  C   UNL     1       2.667   7.903  18.242  0.00  0.00    +0.000 A 
ATOM      3  C   UNL     1       2.291   7.144  19.435  0.00  0.00    +0.000 A 
ATOM      4  C   UNL     1       2.750   5.918  19.728  0.00  0.00    +0.000 A 
ATOM      5  C   UNL     1       3.676   5.286  18.753  0.00  0.00    +0.000 A 
ATOM      6  C   UNL     1       4.225   4.004  18.905  0.00  0.00    +0.000 A 
ATOM      7  C   UNL     1       5.063   3.447  17.928  0.00  0.00    +0.000 A 
ATOM      8  C   UNL     1       5.383   4.149  16.760  0.00  0.00    +0.000 A 
ATOM      9  C   UNL     1       6.195   3.577  15.766  0.00  0.00    +0.000 A 
ATOM     10  C   UNL     1       6.498   4.278  14.598  0.00  0.00    +0.000 A 
ATOM     11  C   UNL     1       6.007   5.566  14.417  0.00  0.00    +0.000 A 
ATOM     12  C   UNL     1       5.207   6.148  15.400  0.00  0.00    +0.000 A 
ATOM     13  C   UNL     1       4.871   5.451  16.582  0.00  0.00    +0.000 A 
ATOM     14  C   UNL     1       4.032   5.986  17.592  0.00  0.00    +0.000 A 
ATOM     15  O   UNL     1       3.537   7.294  17.367  0.00  0.00    +0.000 OA
ENDROOT
BRANCH   4  16
ATOM     16  N   UNL     1       2.364   5.203  20.859  0.00  0.00    +0.000 N 
ATOM     17  H   UNL     1       2.526   5.681  21.735  0.00  0.00    +0.000 HD
BRANCH  16  18
ATOM     18  C   UNL     1       1.162   4.360  20.846  0.00  0.00    +0.000 C 
ATOM     19  C   UNL     1       0.932   3.289  19.821  0.00  0.00    +0.000 C 
ATOM     20  C   UNL     1       1.312   2.909  21.220  0.00  0.00    +0.000 C 
ENDBRANCH  16  18
ENDBRANCH   4  16
TORSDOF 2
ENDMDL
MODEL 6
REMARK VINA RESULT:      -7.3      3.392      4.661
REMARK  Name = 
REMARK  2 active torsions:
REMARK  status: ('A' for Active; 'I' for Inactive)
REMARK    1  A    between atoms: C_4  and  N_5
REMARK    2  A    between atoms: N_5  and  C_6
REMARK                            x       y       z     vdW  Elec       q    Type
REMARK                         _______ _______ _______ _____ _____    ______ ____
ROOT
ATOM      1  O   UNL     1       5.653   6.142  15.284  0.00  0.00    +0.000 OA
ATOM      2  C   UNL     1       5.063   5.966  16.346  0.00  0.00    +0.000 A 
ATOM      3  C   UNL     1       5.300   4.765  17.148  0.00  0.00    +0.000 A 
ATOM      4  C   UNL     1       4.680   4.495  18.306  0.00  0.00    +0.000 A 
ATOM      5  C   UNL     1       3.714   5.503  18.815  0.00  0.00    +0.000 A 
ATOM      6  C   UNL     1       3.003   5.377  20.017  0.00  0.00    +0.000 A 
ATOM      7  C   UNL     1       2.134   6.383  20.463  0.00  0.00    +0.000 A 
ATOM      8  C   UNL     1       1.945   7.557  19.723  0.00  0.00    +0.000 A 
ATOM      9  C   UNL     1       1.101   8.581  20.188  0.00  0.00    +0.000 A 
ATOM     10  C   UNL     1       0.928   9.755  19.452  0.00  0.00    +0.000 A 
ATOM     11  C   UNL     1       1.584   9.912  18.236  0.00  0.00    +0.000 A 
ATOM     12  C   UNL     1       2.418   8.900  17.761  0.00  0.00    +0.000 A 
ATOM     13  C   UNL     1       2.623   7.711  18.497  0.00  0.00    +0.000 A 
ATOM     14  C   UNL     1       3.489   6.671  18.074  0.00  0.00    +0.000 A 
ATOM     15  O   UNL     1       4.152   6.873  16.839  0.00  0.00    +0.000 OA
ENDROOT
BRANCH   4  16
ATOM     16  N   UNL     1       4.935   3.356  19.066  0.00  0.00    +0.000 N 
ATOM     17  H   UNL     1       5.517   3.513  19.878  0.00  0.00    +0.000 HD
BRANCH  16  18
ATOM     18  C   UNL     1       3.906   2.327  19.254  0.00  0.00    +0.000 C 
ATOM     19  C   UNL     1       2.815   2.076  18.254  0.00  0.00    +0.000 C 
ATOM     20  C   UNL     1       3.953   1.108  18.369  0.00  0.00    +0.000 C 
ENDBRANCH  16  18
ENDBRANCH   4  16
TORSDOF 2
ENDMDL
MODEL 7
REMARK VINA RESULT:      -7.3      3.261      3.949
REMARK  Name = 
REMARK  2 active torsions:
REMARK  status: ('A' for Active; 'I' for Inactive)
REMARK    1  A    between atoms: C_4  and  N_5
REMARK    2  A    between atoms: N_5  and  C_6
REMARK                            x       y       z     vdW  Elec       q    Type
REMARK                         _______ _______ _______ _____ _____    ______ ____
ROOT
ATOM      1  O   UNL     1       3.424   3.126  20.496  0.00  0.00    +0.000 OA
ATOM      2  C   UNL     1       3.382   4.131  19.793  0.00  0.00    +0.000 A 
ATOM      3  C   UNL     1       4.046   4.166  18.490  0.00  0.00    +0.000 A 
ATOM      4  C   UNL     1       4.060   5.233  17.677  0.00  0.00    +0.000 A 
ATOM      5  C   UNL     1       3.319   6.441  18.124  0.00  0.00    +0.000 A 
ATOM      6  C   UNL     1       3.221   7.626  17.379  0.00  0.00    +0.000 A 
ATOM      7  C   UNL     1       2.474   8.719  17.839  0.00  0.00    +0.000 A 
ATOM      8  C   UNL     1       1.792   8.670  19.062  0.00  0.00    +0.000 A 
ATOM      9  C   UNL     1       1.014   9.753  19.506  0.00  0.00    +0.000 A 
ATOM     10  C   UNL     1       0.327   9.691  20.719  0.00  0.00    +0.000 A 
ATOM     11  C   UNL     1       0.421   8.551  21.510  0.00  0.00    +0.000 A 
ATOM     12  C   UNL     1       1.196   7.472  21.083  0.00  0.00    +0.000 A 
ATOM     13  C   UNL     1       1.886   7.505  19.851  0.00  0.00    +0.000 A 
ATOM     14  C   UNL     1       2.656   6.420  19.358  0.00  0.00    +0.000 A 
ATOM     15  O   UNL     1       2.716   5.271  20.183  0.00  0.00    +0.000 OA
ENDROOT
BRANCH   4  16
ATOM     16  N   UNL     1       4.681   5.241  16.430  0.00  0.00    +0.000 N 
ATOM     17  H   UNL     1       4.884   6.163  16.067  0.00  0.00    +0.000 HD
BRANCH  16  18
ATOM     18  C   UNL     1       5.675   4.222  16.074  0.00  0.00    +0.000 C 
ATOM     19  C   UNL     1       6.086   3.948  14.657  0.00  0.00    +0.000 C 
ATOM     20  C   UNL     1       7.017   4.686  15.572  0.00  0.00    +0.000 C 
ENDBRANCH  16  18
ENDBRANCH   4  16
TORSDOF 2
ENDMDL
MODEL 8
REMARK VINA RESULT:      -7.3      3.270      6.416
REMARK  Name = 
REMARK  2 active torsions:
REMARK  status: ('A' for Active; 'I' for Inactive)
REMARK    1  A    between atoms: C_4  and  N_5
REMARK    2  A    between atoms: N_5  and  C_6
REMARK                            x       y       z     vdW  Elec       q    Type
REMARK                         _______ _______ _______ _____ _____    ______ ____
ROOT
ATOM      1  O   UNL     1       1.865   3.103  20.860  0.00  0.00    +0.000 OA
ATOM      2  C   UNL     1       2.227   4.086  20.221  0.00  0.00    +0.000 A 
ATOM      3  C   UNL     1       1.847   5.436  20.638  0.00  0.00    +0.000 A 
ATOM      4  C   UNL     1       2.188   6.555  19.981  0.00  0.00    +0.000 A 
ATOM      5  C   UNL     1       3.036   6.403  18.769  0.00  0.00    +0.000 A 
ATOM      6  C   UNL     1       3.492   7.475  17.988  0.00  0.00    +0.000 A 
ATOM      7  C   UNL     1       4.322   7.268  16.877  0.00  0.00    +0.000 A 
ATOM      8  C   UNL     1       4.731   5.981  16.506  0.00  0.00    +0.000 A 
ATOM      9  C   UNL     1       5.593   5.778  15.414  0.00  0.00    +0.000 A 
ATOM     10  C   UNL     1       6.007   4.493  15.058  0.00  0.00    +0.000 A 
ATOM     11  C   UNL     1       5.553   3.395  15.781  0.00  0.00    +0.000 A 
ATOM     12  C   UNL     1       4.692   3.584  16.863  0.00  0.00    +0.000 A 
ATOM     13  C   UNL     1       4.274   4.876  17.252  0.00  0.00    +0.000 A 
ATOM     14  C   UNL     1       3.430   5.120  18.366  0.00  0.00    +0.000 A 
ATOM     15  O   UNL     1       3.000   3.980  19.087  0.00  0.00    +0.000 OA
ENDROOT
BRANCH   4  16
ATOM     16  N   UNL     1       1.834   7.833  20.405  0.00  0.00    +0.000 N 
ATOM     17  H   UNL     1       1.721   8.508  19.660  0.00  0.00    +0.000 HD
BRANCH  16  18
ATOM     18  C   UNL     1       0.921   8.028  21.537  0.00  0.00    +0.000 C 
ATOM     19  C   UNL     1       0.883   9.295  22.341  0.00  0.00    +0.000 C 
ATOM     20  C   UNL     1      -0.218   8.999  21.368  0.00  0.00    +0.000 C 
ENDBRANCH  16  18
ENDBRANCH   4  16
TORSDOF 2
ENDMDL
MODEL 9
REMARK VINA RESULT:      -7.3      1.960      5.766
REMARK  Name = 
REMARK  2 active torsions:
REMARK  status: ('A' for Active; 'I' for Inactive)
REMARK    1  A    between atoms: C_4  and  N_5
REMARK    2  A    between atoms: N_5  and  C_6
REMARK                            x       y       z     vdW  Elec       q    Type
REMARK                         _______ _______ _______ _____ _____    ______ ____
ROOT
ATOM      1  O   UNL     1       8.249   7.859  18.090  0.00  0.00    +0.000 OA
ATOM      2  C   UNL     1       7.537   6.929  17.725  0.00  0.00    +0.000 A 
ATOM      3  C   UNL     1       6.577   6.312  18.642  0.00  0.00    +0.000 A 
ATOM      4  C   UNL     1       5.781   5.281  18.322  0.00  0.00    +0.000 A 
ATOM      5  C   UNL     1       5.864   4.761  16.933  0.00  0.00    +0.000 A 
ATOM      6  C   UNL     1       5.084   3.704  16.440  0.00  0.00    +0.000 A 
ATOM      7  C   UNL     1       5.181   3.284  15.105  0.00  0.00    +0.000 A 
ATOM      8  C   UNL     1       6.061   3.906  14.211  0.00  0.00    +0.000 A 
ATOM      9  C   UNL     1       6.133   3.509  12.865  0.00  0.00    +0.000 A 
ATOM     10  C   UNL     1       7.002   4.143  11.976  0.00  0.00    +0.000 A 
ATOM     11  C   UNL     1       7.821   5.172  12.426  0.00  0.00    +0.000 A 
ATOM     12  C   UNL     1       7.764   5.572  13.762  0.00  0.00    +0.000 A 
ATOM     13  C   UNL     1       6.879   4.957  14.675  0.00  0.00    +0.000 A 
ATOM     14  C   UNL     1       6.760   5.352  16.032  0.00  0.00    +0.000 A 
ATOM     15  O   UNL     1       7.598   6.413  16.451  0.00  0.00    +0.000 OA
ENDROOT
BRANCH   4  16
ATOM     16  N   UNL     1       4.858   4.721  19.202  0.00  0.00    +0.000 N 
ATOM     17  H   UNL     1       5.268   4.250  19.999  0.00  0.00    +0.000 HD
BRANCH  16  18
ATOM     18  C   UNL     1       3.585   5.390  19.490  0.00  0.00    +0.000 C 
ATOM     19  C   UNL     1       2.421   5.366  18.541  0.00  0.00    +0.000 C 
ATOM     20  C   UNL     1       2.384   4.530  19.785  0.00  0.00    +0.000 C 
ENDBRANCH  16  18
ENDBRANCH   4  16
TORSDOF 2
ENDMDL
