MODEL 1
REMARK VINA RESULT:      -5.4      0.000      0.000
REMARK  Name = 
REMARK  3 active torsions:
REMARK  status: ('A' for Active; 'I' for Inactive)
REMARK    1  A    between atoms: C_2  and  C_3
REMARK    2  A    between atoms: C_3  and  S_4
REMARK    3  A    between atoms: N_5  and  C_6
REMARK                            x       y       z     vdW  Elec       q    Type
REMARK                         _______ _______ _______ _____ _____    ______ ____
ROOT
ATOM      1  C   UNL     1       4.066   3.773  17.899  0.00  0.00    +0.000 A 
ATOM      2  C   UNL     1       3.732   2.455  18.211  0.00  0.00    +0.000 A 
ATOM      3  C   UNL     1       2.824   2.175  19.238  0.00  0.00    +0.000 A 
ATOM      4  C   UNL     1       2.238   3.215  19.962  0.00  0.00    +0.000 A 
ATOM      5 CL   UNL     1       1.105   2.800  21.197  0.00  0.00    +0.000 Cl
ATOM      6  C   UNL     1       2.579   4.537  19.665  0.00  0.00    +0.000 A 
ATOM      7 CL   UNL     1       1.892   5.881  20.509  0.00  0.00    +0.000 Cl
ATOM      8  C   UNL     1       3.499   4.812  18.645  0.00  0.00    +0.000 A 
ENDROOT
BRANCH   1  11
ATOM      9  O   UNL     1       6.956   4.373  18.029  0.00  0.00    +0.000 OA
ATOM     10  C   UNL     1       6.308   4.405  16.985  0.00  0.00    +0.000 C 
ATOM     11  N   UNL     1       4.957   4.125  16.867  0.00  0.00    +0.000 N 
ATOM     12  H   UNL     1       4.611   4.059  15.914  0.00  0.00    +0.000 HD
BRANCH  10  13
ATOM     13  C   UNL     1       6.980   4.837  15.688  0.00  0.00    +0.000 C 
BRANCH  13  14
ATOM     14  S   UNL     1       6.220   4.101  14.207  0.00  0.00    +0.000 S 
ATOM     15  H   UNL     1       6.744   2.875  14.366  0.00  0.00    +0.000 HD
ENDBRANCH  13  14
ENDBRANCH  10  13
ENDBRANCH   1  11
TORSDOF 3
ENDMDL
MODEL 2
REMARK VINA RESULT:      -5.3      2.187      2.448
REMARK  Name = 
REMARK  3 active torsions:
REMARK  status: ('A' for Active; 'I' for Inactive)
REMARK    1  A    between atoms: C_2  and  C_3
REMARK    2  A    between atoms: C_3  and  S_4
REMARK    3  A    between atoms: N_5  and  C_6
REMARK                            x       y       z     vdW  Elec       q    Type
REMARK                         _______ _______ _______ _____ _____    ______ ____
ROOT
ATOM      1  C   UNL     1       4.393   4.991  18.578  0.00  0.00    +0.000 A 
ATOM      2  C   UNL     1       3.823   4.480  17.412  0.00  0.00    +0.000 A 
ATOM      3  C   UNL     1       2.672   3.687  17.471  0.00  0.00    +0.000 A 
ATOM      4  C   UNL     1       2.077   3.400  18.701  0.00  0.00    +0.000 A 
ATOM      5 CL   UNL     1       0.643   2.440  18.698  0.00  0.00    +0.000 Cl
ATOM      6  C   UNL     1       2.651   3.896  19.874  0.00  0.00    +0.000 A 
ATOM      7 CL   UNL     1       1.971   3.594  21.434  0.00  0.00    +0.000 Cl
ATOM      8  C   UNL     1       3.812   4.678  19.812  0.00  0.00    +0.000 A 
ENDROOT
BRANCH   1  11
ATOM      9  O   UNL     1       7.246   4.239  18.417  0.00  0.00    +0.000 OA
ATOM     10  C   UNL     1       6.862   5.402  18.519  0.00  0.00    +0.000 C 
ATOM     11  N   UNL     1       5.539   5.809  18.588  0.00  0.00    +0.000 N 
ATOM     12  H   UNL     1       5.393   6.812  18.525  0.00  0.00    +0.000 HD
BRANCH  10  13
ATOM     13  C   UNL     1       7.878   6.530  18.638  0.00  0.00    +0.000 C 
BRANCH  13  14
ATOM     14  S   UNL     1       7.562   7.904  17.487  0.00  0.00    +0.000 S 
ATOM     15  H   UNL     1       6.607   8.497  18.222  0.00  0.00    +0.000 HD
ENDBRANCH  13  14
ENDBRANCH  10  13
ENDBRANCH   1  11
TORSDOF 3
ENDMDL
MODEL 3
REMARK VINA RESULT:      -5.3      2.148      2.148
REMARK  Name = 
REMARK  3 active torsions:
REMARK  status: ('A' for Active; 'I' for Inactive)
REMARK    1  A    between atoms: C_2  and  C_3
REMARK    2  A    between atoms: C_3  and  S_4
REMARK    3  A    between atoms: N_5  and  C_6
REMARK                            x       y       z     vdW  Elec       q    Type
REMARK                         _______ _______ _______ _____ _____    ______ ____
ROOT
ATOM      1  C   UNL     1       4.592   4.531  19.108  0.00  0.00    +0.000 A 
ATOM      2  C   UNL     1       4.587   3.174  19.430  0.00  0.00    +0.000 A 
ATOM      3  C   UNL     1       3.574   2.637  20.231  0.00  0.00    +0.000 A 
ATOM      4  C   UNL     1       2.553   3.455  20.717  0.00  0.00    +0.000 A 
ATOM      5 CL   UNL     1       1.320   2.721  21.677  0.00  0.00    +0.000 Cl
ATOM      6  C   UNL     1       2.559   4.818  20.411  0.00  0.00    +0.000 A 
ATOM      7 CL   UNL     1       1.327   5.896  20.967  0.00  0.00    +0.000 Cl
ATOM      8  C   UNL     1       3.583   5.355  19.620  0.00  0.00    +0.000 A 
ENDROOT
BRANCH   1  11
ATOM      9  O   UNL     1       7.276   5.543  19.818  0.00  0.00    +0.000 OA
ATOM     10  C   UNL     1       6.815   5.599  18.680  0.00  0.00    +0.000 C 
ATOM     11  N   UNL     1       5.570   5.132  18.292  0.00  0.00    +0.000 N 
ATOM     12  H   UNL     1       5.404   5.126  17.290  0.00  0.00    +0.000 HD
BRANCH  10  13
ATOM     13  C   UNL     1       7.610   6.276  17.571  0.00  0.00    +0.000 C 
BRANCH  13  14
ATOM     14  S   UNL     1       7.768   8.075  17.798  0.00  0.00    +0.000 S 
ATOM     15  H   UNL     1       8.256   8.336  16.576  0.00  0.00    +0.000 HD
ENDBRANCH  13  14
ENDBRANCH  10  13
ENDBRANCH   1  11
TORSDOF 3
ENDMDL
MODEL 4
REMARK VINA RESULT:      -5.3      1.236      2.140
REMARK  Name = 
REMARK  3 active torsions:
REMARK  status: ('A' for Active; 'I' for Inactive)
REMARK    1  A    between atoms: C_2  and  C_3
REMARK    2  A    between atoms: C_3  and  S_4
REMARK    3  A    between atoms: N_5  and  C_6
REMARK                            x       y       z     vdW  Elec       q    Type
REMARK                         _______ _______ _______ _____ _____    ______ ____
ROOT
ATOM      1  C   UNL     1       4.032   4.717  17.166  0.00  0.00    +0.000 A 
ATOM      2  C   UNL     1       3.686   5.870  17.870  0.00  0.00    +0.000 A 
ATOM      3  C   UNL     1       2.765   5.813  18.921  0.00  0.00    +0.000 A 
ATOM      4  C   UNL     1       2.182   4.597  19.281  0.00  0.00    +0.000 A 
ATOM      5 CL   UNL     1       1.075   4.594  20.605  0.00  0.00    +0.000 Cl
ATOM      6  C   UNL     1       2.513   3.440  18.572  0.00  0.00    +0.000 A 
ATOM      7 CL   UNL     1       1.842   1.895  18.960  0.00  0.00    +0.000 Cl
ATOM      8  C   UNL     1       3.425   3.503  17.510  0.00  0.00    +0.000 A 
ENDROOT
BRANCH   1  11
ATOM      9  O   UNL     1       6.976   4.487  17.258  0.00  0.00    +0.000 OA
ATOM     10  C   UNL     1       6.343   4.598  16.211  0.00  0.00    +0.000 C 
ATOM     11  N   UNL     1       4.965   4.700  16.111  0.00  0.00    +0.000 N 
ATOM     12  H   UNL     1       4.595   4.641  15.167  0.00  0.00    +0.000 HD
BRANCH  10  13
ATOM     13  C   UNL     1       7.081   4.693  14.882  0.00  0.00    +0.000 C 
BRANCH  13  14
ATOM     14  S   UNL     1       6.188   3.904  13.507  0.00  0.00    +0.000 S 
ATOM     15  H   UNL     1       7.160   3.039  13.175  0.00  0.00    +0.000 HD
ENDBRANCH  13  14
ENDBRANCH  10  13
ENDBRANCH   1  11
TORSDOF 3
ENDMDL
MODEL 5
REMARK VINA RESULT:      -5.3      4.112      5.347
REMARK  Name = 
REMARK  3 active torsions:
REMARK  status: ('A' for Active; 'I' for Inactive)
REMARK    1  A    between atoms: C_2  and  C_3
REMARK    2  A    between atoms: C_3  and  S_4
REMARK    3  A    between atoms: N_5  and  C_6
REMARK                            x       y       z     vdW  Elec       q    Type
REMARK                         _______ _______ _______ _____ _____    ______ ____
ROOT
ATOM      1  C   UNL     1       4.490   3.987  18.390  0.00  0.00    +0.000 A 
ATOM      2  C   UNL     1       4.311   3.487  17.100  0.00  0.00    +0.000 A 
ATOM      3  C   UNL     1       5.177   3.860  16.067  0.00  0.00    +0.000 A 
ATOM      4  C   UNL     1       6.235   4.735  16.316  0.00  0.00    +0.000 A 
ATOM      5 CL   UNL     1       7.282   5.130  15.002  0.00  0.00    +0.000 Cl
ATOM      6  C   UNL     1       6.413   5.250  17.602  0.00  0.00    +0.000 A 
ATOM      7 CL   UNL     1       7.702   6.332  17.995  0.00  0.00    +0.000 Cl
ATOM      8  C   UNL     1       5.534   4.886  18.632  0.00  0.00    +0.000 A 
ENDROOT
BRANCH   1  11
ATOM      9  O   UNL     1       4.884   1.921  20.466  0.00  0.00    +0.000 OA
ATOM     10  C   UNL     1       3.896   2.652  20.423  0.00  0.00    +0.000 C 
ATOM     11  N   UNL     1       3.667   3.639  19.479  0.00  0.00    +0.000 N 
ATOM     12  H   UNL     1       2.874   4.245  19.672  0.00  0.00    +0.000 HD
BRANCH  10  13
ATOM     13  C   UNL     1       2.770   2.467  21.432  0.00  0.00    +0.000 C 
BRANCH  13  14
ATOM     14  S   UNL     1       1.184   3.161  20.871  0.00  0.00    +0.000 S 
ATOM     15  H   UNL     1       0.887   2.175  20.010  0.00  0.00    +0.000 HD
ENDBRANCH  13  14
ENDBRANCH  10  13
ENDBRANCH   1  11
TORSDOF 3
ENDMDL
MODEL 6
REMARK VINA RESULT:      -5.3      4.076      5.429
REMARK  Name = 
REMARK  3 active torsions:
REMARK  status: ('A' for Active; 'I' for Inactive)
REMARK    1  A    between atoms: C_2  and  C_3
REMARK    2  A    between atoms: C_3  and  S_4
REMARK    3  A    between atoms: N_5  and  C_6
REMARK                            x       y       z     vdW  Elec       q    Type
REMARK                         _______ _______ _______ _____ _____    ______ ____
ROOT
ATOM      1  C   UNL     1       4.214   5.020  18.616  0.00  0.00    +0.000 A 
ATOM      2  C   UNL     1       4.044   5.891  17.540  0.00  0.00    +0.000 A 
ATOM      3  C   UNL     1       5.109   6.675  17.084  0.00  0.00    +0.000 A 
ATOM      4  C   UNL     1       6.358   6.593  17.702  0.00  0.00    +0.000 A 
ATOM      5 CL   UNL     1       7.635   7.568  17.071  0.00  0.00    +0.000 Cl
ATOM      6  C   UNL     1       6.532   5.735  18.790  0.00  0.00    +0.000 A 
ATOM      7 CL   UNL     1       8.048   5.569  19.604  0.00  0.00    +0.000 Cl
ATOM      8  C   UNL     1       5.459   4.961  19.252  0.00  0.00    +0.000 A 
ENDROOT
BRANCH   1  11
ATOM      9  O   UNL     1       3.629   2.187  18.017  0.00  0.00    +0.000 OA
ATOM     10  C   UNL     1       2.955   2.864  18.791  0.00  0.00    +0.000 C 
ATOM     11  N   UNL     1       3.190   4.190  19.113  0.00  0.00    +0.000 N 
ATOM     12  H   UNL     1       2.627   4.555  19.876  0.00  0.00    +0.000 HD
BRANCH  10  13
ATOM     13  C   UNL     1       1.713   2.266  19.439  0.00  0.00    +0.000 C 
BRANCH  13  14
ATOM     14  S   UNL     1       1.466   2.813  21.156  0.00  0.00    +0.000 S 
ATOM     15  H   UNL     1       2.607   3.513  21.255  0.00  0.00    +0.000 HD
ENDBRANCH  13  14
ENDBRANCH  10  13
ENDBRANCH   1  11
TORSDOF 3
ENDMDL
MODEL 7
REMARK VINA RESULT:      -5.2      1.733      2.379
REMARK  Name = 
REMARK  3 active torsions:
REMARK  status: ('A' for Active; 'I' for Inactive)
REMARK    1  A    between atoms: C_2  and  C_3
REMARK    2  A    between atoms: C_3  and  S_4
REMARK    3  A    between atoms: N_5  and  C_6
REMARK                            x       y       z     vdW  Elec       q    Type
REMARK                         _______ _______ _______ _____ _____    ______ ____
ROOT
ATOM      1  C   UNL     1       4.602   4.602  17.490  0.00  0.00    +0.000 A 
ATOM      2  C   UNL     1       4.736   5.519  18.533  0.00  0.00    +0.000 A 
ATOM      3  C   UNL     1       3.754   5.617  19.524  0.00  0.00    +0.000 A 
ATOM      4  C   UNL     1       2.627   4.795  19.483  0.00  0.00    +0.000 A 
ATOM      5 CL   UNL     1       1.469   4.951  20.754  0.00  0.00    +0.000 Cl
ATOM      6  C   UNL     1       2.478   3.885  18.434  0.00  0.00    +0.000 A 
ATOM      7 CL   UNL     1       1.117   2.826  18.315  0.00  0.00    +0.000 Cl
ATOM      8  C   UNL     1       3.457   3.799  17.435  0.00  0.00    +0.000 A 
ENDROOT
BRANCH   1  11
ATOM      9  O   UNL     1       5.215   6.343  15.183  0.00  0.00    +0.000 OA
ATOM     10  C   UNL     1       5.801   5.285  15.402  0.00  0.00    +0.000 C 
ATOM     11  N   UNL     1       5.560   4.438  16.471  0.00  0.00    +0.000 N 
ATOM     12  H   UNL     1       6.228   3.681  16.582  0.00  0.00    +0.000 HD
BRANCH  10  13
ATOM     13  C   UNL     1       6.853   4.783  14.422  0.00  0.00    +0.000 C 
BRANCH  13  14
ATOM     14  S   UNL     1       6.161   3.747  13.096  0.00  0.00    +0.000 S 
ATOM     15  H   UNL     1       6.811   2.621  13.432  0.00  0.00    +0.000 HD
ENDBRANCH  13  14
ENDBRANCH  10  13
ENDBRANCH   1  11
TORSDOF 3
ENDMDL
MODEL 8
REMARK VINA RESULT:      -5.2      2.388      2.565
REMARK  Name = 
REMARK  3 active torsions:
REMARK  status: ('A' for Active; 'I' for Inactive)
REMARK    1  A    between atoms: C_2  and  C_3
REMARK    2  A    between atoms: C_3  and  S_4
REMARK    3  A    between atoms: N_5  and  C_6
REMARK                            x       y       z     vdW  Elec       q    Type
REMARK                         _______ _______ _______ _____ _____    ______ ____
ROOT
ATOM      1  C   UNL     1       4.572   4.157  18.403  0.00  0.00    +0.000 A 
ATOM      2  C   UNL     1       3.850   3.770  17.274  0.00  0.00    +0.000 A 
ATOM      3  C   UNL     1       2.606   3.146  17.405  0.00  0.00    +0.000 A 
ATOM      4  C   UNL     1       2.069   2.904  18.670  0.00  0.00    +0.000 A 
ATOM      5 CL   UNL     1       0.516   2.155  18.758  0.00  0.00    +0.000 Cl
ATOM      6  C   UNL     1       2.792   3.276  19.806  0.00  0.00    +0.000 A 
ATOM      7 CL   UNL     1       2.194   3.020  21.407  0.00  0.00    +0.000 Cl
ATOM      8  C   UNL     1       4.045   3.889  19.671  0.00  0.00    +0.000 A 
ENDROOT
BRANCH   1  11
ATOM      9  O   UNL     1       5.238   6.878  17.463  0.00  0.00    +0.000 OA
ATOM     10  C   UNL     1       6.080   6.087  17.883  0.00  0.00    +0.000 C 
ATOM     11  N   UNL     1       5.821   4.806  18.343  0.00  0.00    +0.000 N 
ATOM     12  H   UNL     1       6.606   4.340  18.786  0.00  0.00    +0.000 HD
BRANCH  10  13
ATOM     13  C   UNL     1       7.554   6.468  17.870  0.00  0.00    +0.000 C 
BRANCH  13  14
ATOM     14  S   UNL     1       7.830   8.259  17.696  0.00  0.00    +0.000 S 
ATOM     15  H   UNL     1       8.698   8.375  18.713  0.00  0.00    +0.000 HD
ENDBRANCH  13  14
ENDBRANCH  10  13
ENDBRANCH   1  11
TORSDOF 3
ENDMDL
MODEL 9
REMARK VINA RESULT:      -5.2      4.159      5.492
REMARK  Name = 
REMARK  3 active torsions:
REMARK  status: ('A' for Active; 'I' for Inactive)
REMARK    1  A    between atoms: C_2  and  C_3
REMARK    2  A    between atoms: C_3  and  S_4
REMARK    3  A    between atoms: N_5  and  C_6
REMARK                            x       y       z     vdW  Elec       q    Type
REMARK                         _______ _______ _______ _____ _____    ______ ____
ROOT
ATOM      1  C   UNL     1       4.074   3.897  18.156  0.00  0.00    +0.000 A 
ATOM      2  C   UNL     1       4.000   3.713  16.776  0.00  0.00    +0.000 A 
ATOM      3  C   UNL     1       5.064   4.087  15.950  0.00  0.00    +0.000 A 
ATOM      4  C   UNL     1       6.218   4.649  16.499  0.00  0.00    +0.000 A 
ATOM      5 CL   UNL     1       7.504   5.062  15.425  0.00  0.00    +0.000 Cl
ATOM      6  C   UNL     1       6.294   4.850  17.879  0.00  0.00    +0.000 A 
ATOM      7 CL   UNL     1       7.690   5.532  18.639  0.00  0.00    +0.000 Cl
ATOM      8  C   UNL     1       5.220   4.487  18.702  0.00  0.00    +0.000 A 
ENDROOT
BRANCH   1  11
ATOM      9  O   UNL     1       1.149   3.848  17.744  0.00  0.00    +0.000 OA
ATOM     10  C   UNL     1       1.684   3.530  18.804  0.00  0.00    +0.000 C 
ATOM     11  N   UNL     1       3.048   3.526  19.047  0.00  0.00    +0.000 N 
ATOM     12  H   UNL     1       3.329   3.100  19.925  0.00  0.00    +0.000 HD
BRANCH  10  13
ATOM     13  C   UNL     1       0.827   3.151  20.004  0.00  0.00    +0.000 C 
BRANCH  13  14
ATOM     14  S   UNL     1       1.796   2.880  21.520  0.00  0.00    +0.000 S 
ATOM     15  H   UNL     1       1.870   1.544  21.412  0.00  0.00    +0.000 HD
ENDBRANCH  13  14
ENDBRANCH  10  13
ENDBRANCH   1  11
TORSDOF 3
ENDMDL
