MODEL 1
REMARK VINA RESULT:      -9.7      0.000      0.000
REMARK  Name = 
REMARK  4 active torsions:
REMARK  status: ('A' for Active; 'I' for Inactive)
REMARK    1  A    between atoms: C_1  and  C_2
REMARK    2  A    between atoms: C_6  and  C_7
REMARK    3  A    between atoms: C_7  and  N_8
REMARK    4  A    between atoms: C_13  and  O_14
REMARK                            x       y       z     vdW  Elec       q    Type
REMARK                         _______ _______ _______ _____ _____    ______ ____
ROOT
ATOM      1  N   UNL     1       3.079   6.904  18.224  0.00  0.00    +0.000 N 
ATOM      2  C   UNL     1       2.321   7.939  18.758  0.00  0.00    +0.000 A 
ATOM      3  C   UNL     1       1.951   7.539  20.027  0.00  0.00    +0.000 A 
ATOM      4  C   UNL     1       1.970   6.126  20.013  0.00  0.00    +0.000 A 
ATOM      5  C   UNL     1       1.313   5.153  20.799  0.00  0.00    +0.000 A 
ATOM      6  C   UNL     1       1.423   3.818  20.423  0.00  0.00    +0.000 A 
ATOM      7  C   UNL     1       2.231   3.427  19.365  0.00  0.00    +0.000 A 
ATOM      8  C   UNL     1       2.922   4.377  18.600  0.00  0.00    +0.000 A 
ATOM      9  C   UNL     1       2.715   5.737  18.902  0.00  0.00    +0.000 A 
ATOM     10  C   UNL     1       1.360   8.446  20.981  0.00  0.00    +0.000 C 
ATOM     11  O   UNL     1       1.300   8.223  22.180  0.00  0.00    +0.000 OA
ATOM     12  C   UNL     1       0.700   9.634  20.380  0.00  0.00    +0.000 A 
ATOM     13  C   UNL     1      -0.164  10.384  21.186  0.00  0.00    +0.000 A 
ATOM     14  C   UNL     1      -1.089  11.231  20.587  0.00  0.00    +0.000 A 
ATOM     15  C   UNL     1      -1.162  11.301  19.195  0.00  0.00    +0.000 A 
ATOM     16  C   UNL     1      -0.213  10.644  18.395  0.00  0.00    +0.000 A 
ATOM     17  C   UNL     1       0.774   9.853  18.995  0.00  0.00    +0.000 A 
ATOM     18  C   UNL     1       1.864   9.190  18.187  0.00  0.00    +0.000 C 
ATOM     19  O   UNL     1       2.248   9.679  17.140  0.00  0.00    +0.000 OA
ENDROOT
BRANCH   6  20
ATOM     20  O   UNL     1       0.700   2.853  21.066  0.00  0.00    +0.000 OA
ATOM     21  H   UNL     1       1.109   1.991  20.878  0.00  0.00    +0.000 HD
ENDBRANCH   6  20
BRANCH   1  22
ATOM     22  C   UNL     1       3.885   6.949  17.006  0.00  0.00    +0.000 C 
BRANCH  22  28
ATOM     23  C   UNL     1       8.185   5.736  19.327  0.00  0.00    +0.000 C 
ATOM     24  C   UNL     1       7.234   5.474  18.196  0.00  0.00    +0.000 A 
ATOM     25  C   UNL     1       7.534   4.596  17.154  0.00  0.00    +0.000 A 
ATOM     26  C   UNL     1       6.637   4.457  16.092  0.00  0.00    +0.000 A 
ATOM     27  C   UNL     1       5.456   5.210  16.052  0.00  0.00    +0.000 A 
ATOM     28  C   UNL     1       5.138   6.101  17.085  0.00  0.00    +0.000 A 
ATOM     29  C   UNL     1       6.024   6.199  18.164  0.00  0.00    +0.000 A 
ENDBRANCH  22  28
ENDBRANCH   1  22
TORSDOF 3
ENDMDL
MODEL 2
REMARK VINA RESULT:      -9.3      0.521      1.426
REMARK  Name = 
REMARK  4 active torsions:
REMARK  status: ('A' for Active; 'I' for Inactive)
REMARK    1  A    between atoms: C_1  and  C_2
REMARK    2  A    between atoms: C_6  and  C_7
REMARK    3  A    between atoms: C_7  and  N_8
REMARK    4  A    between atoms: C_13  and  O_14
REMARK                            x       y       z     vdW  Elec       q    Type
REMARK                         _______ _______ _______ _____ _____    ______ ____
ROOT
ATOM      1  N   UNL     1       2.965   7.202  18.114  0.00  0.00    +0.000 N 
ATOM      2  C   UNL     1       2.240   8.197  18.759  0.00  0.00    +0.000 A 
ATOM      3  C   UNL     1       1.931   7.705  20.012  0.00  0.00    +0.000 A 
ATOM      4  C   UNL     1       1.942   6.298  19.894  0.00  0.00    +0.000 A 
ATOM      5  C   UNL     1       1.320   5.270  20.639  0.00  0.00    +0.000 A 
ATOM      6  C   UNL     1       1.405   3.966  20.161  0.00  0.00    +0.000 A 
ATOM      7  C   UNL     1       2.158   3.653  19.040  0.00  0.00    +0.000 A 
ATOM      8  C   UNL     1       2.816   4.655  18.312  0.00  0.00    +0.000 A 
ATOM      9  C   UNL     1       2.630   5.990  18.722  0.00  0.00    +0.000 A 
ATOM     10  C   UNL     1       1.391   8.541  21.057  0.00  0.00    +0.000 C 
ATOM     11  O   UNL     1       1.389   8.232  22.239  0.00  0.00    +0.000 OA
ATOM     12  C   UNL     1       0.709   9.770  20.578  0.00  0.00    +0.000 A 
ATOM     13  C   UNL     1      -0.112  10.461  21.477  0.00  0.00    +0.000 A 
ATOM     14  C   UNL     1      -1.060  11.351  20.988  0.00  0.00    +0.000 A 
ATOM     15  C   UNL     1      -1.201  11.522  19.610  0.00  0.00    +0.000 A 
ATOM     16  C   UNL     1      -0.296  10.923  18.719  0.00  0.00    +0.000 A 
ATOM     17  C   UNL     1       0.715  10.090  19.210  0.00  0.00    +0.000 A 
ATOM     18  C   UNL     1       1.761   9.487  18.303  0.00  0.00    +0.000 C 
ATOM     19  O   UNL     1       2.096  10.050  17.277  0.00  0.00    +0.000 OA
ENDROOT
BRANCH   6  20
ATOM     20  O   UNL     1       0.710   2.958  20.768  0.00  0.00    +0.000 OA
ATOM     21  H   UNL     1      -0.036   3.351  21.252  0.00  0.00    +0.000 HD
ENDBRANCH   6  20
BRANCH   1  22
ATOM     22  C   UNL     1       3.711   7.335  16.864  0.00  0.00    +0.000 C 
BRANCH  22  28
ATOM     23  C   UNL     1       6.401   3.762  14.550  0.00  0.00    +0.000 C 
ATOM     24  C   UNL     1       6.285   4.723  15.697  0.00  0.00    +0.000 A 
ATOM     25  C   UNL     1       7.182   4.723  16.766  0.00  0.00    +0.000 A 
ATOM     26  C   UNL     1       6.971   5.592  17.840  0.00  0.00    +0.000 A 
ATOM     27  C   UNL     1       5.856   6.440  17.864  0.00  0.00    +0.000 A 
ATOM     28  C   UNL     1       4.942   6.452  16.804  0.00  0.00    +0.000 A 
ATOM     29  C   UNL     1       5.187   5.608  15.714  0.00  0.00    +0.000 A 
ENDBRANCH  22  28
ENDBRANCH   1  22
TORSDOF 3
ENDMDL
MODEL 3
REMARK VINA RESULT:      -9.2      0.993      1.282
REMARK  Name = 
REMARK  4 active torsions:
REMARK  status: ('A' for Active; 'I' for Inactive)
REMARK    1  A    between atoms: C_1  and  C_2
REMARK    2  A    between atoms: C_6  and  C_7
REMARK    3  A    between atoms: C_7  and  N_8
REMARK    4  A    between atoms: C_13  and  O_14
REMARK                            x       y       z     vdW  Elec       q    Type
REMARK                         _______ _______ _______ _____ _____    ______ ____
ROOT
ATOM      1  N   UNL     1       3.370   6.262  18.418  0.00  0.00    +0.000 N 
ATOM      2  C   UNL     1       2.572   7.348  18.760  0.00  0.00    +0.000 A 
ATOM      3  C   UNL     1       2.074   7.085  20.020  0.00  0.00    +0.000 A 
ATOM      4  C   UNL     1       2.081   5.680  20.159  0.00  0.00    +0.000 A 
ATOM      5  C   UNL     1       1.340   4.795  20.976  0.00  0.00    +0.000 A 
ATOM      6  C   UNL     1       1.474   3.428  20.757  0.00  0.00    +0.000 A 
ATOM      7  C   UNL     1       2.380   2.927  19.834  0.00  0.00    +0.000 A 
ATOM      8  C   UNL     1       3.154   3.790  19.045  0.00  0.00    +0.000 A 
ATOM      9  C   UNL     1       2.929   5.175  19.177  0.00  0.00    +0.000 A 
ATOM     10  C   UNL     1       1.398   8.089  20.807  0.00  0.00    +0.000 C 
ATOM     11  O   UNL     1       1.217   7.996  22.011  0.00  0.00    +0.000 OA
ATOM     12  C   UNL     1       0.813   9.204  20.020  0.00  0.00    +0.000 A 
ATOM     13  C   UNL     1      -0.121  10.035  20.649  0.00  0.00    +0.000 A 
ATOM     14  C   UNL     1      -0.974  10.812  19.873  0.00  0.00    +0.000 A 
ATOM     15  C   UNL     1      -0.906  10.731  18.482  0.00  0.00    +0.000 A 
ATOM     16  C   UNL     1       0.112   9.993  17.856  0.00  0.00    +0.000 A 
ATOM     17  C   UNL     1       1.026   9.273  18.633  0.00  0.00    +0.000 A 
ATOM     18  C   UNL     1       2.185   8.529  18.014  0.00  0.00    +0.000 C 
ATOM     19  O   UNL     1       2.677   8.904  16.965  0.00  0.00    +0.000 OA
ENDROOT
BRANCH   6  20
ATOM     20  O   UNL     1       0.682   2.536  21.425  0.00  0.00    +0.000 OA
ATOM     21  H   UNL     1      -0.243   2.817  21.323  0.00  0.00    +0.000 HD
ENDBRANCH   6  20
BRANCH   1  22
ATOM     22  C   UNL     1       4.294   6.178  17.289  0.00  0.00    +0.000 C 
BRANCH  22  28
ATOM     23  C   UNL     1       8.413   5.310  20.053  0.00  0.00    +0.000 C 
ATOM     24  C   UNL     1       7.752   6.122  18.978  0.00  0.00    +0.000 A 
ATOM     25  C   UNL     1       8.347   7.256  18.423  0.00  0.00    +0.000 A 
ATOM     26  C   UNL     1       7.644   8.011  17.482  0.00  0.00    +0.000 A 
ATOM     27  C   UNL     1       6.341   7.654  17.110  0.00  0.00    +0.000 A 
ATOM     28  C   UNL     1       5.723   6.523  17.658  0.00  0.00    +0.000 A 
ATOM     29  C   UNL     1       6.454   5.751  18.569  0.00  0.00    +0.000 A 
ENDBRANCH  22  28
ENDBRANCH   1  22
TORSDOF 3
ENDMDL
MODEL 4
REMARK VINA RESULT:      -8.9      1.110      1.414
REMARK  Name = 
REMARK  4 active torsions:
REMARK  status: ('A' for Active; 'I' for Inactive)
REMARK    1  A    between atoms: C_1  and  C_2
REMARK    2  A    between atoms: C_6  and  C_7
REMARK    3  A    between atoms: C_7  and  N_8
REMARK    4  A    between atoms: C_13  and  O_14
REMARK                            x       y       z     vdW  Elec       q    Type
REMARK                         _______ _______ _______ _____ _____    ______ ____
ROOT
ATOM      1  N   UNL     1       3.305   6.513  18.435  0.00  0.00    +0.000 N 
ATOM      2  C   UNL     1       2.480   7.571  18.801  0.00  0.00    +0.000 A 
ATOM      3  C   UNL     1       1.972   7.259  20.046  0.00  0.00    +0.000 A 
ATOM      4  C   UNL     1       2.007   5.850  20.141  0.00  0.00    +0.000 A 
ATOM      5  C   UNL     1       1.274   4.925  20.920  0.00  0.00    +0.000 A 
ATOM      6  C   UNL     1       1.439   3.568  20.660  0.00  0.00    +0.000 A 
ATOM      7  C   UNL     1       2.367   3.116  19.733  0.00  0.00    +0.000 A 
ATOM      8  C   UNL     1       3.132   4.019  18.981  0.00  0.00    +0.000 A 
ATOM      9  C   UNL     1       2.877   5.394  19.154  0.00  0.00    +0.000 A 
ATOM     10  C   UNL     1       1.266   8.223  20.855  0.00  0.00    +0.000 C 
ATOM     11  O   UNL     1       1.072   8.088  22.054  0.00  0.00    +0.000 OA
ATOM     12  C   UNL     1       0.668   9.351  20.096  0.00  0.00    +0.000 A 
ATOM     13  C   UNL     1      -0.291  10.142  20.740  0.00  0.00    +0.000 A 
ATOM     14  C   UNL     1      -1.150  10.926  19.977  0.00  0.00    +0.000 A 
ATOM     15  C   UNL     1      -1.063  10.891  18.585  0.00  0.00    +0.000 A 
ATOM     16  C   UNL     1      -0.023  10.193  17.950  0.00  0.00    +0.000 A 
ATOM     17  C   UNL     1       0.897   9.468  18.715  0.00  0.00    +0.000 A 
ATOM     18  C   UNL     1       2.079   8.768  18.088  0.00  0.00    +0.000 C 
ATOM     19  O   UNL     1       2.576   9.185  17.058  0.00  0.00    +0.000 OA
ENDROOT
BRANCH   6  20
ATOM     20  O   UNL     1       0.658   2.640  21.289  0.00  0.00    +0.000 OA
ATOM     21  H   UNL     1       1.007   2.507  22.186  0.00  0.00    +0.000 HD
ENDBRANCH   6  20
BRANCH   1  22
ATOM     22  C   UNL     1       4.244   6.483  17.317  0.00  0.00    +0.000 C 
BRANCH  22  28
ATOM     23  C   UNL     1       8.355   9.376  17.602  0.00  0.00    +0.000 C 
ATOM     24  C   UNL     1       7.705   8.060  17.908  0.00  0.00    +0.000 A 
ATOM     25  C   UNL     1       8.416   6.976  18.426  0.00  0.00    +0.000 A 
ATOM     26  C   UNL     1       7.766   5.754  18.615  0.00  0.00    +0.000 A 
ATOM     27  C   UNL     1       6.417   5.601  18.266  0.00  0.00    +0.000 A 
ATOM     28  C   UNL     1       5.687   6.674  17.741  0.00  0.00    +0.000 A 
ATOM     29  C   UNL     1       6.338   7.905  17.595  0.00  0.00    +0.000 A 
ENDBRANCH  22  28
ENDBRANCH   1  22
TORSDOF 3
ENDMDL
MODEL 5
REMARK VINA RESULT:      -8.8      1.349      1.833
REMARK  Name = 
REMARK  4 active torsions:
REMARK  status: ('A' for Active; 'I' for Inactive)
REMARK    1  A    between atoms: C_1  and  C_2
REMARK    2  A    between atoms: C_6  and  C_7
REMARK    3  A    between atoms: C_7  and  N_8
REMARK    4  A    between atoms: C_13  and  O_14
REMARK                            x       y       z     vdW  Elec       q    Type
REMARK                         _______ _______ _______ _____ _____    ______ ____
ROOT
ATOM      1  N   UNL     1       3.674   5.961  17.691  0.00  0.00    +0.000 N 
ATOM      2  C   UNL     1       2.910   6.926  18.338  0.00  0.00    +0.000 A 
ATOM      3  C   UNL     1       2.234   6.276  19.351  0.00  0.00    +0.000 A 
ATOM      4  C   UNL     1       2.131   4.926  18.949  0.00  0.00    +0.000 A 
ATOM      5  C   UNL     1       1.232   3.890  19.294  0.00  0.00    +0.000 A 
ATOM      6  C   UNL     1       1.305   2.693  18.590  0.00  0.00    +0.000 A 
ATOM      7  C   UNL     1       2.290   2.469  17.640  0.00  0.00    +0.000 A 
ATOM      8  C   UNL     1       3.216   3.471  17.314  0.00  0.00    +0.000 A 
ATOM      9  C   UNL     1       3.067   4.726  17.937  0.00  0.00    +0.000 A 
ATOM     10  C   UNL     1       1.527   6.988  20.388  0.00  0.00    +0.000 C 
ATOM     11  O   UNL     1       1.183   6.481  21.444  0.00  0.00    +0.000 OA
ATOM     12  C   UNL     1       1.125   8.372  20.027  0.00  0.00    +0.000 A 
ATOM     13  C   UNL     1       0.172   9.011  20.829  0.00  0.00    +0.000 A 
ATOM     14  C   UNL     1      -0.518  10.107  20.324  0.00  0.00    +0.000 A 
ATOM     15  C   UNL     1      -0.272  10.536  19.019  0.00  0.00    +0.000 A 
ATOM     16  C   UNL     1       0.769   9.972  18.264  0.00  0.00    +0.000 A 
ATOM     17  C   UNL     1       1.524   8.921  18.797  0.00  0.00    +0.000 A 
ATOM     18  C   UNL     1       2.703   8.334  18.060  0.00  0.00    +0.000 C 
ATOM     19  O   UNL     1       3.353   9.011  17.283  0.00  0.00    +0.000 OA
ENDROOT
BRANCH   6  20
ATOM     20  O   UNL     1       0.375   1.712  18.790  0.00  0.00    +0.000 OA
ATOM     21  H   UNL     1       0.343   1.514  19.742  0.00  0.00    +0.000 HD
ENDBRANCH   6  20
BRANCH   1  22
ATOM     22  C   UNL     1       4.731   6.196  16.710  0.00  0.00    +0.000 C 
BRANCH  22  28
ATOM     23  C   UNL     1       8.401   5.385  20.062  0.00  0.00    +0.000 C 
ATOM     24  C   UNL     1       7.861   6.235  18.949  0.00  0.00    +0.000 A 
ATOM     25  C   UNL     1       8.447   7.447  18.582  0.00  0.00    +0.000 A 
ATOM     26  C   UNL     1       7.849   8.227  17.589  0.00  0.00    +0.000 A 
ATOM     27  C   UNL     1       6.656   7.815  16.980  0.00  0.00    +0.000 A 
ATOM     28  C   UNL     1       6.049   6.605  17.337  0.00  0.00    +0.000 A 
ATOM     29  C   UNL     1       6.681   5.812  18.303  0.00  0.00    +0.000 A 
ENDBRANCH  22  28
ENDBRANCH   1  22
TORSDOF 3
ENDMDL
MODEL 6
REMARK VINA RESULT:      -8.5      1.540      2.013
REMARK  Name = 
REMARK  4 active torsions:
REMARK  status: ('A' for Active; 'I' for Inactive)
REMARK    1  A    between atoms: C_1  and  C_2
REMARK    2  A    between atoms: C_6  and  C_7
REMARK    3  A    between atoms: C_7  and  N_8
REMARK    4  A    between atoms: C_13  and  O_14
REMARK                            x       y       z     vdW  Elec       q    Type
REMARK                         _______ _______ _______ _____ _____    ______ ____
ROOT
ATOM      1  N   UNL     1       3.699   5.968  17.776  0.00  0.00    +0.000 N 
ATOM      2  C   UNL     1       2.913   6.936  18.390  0.00  0.00    +0.000 A 
ATOM      3  C   UNL     1       2.196   6.290  19.377  0.00  0.00    +0.000 A 
ATOM      4  C   UNL     1       2.107   4.939  18.976  0.00  0.00    +0.000 A 
ATOM      5  C   UNL     1       1.194   3.906  19.288  0.00  0.00    +0.000 A 
ATOM      6  C   UNL     1       1.291   2.706  18.590  0.00  0.00    +0.000 A 
ATOM      7  C   UNL     1       2.312   2.479  17.680  0.00  0.00    +0.000 A 
ATOM      8  C   UNL     1       3.252   3.478  17.388  0.00  0.00    +0.000 A 
ATOM      9  C   UNL     1       3.081   4.735  18.001  0.00  0.00    +0.000 A 
ATOM     10  C   UNL     1       1.451   7.006  20.384  0.00  0.00    +0.000 C 
ATOM     11  O   UNL     1       1.065   6.502  21.428  0.00  0.00    +0.000 OA
ATOM     12  C   UNL     1       1.066   8.390  20.004  0.00  0.00    +0.000 A 
ATOM     13  C   UNL     1       0.084   9.032  20.766  0.00  0.00    +0.000 A 
ATOM     14  C   UNL     1      -0.584  10.129  20.232  0.00  0.00    +0.000 A 
ATOM     15  C   UNL     1      -0.287  10.553  18.936  0.00  0.00    +0.000 A 
ATOM     16  C   UNL     1       0.782   9.985  18.224  0.00  0.00    +0.000 A 
ATOM     17  C   UNL     1       1.513   8.935  18.789  0.00  0.00    +0.000 A 
ATOM     18  C   UNL     1       2.720   8.343  18.100  0.00  0.00    +0.000 C 
ATOM     19  O   UNL     1       3.401   9.017  17.348  0.00  0.00    +0.000 OA
ENDROOT
BRANCH   6  20
ATOM     20  O   UNL     1       0.353   1.727  18.757  0.00  0.00    +0.000 OA
ATOM     21  H   UNL     1       0.342   1.178  17.955  0.00  0.00    +0.000 HD
ENDBRANCH   6  20
BRANCH   1  22
ATOM     22  C   UNL     1       4.795   6.198  16.837  0.00  0.00    +0.000 C 
BRANCH  22  28
ATOM     23  C   UNL     1       8.398   9.635  17.585  0.00  0.00    +0.000 C 
ATOM     24  C   UNL     1       7.851   8.276  17.911  0.00  0.00    +0.000 A 
ATOM     25  C   UNL     1       8.555   7.352  18.684  0.00  0.00    +0.000 A 
ATOM     26  C   UNL     1       8.022   6.075  18.884  0.00  0.00    +0.000 A 
ATOM     27  C   UNL     1       6.804   5.710  18.295  0.00  0.00    +0.000 A 
ATOM     28  C   UNL     1       6.084   6.621  17.512  0.00  0.00    +0.000 A 
ATOM     29  C   UNL     1       6.608   7.910  17.354  0.00  0.00    +0.000 A 
ENDBRANCH  22  28
ENDBRANCH   1  22
TORSDOF 3
ENDMDL
MODEL 7
REMARK VINA RESULT:      -8.2      2.756      8.284
REMARK  Name = 
REMARK  4 active torsions:
REMARK  status: ('A' for Active; 'I' for Inactive)
REMARK    1  A    between atoms: C_1  and  C_2
REMARK    2  A    between atoms: C_6  and  C_7
REMARK    3  A    between atoms: C_7  and  N_8
REMARK    4  A    between atoms: C_13  and  O_14
REMARK                            x       y       z     vdW  Elec       q    Type
REMARK                         _______ _______ _______ _____ _____    ______ ____
ROOT
ATOM      1  N   UNL     1      -0.535  10.796  20.767  0.00  0.00    +0.000 N 
ATOM      2  C   UNL     1       0.376   9.807  20.411  0.00  0.00    +0.000 A 
ATOM      3  C   UNL     1       0.521   9.885  19.041  0.00  0.00    +0.000 A 
ATOM      4  C   UNL     1      -0.670  10.465  18.552  0.00  0.00    +0.000 A 
ATOM      5  C   UNL     1      -1.309  10.421  17.292  0.00  0.00    +0.000 A 
ATOM      6  C   UNL     1      -2.578  10.980  17.177  0.00  0.00    +0.000 A 
ATOM      7  C   UNL     1      -3.172  11.653  18.234  0.00  0.00    +0.000 A 
ATOM      8  C   UNL     1      -2.534  11.742  19.480  0.00  0.00    +0.000 A 
ATOM      9  C   UNL     1      -1.305  11.070  19.634  0.00  0.00    +0.000 A 
ATOM     10  C   UNL     1       1.563   9.179  18.335  0.00  0.00    +0.000 C 
ATOM     11  O   UNL     1       1.912   9.449  17.196  0.00  0.00    +0.000 OA
ATOM     12  C   UNL     1       2.105   7.995  19.050  0.00  0.00    +0.000 A 
ATOM     13  C   UNL     1       2.870   7.078  18.320  0.00  0.00    +0.000 A 
ATOM     14  C   UNL     1       3.052   5.793  18.820  0.00  0.00    +0.000 A 
ATOM     15  C   UNL     1       2.448   5.428  20.023  0.00  0.00    +0.000 A 
ATOM     16  C   UNL     1       1.787   6.385  20.811  0.00  0.00    +0.000 A 
ATOM     17  C   UNL     1       1.670   7.702  20.353  0.00  0.00    +0.000 A 
ATOM     18  C   UNL     1       1.040   8.785  21.195  0.00  0.00    +0.000 C 
ATOM     19  O   UNL     1       1.075   8.729  22.412  0.00  0.00    +0.000 OA
ENDROOT
BRANCH   6  20
ATOM     20  O   UNL     1      -3.294  10.846  16.021  0.00  0.00    +0.000 OA
ATOM     21  H   UNL     1      -4.003  11.511  16.024  0.00  0.00    +0.000 HD
ENDBRANCH   6  20
BRANCH   1  22
ATOM     22  C   UNL     1      -0.836  11.261  22.119  0.00  0.00    +0.000 C 
BRANCH  22  28
ATOM     23  C   UNL     1       1.867  15.386  21.101  0.00  0.00    +0.000 C 
ATOM     24  C   UNL     1       0.707  14.775  21.832  0.00  0.00    +0.000 A 
ATOM     25  C   UNL     1      -0.035  15.480  22.780  0.00  0.00    +0.000 A 
ATOM     26  C   UNL     1      -1.053  14.827  23.481  0.00  0.00    +0.000 A 
ATOM     27  C   UNL     1      -1.316  13.469  23.258  0.00  0.00    +0.000 A 
ATOM     28  C   UNL     1      -0.579  12.742  22.314  0.00  0.00    +0.000 A 
ATOM     29  C   UNL     1       0.409  13.418  21.589  0.00  0.00    +0.000 A 
ENDBRANCH  22  28
ENDBRANCH   1  22
TORSDOF 3
ENDMDL
MODEL 8
REMARK VINA RESULT:      -8.2      2.742      8.453
REMARK  Name = 
REMARK  4 active torsions:
REMARK  status: ('A' for Active; 'I' for Inactive)
REMARK    1  A    between atoms: C_1  and  C_2
REMARK    2  A    between atoms: C_6  and  C_7
REMARK    3  A    between atoms: C_7  and  N_8
REMARK    4  A    between atoms: C_13  and  O_14
REMARK                            x       y       z     vdW  Elec       q    Type
REMARK                         _______ _______ _______ _____ _____    ______ ____
ROOT
ATOM      1  N   UNL     1      -0.550  10.771  20.773  0.00  0.00    +0.000 N 
ATOM      2  C   UNL     1       0.366   9.788  20.413  0.00  0.00    +0.000 A 
ATOM      3  C   UNL     1       0.529   9.887  19.046  0.00  0.00    +0.000 A 
ATOM      4  C   UNL     1      -0.658  10.473  18.552  0.00  0.00    +0.000 A 
ATOM      5  C   UNL     1      -1.281  10.448  17.283  0.00  0.00    +0.000 A 
ATOM      6  C   UNL     1      -2.549  11.007  17.161  0.00  0.00    +0.000 A 
ATOM      7  C   UNL     1      -3.157  11.663  18.221  0.00  0.00    +0.000 A 
ATOM      8  C   UNL     1      -2.534  11.734  19.475  0.00  0.00    +0.000 A 
ATOM      9  C   UNL     1      -1.307  11.061  19.635  0.00  0.00    +0.000 A 
ATOM     10  C   UNL     1       1.580   9.193  18.342  0.00  0.00    +0.000 C 
ATOM     11  O   UNL     1       1.943   9.481  17.212  0.00  0.00    +0.000 OA
ATOM     12  C   UNL     1       2.114   7.999  19.046  0.00  0.00    +0.000 A 
ATOM     13  C   UNL     1       2.889   7.094  18.311  0.00  0.00    +0.000 A 
ATOM     14  C   UNL     1       3.067   5.802  18.793  0.00  0.00    +0.000 A 
ATOM     15  C   UNL     1       2.449   5.418  19.984  0.00  0.00    +0.000 A 
ATOM     16  C   UNL     1       1.777   6.361  20.778  0.00  0.00    +0.000 A 
ATOM     17  C   UNL     1       1.664   7.685  20.339  0.00  0.00    +0.000 A 
ATOM     18  C   UNL     1       1.022   8.755  21.190  0.00  0.00    +0.000 C 
ATOM     19  O   UNL     1       1.042   8.680  22.405  0.00  0.00    +0.000 OA
ENDROOT
BRANCH   6  20
ATOM     20  O   UNL     1      -3.250  10.890  15.994  0.00  0.00    +0.000 OA
ATOM     21  H   UNL     1      -4.147  10.582  16.209  0.00  0.00    +0.000 HD
ENDBRANCH   6  20
BRANCH   1  22
ATOM     22  C   UNL     1      -0.868  11.215  22.128  0.00  0.00    +0.000 C 
BRANCH  22  28
ATOM     23  C   UNL     1      -1.984  15.554  24.425  0.00  0.00    +0.000 C 
ATOM     24  C   UNL     1      -1.097  14.816  23.467  0.00  0.00    +0.000 A 
ATOM     25  C   UNL     1      -0.138  15.461  22.685  0.00  0.00    +0.000 A 
ATOM     26  C   UNL     1       0.602  14.725  21.756  0.00  0.00    +0.000 A 
ATOM     27  C   UNL     1       0.371  13.353  21.587  0.00  0.00    +0.000 A 
ATOM     28  C   UNL     1      -0.589  12.687  22.357  0.00  0.00    +0.000 A 
ATOM     29  C   UNL     1      -1.294  13.427  23.314  0.00  0.00    +0.000 A 
ENDBRANCH  22  28
ENDBRANCH   1  22
TORSDOF 3
ENDMDL
MODEL 9
REMARK VINA RESULT:      -7.9      5.315      8.739
REMARK  Name = 
REMARK  4 active torsions:
REMARK  status: ('A' for Active; 'I' for Inactive)
REMARK    1  A    between atoms: C_1  and  C_2
REMARK    2  A    between atoms: C_6  and  C_7
REMARK    3  A    between atoms: C_7  and  N_8
REMARK    4  A    between atoms: C_13  and  O_14
REMARK                            x       y       z     vdW  Elec       q    Type
REMARK                         _______ _______ _______ _____ _____    ______ ____
ROOT
ATOM      1  N   UNL     1      -2.440  12.164  19.541  0.00  0.00    +0.000 N 
ATOM      2  C   UNL     1      -3.612  12.792  19.948  0.00  0.00    +0.000 A 
ATOM      3  C   UNL     1      -4.650  12.109  19.347  0.00  0.00    +0.000 A 
ATOM      4  C   UNL     1      -4.106  11.508  18.190  0.00  0.00    +0.000 A 
ATOM      5  C   UNL     1      -4.686  11.068  16.978  0.00  0.00    +0.000 A 
ATOM      6  C   UNL     1      -3.839  10.657  15.953  0.00  0.00    +0.000 A 
ATOM      7  C   UNL     1      -2.466  10.582  16.134  0.00  0.00    +0.000 A 
ATOM      8  C   UNL     1      -1.877  10.976  17.345  0.00  0.00    +0.000 A 
ATOM      9  C   UNL     1      -2.722  11.509  18.339  0.00  0.00    +0.000 A 
ATOM     10  C   UNL     1      -6.028  12.318  19.719  0.00  0.00    +0.000 C 
ATOM     11  O   UNL     1      -6.930  11.542  19.442  0.00  0.00    +0.000 OA
ATOM     12  C   UNL     1      -6.306  13.628  20.362  0.00  0.00    +0.000 A 
ATOM     13  C   UNL     1      -7.638  14.045  20.459  0.00  0.00    +0.000 A 
ATOM     14  C   UNL     1      -7.917  15.390  20.672  0.00  0.00    +0.000 A 
ATOM     15  C   UNL     1      -6.869  16.307  20.758  0.00  0.00    +0.000 A 
ATOM     16  C   UNL     1      -5.535  15.869  20.784  0.00  0.00    +0.000 A 
ATOM     17  C   UNL     1      -5.248  14.506  20.653  0.00  0.00    +0.000 A 
ATOM     18  C   UNL     1      -3.838  13.974  20.755  0.00  0.00    +0.000 C 
ATOM     19  O   UNL     1      -3.002  14.551  21.426  0.00  0.00    +0.000 OA
ENDROOT
BRANCH   6  20
ATOM     20  O   UNL     1      -4.339  10.351  14.719  0.00  0.00    +0.000 OA
ATOM     21  H   UNL     1      -4.761  11.149  14.357  0.00  0.00    +0.000 HD
ENDBRANCH   6  20
BRANCH   1  22
ATOM     22  C   UNL     1      -1.101  12.371  20.090  0.00  0.00    +0.000 C 
BRANCH  22  28
ATOM     23  C   UNL     1       1.272   8.031  21.033  0.00  0.00    +0.000 C 
ATOM     24  C   UNL     1       0.476   9.186  21.566  0.00  0.00    +0.000 A 
ATOM     25  C   UNL     1      -0.006   9.221  22.875  0.00  0.00    +0.000 A 
ATOM     26  C   UNL     1      -0.808  10.290  23.284  0.00  0.00    +0.000 A 
ATOM     27  C   UNL     1      -1.150  11.310  22.387  0.00  0.00    +0.000 A 
ATOM     28  C   UNL     1      -0.681  11.291  21.068  0.00  0.00    +0.000 A 
ATOM     29  C   UNL     1       0.155  10.237  20.681  0.00  0.00    +0.000 A 
ENDBRANCH  22  28
ENDBRANCH   1  22
TORSDOF 3
ENDMDL
