MODEL 1
REMARK VINA RESULT:      -9.1      0.000      0.000
REMARK  Name = 
REMARK  4 active torsions:
REMARK  status: ('A' for Active; 'I' for Inactive)
REMARK    1  A    between atoms: C_2  and  C_27
REMARK    2  A    between atoms: C_8  and  C_9
REMARK    3  A    between atoms: C_13  and  N_14
REMARK    4  A    between atoms: N_14  and  C_15
REMARK                            x       y       z     vdW  Elec       q    Type
REMARK                         _______ _______ _______ _____ _____    ______ ____
ROOT
ATOM      1  O   UNL     1       3.544   5.885  18.149  0.00  0.00    +0.000 OA
ATOM      2  C   UNL     1       3.133   5.525  19.249  0.00  0.00    +0.000 C 
ATOM      3  N   UNL     1       2.334   6.279  20.098  0.00  0.00    +0.000 N 
ATOM      4  C   UNL     1       1.873   7.572  19.783  0.00  0.00    +0.000 A 
ATOM      5  C   UNL     1       1.130   8.280  20.726  0.00  0.00    +0.000 A 
ATOM      6  C   UNL     1       0.701   9.598  20.435  0.00  0.00    +0.000 A 
ATOM      7  C   UNL     1      -0.038  10.389  21.347  0.00  0.00    +0.000 A 
ATOM      8  C   UNL     1      -0.434  11.709  21.049  0.00  0.00    +0.000 A 
ATOM      9  C   UNL     1      -0.055  12.224  19.794  0.00  0.00    +0.000 A 
ATOM     10  C   UNL     1       0.662  11.455  18.875  0.00  0.00    +0.000 A 
ATOM     11  C   UNL     1       1.039  10.148  19.192  0.00  0.00    +0.000 A 
ATOM     12  C   UNL     1       1.763   9.355  18.313  0.00  0.00    +0.000 A 
ATOM     13  N   UNL     1       2.169   8.102  18.586  0.00  0.00    +0.000 NA
ATOM     14  H   UNL     1       2.116   5.917  21.012  0.00  0.00    +0.000 HD
ENDROOT
BRANCH   8  15
ATOM     15  C   UNL     1      -1.188  12.523  22.030  0.00  0.00    +0.000 A 
ATOM     16  C   UNL     1      -0.618  13.591  22.725  0.00  0.00    +0.000 A 
ATOM     17  N   UNL     1      -1.271  14.293  23.678  0.00  0.00    +0.000 NA
ATOM     18  C   UNL     1      -2.540  13.882  23.909  0.00  0.00    +0.000 A 
ATOM     19  C   UNL     1      -3.178  12.862  23.195  0.00  0.00    +0.000 A 
ATOM     20  N   UNL     1      -2.488  12.173  22.255  0.00  0.00    +0.000 NA
BRANCH  19  21
ATOM     21  N   UNL     1      -4.501  12.513  23.530  0.00  0.00    +0.000 N 
ATOM     22  H   UNL     1      -4.555  12.174  24.485  0.00  0.00    +0.000 HD
BRANCH  21  23
ATOM     23  C   UNL     1      -5.538  13.514  23.231  0.00  0.00    +0.000 C 
ATOM     24  C   UNL     1      -6.844  13.229  23.986  0.00  0.00    +0.000 C 
ATOM     25  C   UNL     1      -7.616  12.045  23.408  0.00  0.00    +0.000 C 
ATOM     26  N   UNL     1      -7.883  12.192  21.980  0.00  0.00    +0.000 NA
ATOM     27  C   UNL     1      -6.653  12.388  21.213  0.00  0.00    +0.000 C 
ATOM     28  C   UNL     1      -5.808  13.557  21.718  0.00  0.00    +0.000 C 
ATOM     29  H   UNL     1      -8.515  12.978  21.826  0.00  0.00    +0.000 HD
ENDBRANCH  21  23
ENDBRANCH  19  21
ENDBRANCH   8  15
BRANCH   2  30
ATOM     30  C   UNL     1       3.552   4.160  19.822  0.00  0.00    +0.000 C 
ATOM     31  C   UNL     1       2.567   3.599  20.856  0.00  0.00    +0.000 C 
ATOM     32  C   UNL     1       1.261   3.116  20.230  0.00  0.00    +0.000 C 
ATOM     33  C   UNL     1       1.491   2.121  19.096  0.00  0.00    +0.000 C 
ATOM     34  C   UNL     1       2.469   2.652  18.055  0.00  0.00    +0.000 C 
ATOM     35  C   UNL     1       3.776   3.132  18.694  0.00  0.00    +0.000 C 
ENDBRANCH   2  30
TORSDOF 4
ENDMDL
MODEL 2
REMARK VINA RESULT:      -8.9      2.920     11.025
REMARK  Name = 
REMARK  4 active torsions:
REMARK  status: ('A' for Active; 'I' for Inactive)
REMARK    1  A    between atoms: C_2  and  C_27
REMARK    2  A    between atoms: C_8  and  C_9
REMARK    3  A    between atoms: C_13  and  N_14
REMARK    4  A    between atoms: N_14  and  C_15
REMARK                            x       y       z     vdW  Elec       q    Type
REMARK                         _______ _______ _______ _____ _____    ______ ____
ROOT
ATOM      1  O   UNL     1      -2.077  14.042  21.997  0.00  0.00    +0.000 OA
ATOM      2  C   UNL     1      -2.100  13.268  22.951  0.00  0.00    +0.000 C 
ATOM      3  N   UNL     1      -1.495  12.020  22.991  0.00  0.00    +0.000 N 
ATOM      4  C   UNL     1      -0.748  11.485  21.922  0.00  0.00    +0.000 A 
ATOM      5  C   UNL     1      -0.234  10.195  22.029  0.00  0.00    +0.000 A 
ATOM      6  C   UNL     1       0.480   9.633  20.940  0.00  0.00    +0.000 A 
ATOM      7  C   UNL     1       1.015   8.323  20.963  0.00  0.00    +0.000 A 
ATOM      8  C   UNL     1       1.699   7.771  19.861  0.00  0.00    +0.000 A 
ATOM      9  C   UNL     1       1.826   8.581  18.715  0.00  0.00    +0.000 A 
ATOM     10  C   UNL     1       1.317   9.880  18.678  0.00  0.00    +0.000 A 
ATOM     11  C   UNL     1       0.647  10.406  19.785  0.00  0.00    +0.000 A 
ATOM     12  C   UNL     1       0.115  11.688  19.785  0.00  0.00    +0.000 A 
ATOM     13  N   UNL     1      -0.560  12.224  20.819  0.00  0.00    +0.000 NA
ATOM     14  H   UNL     1      -1.639  11.433  23.797  0.00  0.00    +0.000 HD
ENDROOT
BRANCH   8  15
ATOM     15  C   UNL     1       2.230   6.390  19.901  0.00  0.00    +0.000 A 
ATOM     16  C   UNL     1       1.795   5.437  20.822  0.00  0.00    +0.000 A 
ATOM     17  N   UNL     1       2.326   4.198  20.921  0.00  0.00    +0.000 NA
ATOM     18  C   UNL     1       3.323   3.941  20.041  0.00  0.00    +0.000 A 
ATOM     19  C   UNL     1       3.751   4.837  19.056  0.00  0.00    +0.000 A 
ATOM     20  N   UNL     1       3.204   6.075  18.995  0.00  0.00    +0.000 NA
BRANCH  19  21
ATOM     21  N   UNL     1       4.806   4.465  18.201  0.00  0.00    +0.000 N 
ATOM     22  H   UNL     1       4.984   3.467  18.258  0.00  0.00    +0.000 HD
BRANCH  21  23
ATOM     23  C   UNL     1       4.720   4.940  16.810  0.00  0.00    +0.000 C 
ATOM     24  C   UNL     1       5.586   4.098  15.862  0.00  0.00    +0.000 C 
ATOM     25  C   UNL     1       7.078   4.380  16.017  0.00  0.00    +0.000 C 
ATOM     26  N   UNL     1       7.401   5.796  15.868  0.00  0.00    +0.000 NA
ATOM     27  C   UNL     1       6.652   6.627  16.809  0.00  0.00    +0.000 C 
ATOM     28  C   UNL     1       5.140   6.416  16.729  0.00  0.00    +0.000 C 
ATOM     29  H   UNL     1       7.207   6.096  14.913  0.00  0.00    +0.000 HD
ENDBRANCH  21  23
ENDBRANCH  19  21
ENDBRANCH   8  15
BRANCH   2  30
ATOM     30  C   UNL     1      -2.900  13.624  24.216  0.00  0.00    +0.000 C 
ATOM     31  C   UNL     1      -3.416  15.068  24.230  0.00  0.00    +0.000 C 
ATOM     32  C   UNL     1      -4.563  15.298  23.248  0.00  0.00    +0.000 C 
ATOM     33  C   UNL     1      -5.705  14.305  23.442  0.00  0.00    +0.000 C 
ATOM     34  C   UNL     1      -5.218  12.861  23.436  0.00  0.00    +0.000 C 
ATOM     35  C   UNL     1      -4.071  12.642  24.425  0.00  0.00    +0.000 C 
ENDBRANCH   2  30
TORSDOF 4
ENDMDL
MODEL 3
REMARK VINA RESULT:      -8.8      0.765      1.136
REMARK  Name = 
REMARK  4 active torsions:
REMARK  status: ('A' for Active; 'I' for Inactive)
REMARK    1  A    between atoms: C_2  and  C_27
REMARK    2  A    between atoms: C_8  and  C_9
REMARK    3  A    between atoms: C_13  and  N_14
REMARK    4  A    between atoms: N_14  and  C_15
REMARK                            x       y       z     vdW  Elec       q    Type
REMARK                         _______ _______ _______ _____ _____    ______ ____
ROOT
ATOM      1  O   UNL     1       3.465   5.903  18.514  0.00  0.00    +0.000 OA
ATOM      2  C   UNL     1       3.006   5.540  19.594  0.00  0.00    +0.000 C 
ATOM      3  N   UNL     1       2.186   6.298  20.419  0.00  0.00    +0.000 N 
ATOM      4  C   UNL     1       1.758   7.602  20.099  0.00  0.00    +0.000 A 
ATOM      5  C   UNL     1       0.991   8.311  21.020  0.00  0.00    +0.000 A 
ATOM      6  C   UNL     1       0.594   9.640  20.726  0.00  0.00    +0.000 A 
ATOM      7  C   UNL     1      -0.167  10.433  21.617  0.00  0.00    +0.000 A 
ATOM      8  C   UNL     1      -0.530  11.762  21.318  0.00  0.00    +0.000 A 
ATOM      9  C   UNL     1      -0.095  12.283  20.084  0.00  0.00    +0.000 A 
ATOM     10  C   UNL     1       0.645  11.513  19.186  0.00  0.00    +0.000 A 
ATOM     11  C   UNL     1       0.989  10.196  19.504  0.00  0.00    +0.000 A 
ATOM     12  C   UNL     1       1.734   9.400  18.645  0.00  0.00    +0.000 A 
ATOM     13  N   UNL     1       2.109   8.138  18.921  0.00  0.00    +0.000 NA
ATOM     14  H   UNL     1       1.927   5.930  21.320  0.00  0.00    +0.000 HD
ENDROOT
BRANCH   8  15
ATOM     15  C   UNL     1      -1.309  12.579  22.277  0.00  0.00    +0.000 A 
ATOM     16  C   UNL     1      -0.738  13.594  23.046  0.00  0.00    +0.000 A 
ATOM     17  N   UNL     1      -1.419  14.294  23.980  0.00  0.00    +0.000 NA
ATOM     18  C   UNL     1      -2.719  13.939  24.113  0.00  0.00    +0.000 A 
ATOM     19  C   UNL     1      -3.355  12.975  23.323  0.00  0.00    +0.000 A 
ATOM     20  N   UNL     1      -2.637  12.285  22.404  0.00  0.00    +0.000 NA
BRANCH  19  21
ATOM     21  N   UNL     1      -4.711  12.680  23.558  0.00  0.00    +0.000 N 
ATOM     22  H   UNL     1      -5.015  13.061  24.449  0.00  0.00    +0.000 HD
BRANCH  21  23
ATOM     23  C   UNL     1      -5.648  12.990  22.466  0.00  0.00    +0.000 C 
ATOM     24  C   UNL     1      -5.777  14.503  22.234  0.00  0.00    +0.000 C 
ATOM     25  C   UNL     1      -6.587  15.202  23.321  0.00  0.00    +0.000 C 
ATOM     26  N   UNL     1      -7.908  14.609  23.507  0.00  0.00    +0.000 NA
ATOM     27  C   UNL     1      -7.826  13.181  23.809  0.00  0.00    +0.000 C 
ATOM     28  C   UNL     1      -7.030  12.390  22.771  0.00  0.00    +0.000 C 
ATOM     29  H   UNL     1      -8.472  14.753  22.670  0.00  0.00    +0.000 HD
ENDBRANCH  21  23
ENDBRANCH  19  21
ENDBRANCH   8  15
BRANCH   2  30
ATOM     30  C   UNL     1       3.380   4.162  20.169  0.00  0.00    +0.000 C 
ATOM     31  C   UNL     1       2.344   3.605  21.152  0.00  0.00    +0.000 C 
ATOM     32  C   UNL     1       1.059   3.147  20.465  0.00  0.00    +0.000 C 
ATOM     33  C   UNL     1       1.324   2.161  19.331  0.00  0.00    +0.000 C 
ATOM     34  C   UNL     1       2.353   2.689  18.339  0.00  0.00    +0.000 C 
ATOM     35  C   UNL     1       3.638   3.143  19.039  0.00  0.00    +0.000 C 
ENDBRANCH   2  30
TORSDOF 4
ENDMDL
MODEL 4
REMARK VINA RESULT:      -8.6      2.939     10.991
REMARK  Name = 
REMARK  4 active torsions:
REMARK  status: ('A' for Active; 'I' for Inactive)
REMARK    1  A    between atoms: C_2  and  C_27
REMARK    2  A    between atoms: C_8  and  C_9
REMARK    3  A    between atoms: C_13  and  N_14
REMARK    4  A    between atoms: N_14  and  C_15
REMARK                            x       y       z     vdW  Elec       q    Type
REMARK                         _______ _______ _______ _____ _____    ______ ____
ROOT
ATOM      1  O   UNL     1      -1.737  14.140  21.395  0.00  0.00    +0.000 OA
ATOM      2  C   UNL     1      -1.748  13.429  22.396  0.00  0.00    +0.000 C 
ATOM      3  N   UNL     1      -1.156  12.178  22.504  0.00  0.00    +0.000 N 
ATOM      4  C   UNL     1      -0.438  11.568  21.456  0.00  0.00    +0.000 A 
ATOM      5  C   UNL     1       0.064  10.280  21.634  0.00  0.00    +0.000 A 
ATOM      6  C   UNL     1       0.748   9.641  20.570  0.00  0.00    +0.000 A 
ATOM      7  C   UNL     1       1.269   8.329  20.665  0.00  0.00    +0.000 A 
ATOM      8  C   UNL     1       1.923   7.700  19.586  0.00  0.00    +0.000 A 
ATOM      9  C   UNL     1       2.035   8.433  18.389  0.00  0.00    +0.000 A 
ATOM     10  C   UNL     1       1.540   9.733  18.279  0.00  0.00    +0.000 A 
ATOM     11  C   UNL     1       0.899  10.337  19.364  0.00  0.00    +0.000 A 
ATOM     12  C   UNL     1       0.381  11.623  19.293  0.00  0.00    +0.000 A 
ATOM     13  N   UNL     1      -0.265  12.232  20.304  0.00  0.00    +0.000 NA
ATOM     14  H   UNL     1      -1.289  11.646  23.348  0.00  0.00    +0.000 HD
ENDROOT
BRANCH   8  15
ATOM     15  C   UNL     1       2.441   6.317  19.704  0.00  0.00    +0.000 A 
ATOM     16  C   UNL     1       1.944   5.398  20.629  0.00  0.00    +0.000 A 
ATOM     17  N   UNL     1       2.458   4.160  20.800  0.00  0.00    +0.000 NA
ATOM     18  C   UNL     1       3.503   3.868  19.990  0.00  0.00    +0.000 A 
ATOM     19  C   UNL     1       3.997   4.728  19.004  0.00  0.00    +0.000 A 
ATOM     20  N   UNL     1       3.464   5.967  18.869  0.00  0.00    +0.000 NA
BRANCH  19  21
ATOM     21  N   UNL     1       5.098   4.322  18.226  0.00  0.00    +0.000 N 
ATOM     22  H   UNL     1       4.790   3.828  17.394  0.00  0.00    +0.000 HD
BRANCH  21  23
ATOM     23  C   UNL     1       6.104   5.354  17.925  0.00  0.00    +0.000 C 
ATOM     24  C   UNL     1       5.528   6.481  17.057  0.00  0.00    +0.000 C 
ATOM     25  C   UNL     1       5.315   6.061  15.605  0.00  0.00    +0.000 C 
ATOM     26  N   UNL     1       6.527   5.525  14.992  0.00  0.00    +0.000 NA
ATOM     27  C   UNL     1       7.066   4.396  15.748  0.00  0.00    +0.000 C 
ATOM     28  C   UNL     1       7.315   4.720  17.221  0.00  0.00    +0.000 C 
ATOM     29  H   UNL     1       7.231   6.259  14.920  0.00  0.00    +0.000 HD
ENDBRANCH  21  23
ENDBRANCH  19  21
ENDBRANCH   8  15
BRANCH   2  30
ATOM     30  C   UNL     1      -2.517  13.875  23.653  0.00  0.00    +0.000 C 
ATOM     31  C   UNL     1      -3.142  15.269  23.527  0.00  0.00    +0.000 C 
ATOM     32  C   UNL     1      -4.345  15.298  22.586  0.00  0.00    +0.000 C 
ATOM     33  C   UNL     1      -5.397  14.256  22.954  0.00  0.00    +0.000 C 
ATOM     34  C   UNL     1      -4.801  12.860  23.088  0.00  0.00    +0.000 C 
ATOM     35  C   UNL     1      -3.598  12.843  24.035  0.00  0.00    +0.000 C 
ENDBRANCH   2  30
TORSDOF 4
ENDMDL
MODEL 5
REMARK VINA RESULT:      -8.4      3.047     11.155
REMARK  Name = 
REMARK  4 active torsions:
REMARK  status: ('A' for Active; 'I' for Inactive)
REMARK    1  A    between atoms: C_2  and  C_27
REMARK    2  A    between atoms: C_8  and  C_9
REMARK    3  A    between atoms: C_13  and  N_14
REMARK    4  A    between atoms: N_14  and  C_15
REMARK                            x       y       z     vdW  Elec       q    Type
REMARK                         _______ _______ _______ _____ _____    ______ ____
ROOT
ATOM      1  O   UNL     1      -2.218  14.768  22.257  0.00  0.00    +0.000 OA
ATOM      2  C   UNL     1      -2.252  13.894  23.119  0.00  0.00    +0.000 C 
ATOM      3  N   UNL     1      -1.650  12.646  23.028  0.00  0.00    +0.000 N 
ATOM      4  C   UNL     1      -0.895  12.230  21.913  0.00  0.00    +0.000 A 
ATOM      5  C   UNL     1      -0.384  10.934  21.882  0.00  0.00    +0.000 A 
ATOM      6  C   UNL     1       0.337  10.492  20.745  0.00  0.00    +0.000 A 
ATOM      7  C   UNL     1       0.869   9.186  20.628  0.00  0.00    +0.000 A 
ATOM      8  C   UNL     1       1.562   8.756  19.478  0.00  0.00    +0.000 A 
ATOM      9  C   UNL     1       1.702   9.687  18.429  0.00  0.00    +0.000 A 
ATOM     10  C   UNL     1       1.196  10.984  18.531  0.00  0.00    +0.000 A 
ATOM     11  C   UNL     1       0.517  11.387  19.683  0.00  0.00    +0.000 A 
ATOM     12  C   UNL     1      -0.012  12.663  19.819  0.00  0.00    +0.000 A 
ATOM     13  N   UNL     1      -0.695  13.085  20.899  0.00  0.00    +0.000 NA
ATOM     14  H   UNL     1      -1.803  11.975  23.763  0.00  0.00    +0.000 HD
ENDROOT
BRANCH   8  15
ATOM     15  C   UNL     1       2.090   7.377  19.371  0.00  0.00    +0.000 A 
ATOM     16  C   UNL     1       1.909   6.417  20.367  0.00  0.00    +0.000 A 
ATOM     17  N   UNL     1       2.451   5.180  20.317  0.00  0.00    +0.000 NA
ATOM     18  C   UNL     1       3.189   4.933  19.210  0.00  0.00    +0.000 A 
ATOM     19  C   UNL     1       3.347   5.837  18.153  0.00  0.00    +0.000 A 
ATOM     20  N   UNL     1       2.799   7.072  18.244  0.00  0.00    +0.000 NA
BRANCH  19  21
ATOM     21  N   UNL     1       4.148   5.474  17.053  0.00  0.00    +0.000 N 
ATOM     22  H   UNL     1       4.430   6.295  16.526  0.00  0.00    +0.000 HD
BRANCH  21  23
ATOM     23  C   UNL     1       5.278   4.573  17.333  0.00  0.00    +0.000 C 
ATOM     24  C   UNL     1       6.508   5.337  17.842  0.00  0.00    +0.000 C 
ATOM     25  C   UNL     1       7.218   6.118  16.740  0.00  0.00    +0.000 C 
ATOM     26  N   UNL     1       7.584   5.278  15.602  0.00  0.00    +0.000 NA
ATOM     27  C   UNL     1       6.423   4.592  15.038  0.00  0.00    +0.000 C 
ATOM     28  C   UNL     1       5.643   3.778  16.070  0.00  0.00    +0.000 C 
ATOM     29  H   UNL     1       8.284   4.594  15.889  0.00  0.00    +0.000 HD
ENDBRANCH  21  23
ENDBRANCH  19  21
ENDBRANCH   8  15
BRANCH   2  30
ATOM     30  C   UNL     1      -3.062  14.111  24.410  0.00  0.00    +0.000 C 
ATOM     31  C   UNL     1      -3.852  15.425  24.424  0.00  0.00    +0.000 C 
ATOM     32  C   UNL     1      -5.054  15.407  23.482  0.00  0.00    +0.000 C 
ATOM     33  C   UNL     1      -5.971  14.213  23.732  0.00  0.00    +0.000 C 
ATOM     34  C   UNL     1      -5.211  12.893  23.726  0.00  0.00    +0.000 C 
ATOM     35  C   UNL     1      -4.010  12.923  24.675  0.00  0.00    +0.000 C 
ENDBRANCH   2  30
TORSDOF 4
ENDMDL
MODEL 6
REMARK VINA RESULT:      -8.4      0.849      1.196
REMARK  Name = 
REMARK  4 active torsions:
REMARK  status: ('A' for Active; 'I' for Inactive)
REMARK    1  A    between atoms: C_2  and  C_27
REMARK    2  A    between atoms: C_8  and  C_9
REMARK    3  A    between atoms: C_13  and  N_14
REMARK    4  A    between atoms: N_14  and  C_15
REMARK                            x       y       z     vdW  Elec       q    Type
REMARK                         _______ _______ _______ _____ _____    ______ ____
ROOT
ATOM      1  O   UNL     1       3.286   5.912  18.327  0.00  0.00    +0.000 OA
ATOM      2  C   UNL     1       2.869   5.684  19.460  0.00  0.00    +0.000 C 
ATOM      3  N   UNL     1       2.145   6.568  20.247  0.00  0.00    +0.000 N 
ATOM      4  C   UNL     1       1.776   7.860  19.822  0.00  0.00    +0.000 A 
ATOM      5  C   UNL     1       1.107   8.703  20.707  0.00  0.00    +0.000 A 
ATOM      6  C   UNL     1       0.773  10.020  20.304  0.00  0.00    +0.000 A 
ATOM      7  C   UNL     1       0.113  10.942  21.151  0.00  0.00    +0.000 A 
ATOM      8  C   UNL     1      -0.188  12.257  20.741  0.00  0.00    +0.000 A 
ATOM      9  C   UNL     1       0.206  12.629  19.440  0.00  0.00    +0.000 A 
ATOM     10  C   UNL     1       0.847  11.730  18.586  0.00  0.00    +0.000 A 
ATOM     11  C   UNL     1       1.130  10.430  19.014  0.00  0.00    +0.000 A 
ATOM     12  C   UNL     1       1.776   9.510  18.200  0.00  0.00    +0.000 A 
ATOM     13  N   UNL     1       2.090   8.258  18.580  0.00  0.00    +0.000 NA
ATOM     14  H   UNL     1       1.916   6.306  21.192  0.00  0.00    +0.000 HD
ENDROOT
BRANCH   8  15
ATOM     15  C   UNL     1      -0.860  13.210  21.653  0.00  0.00    +0.000 A 
ATOM     16  C   UNL     1      -0.167  13.991  22.578  0.00  0.00    +0.000 A 
ATOM     17  N   UNL     1      -0.773  14.807  23.469  0.00  0.00    +0.000 NA
ATOM     18  C   UNL     1      -2.125  14.817  23.393  0.00  0.00    +0.000 A 
ATOM     19  C   UNL     1      -2.864  14.105  22.442  0.00  0.00    +0.000 A 
ATOM     20  N   UNL     1      -2.221  13.288  21.572  0.00  0.00    +0.000 NA
BRANCH  19  21
ATOM     21  N   UNL     1      -4.269  14.183  22.464  0.00  0.00    +0.000 N 
ATOM     22  H   UNL     1      -4.614  14.711  21.669  0.00  0.00    +0.000 HD
BRANCH  21  23
ATOM     23  C   UNL     1      -4.994  12.915  22.651  0.00  0.00    +0.000 C 
ATOM     24  C   UNL     1      -5.935  12.614  21.476  0.00  0.00    +0.000 C 
ATOM     25  C   UNL     1      -7.182  13.493  21.476  0.00  0.00    +0.000 C 
ATOM     26  N   UNL     1      -7.916  13.427  22.737  0.00  0.00    +0.000 NA
ATOM     27  C   UNL     1      -7.073  13.783  23.877  0.00  0.00    +0.000 C 
ATOM     28  C   UNL     1      -5.793  12.953  23.963  0.00  0.00    +0.000 C 
ATOM     29  H   UNL     1      -8.294  12.488  22.868  0.00  0.00    +0.000 HD
ENDBRANCH  21  23
ENDBRANCH  19  21
ENDBRANCH   8  15
BRANCH   2  30
ATOM     30  C   UNL     1       3.194   4.345  20.148  0.00  0.00    +0.000 C 
ATOM     31  C   UNL     1       2.063   3.826  21.044  0.00  0.00    +0.000 C 
ATOM     32  C   UNL     1       0.864   3.310  20.250  0.00  0.00    +0.000 C 
ATOM     33  C   UNL     1       1.261   2.268  19.208  0.00  0.00    +0.000 C 
ATOM     34  C   UNL     1       2.386   2.758  18.304  0.00  0.00    +0.000 C 
ATOM     35  C   UNL     1       3.582   3.271  19.111  0.00  0.00    +0.000 C 
ENDBRANCH   2  30
TORSDOF 4
ENDMDL
MODEL 7
REMARK VINA RESULT:      -8.4      2.160      4.067
REMARK  Name = 
REMARK  4 active torsions:
REMARK  status: ('A' for Active; 'I' for Inactive)
REMARK    1  A    between atoms: C_2  and  C_27
REMARK    2  A    between atoms: C_8  and  C_9
REMARK    3  A    between atoms: C_13  and  N_14
REMARK    4  A    between atoms: N_14  and  C_15
REMARK                            x       y       z     vdW  Elec       q    Type
REMARK                         _______ _______ _______ _____ _____    ______ ____
ROOT
ATOM      1  O   UNL     1       3.140   5.929  18.742  0.00  0.00    +0.000 OA
ATOM      2  C   UNL     1       2.727   5.563  19.839  0.00  0.00    +0.000 C 
ATOM      3  N   UNL     1       1.941   6.319  20.698  0.00  0.00    +0.000 N 
ATOM      4  C   UNL     1       1.497   7.622  20.398  0.00  0.00    +0.000 A 
ATOM      5  C   UNL     1       0.767   8.329  21.350  0.00  0.00    +0.000 A 
ATOM      6  C   UNL     1       0.355   9.657  21.074  0.00  0.00    +0.000 A 
ATOM      7  C   UNL     1      -0.371  10.447  21.997  0.00  0.00    +0.000 A 
ATOM      8  C   UNL     1      -0.749  11.776  21.714  0.00  0.00    +0.000 A 
ATOM      9  C   UNL     1      -0.366  12.299  20.463  0.00  0.00    +0.000 A 
ATOM     10  C   UNL     1       0.338  11.531  19.534  0.00  0.00    +0.000 A 
ATOM     11  C   UNL     1       0.698  10.215  19.836  0.00  0.00    +0.000 A 
ATOM     12  C   UNL     1       1.409   9.421  18.947  0.00  0.00    +0.000 A 
ATOM     13  N   UNL     1       1.797   8.160  19.206  0.00  0.00    +0.000 NA
ATOM     14  H   UNL     1       1.719   5.950  21.609  0.00  0.00    +0.000 HD
ENDROOT
BRANCH   8  15
ATOM     15  C   UNL     1      -1.489  12.590  22.705  0.00  0.00    +0.000 A 
ATOM     16  C   UNL     1      -2.782  12.279  23.128  0.00  0.00    +0.000 A 
ATOM     17  N   UNL     1      -3.497  13.055  23.972  0.00  0.00    +0.000 NA
ATOM     18  C   UNL     1      -2.857  14.172  24.389  0.00  0.00    +0.000 A 
ATOM     19  C   UNL     1      -1.540  14.496  24.047  0.00  0.00    +0.000 A 
ATOM     20  N   UNL     1      -0.857  13.700  23.189  0.00  0.00    +0.000 NA
BRANCH  19  21
ATOM     21  N   UNL     1      -0.978  15.693  24.533  0.00  0.00    +0.000 N 
ATOM     22  H   UNL     1      -1.001  16.418  23.823  0.00  0.00    +0.000 HD
BRANCH  21  23
ATOM     23  C   UNL     1      -1.474  16.168  25.835  0.00  0.00    +0.000 C 
ATOM     24  C   UNL     1      -1.887  17.646  25.786  0.00  0.00    +0.000 C 
ATOM     25  C   UNL     1      -0.692  18.593  25.734  0.00  0.00    +0.000 C 
ATOM     26  N   UNL     1       0.250  18.371  26.828  0.00  0.00    +0.000 NA
ATOM     27  C   UNL     1       0.729  16.989  26.861  0.00  0.00    +0.000 C 
ATOM     28  C   UNL     1      -0.400  15.961  26.915  0.00  0.00    +0.000 C 
ATOM     29  H   UNL     1      -0.192  18.604  27.717  0.00  0.00    +0.000 HD
ENDBRANCH  21  23
ENDBRANCH  19  21
ENDBRANCH   8  15
BRANCH   2  30
ATOM     30  C   UNL     1       3.128   4.186  20.397  0.00  0.00    +0.000 C 
ATOM     31  C   UNL     1       1.993   3.470  21.139  0.00  0.00    +0.000 C 
ATOM     32  C   UNL     1       0.904   2.952  20.201  0.00  0.00    +0.000 C 
ATOM     33  C   UNL     1       1.466   2.077  19.084  0.00  0.00    +0.000 C 
ATOM     34  C   UNL     1       2.599   2.764  18.331  0.00  0.00    +0.000 C 
ATOM     35  C   UNL     1       3.685   3.278  19.280  0.00  0.00    +0.000 C 
ENDBRANCH   2  30
TORSDOF 4
ENDMDL
MODEL 8
REMARK VINA RESULT:      -8.3      3.392      5.395
REMARK  Name = 
REMARK  4 active torsions:
REMARK  status: ('A' for Active; 'I' for Inactive)
REMARK    1  A    between atoms: C_2  and  C_27
REMARK    2  A    between atoms: C_8  and  C_9
REMARK    3  A    between atoms: C_13  and  N_14
REMARK    4  A    between atoms: N_14  and  C_15
REMARK                            x       y       z     vdW  Elec       q    Type
REMARK                         _______ _______ _______ _____ _____    ______ ____
ROOT
ATOM      1  O   UNL     1       3.453   4.867  18.858  0.00  0.00    +0.000 OA
ATOM      2  C   UNL     1       3.632   5.712  17.985  0.00  0.00    +0.000 C 
ATOM      3  N   UNL     1       3.137   7.009  18.003  0.00  0.00    +0.000 N 
ATOM      4  C   UNL     1       2.363   7.528  19.060  0.00  0.00    +0.000 A 
ATOM      5  C   UNL     1       1.852   8.821  18.959  0.00  0.00    +0.000 A 
ATOM      6  C   UNL     1       1.036   9.335  19.997  0.00  0.00    +0.000 A 
ATOM      7  C   UNL     1       0.463  10.628  19.959  0.00  0.00    +0.000 A 
ATOM      8  C   UNL     1      -0.368  11.113  20.990  0.00  0.00    +0.000 A 
ATOM      9  C   UNL     1      -0.618  10.246  22.072  0.00  0.00    +0.000 A 
ATOM     10  C   UNL     1      -0.052   8.972  22.134  0.00  0.00    +0.000 A 
ATOM     11  C   UNL     1       0.773   8.516  21.102  0.00  0.00    +0.000 A 
ATOM     12  C   UNL     1       1.345   7.252  21.119  0.00  0.00    +0.000 A 
ATOM     13  N   UNL     1       2.123   6.764  20.136  0.00  0.00    +0.000 NA
ATOM     14  H   UNL     1       3.281   7.598  17.198  0.00  0.00    +0.000 HD
ENDROOT
BRANCH   8  15
ATOM     15  C   UNL     1      -0.973  12.462  20.917  0.00  0.00    +0.000 A 
ATOM     16  C   UNL     1      -2.040  12.859  21.725  0.00  0.00    +0.000 A 
ATOM     17  N   UNL     1      -2.652  14.059  21.615  0.00  0.00    +0.000 NA
ATOM     18  C   UNL     1      -2.143  14.864  20.653  0.00  0.00    +0.000 A 
ATOM     19  C   UNL     1      -1.035  14.541  19.863  0.00  0.00    +0.000 A 
ATOM     20  N   UNL     1      -0.454  13.324  19.993  0.00  0.00    +0.000 NA
BRANCH  19  21
ATOM     21  N   UNL     1      -0.599  15.455  18.884  0.00  0.00    +0.000 N 
ATOM     22  H   UNL     1      -1.200  15.424  18.067  0.00  0.00    +0.000 HD
BRANCH  21  23
ATOM     23  C   UNL     1      -0.344  16.831  19.341  0.00  0.00    +0.000 C 
ATOM     24  C   UNL     1      -0.942  17.872  18.385  0.00  0.00    +0.000 C 
ATOM     25  C   UNL     1      -0.154  18.004  17.084  0.00  0.00    +0.000 C 
ATOM     26  N   UNL     1       1.261  18.285  17.311  0.00  0.00    +0.000 NA
ATOM     27  C   UNL     1       1.889  17.270  18.156  0.00  0.00    +0.000 C 
ATOM     28  C   UNL     1       1.169  17.065  19.488  0.00  0.00    +0.000 C 
ATOM     29  H   UNL     1       1.366  19.204  17.739  0.00  0.00    +0.000 HD
ENDBRANCH  21  23
ENDBRANCH  19  21
ENDBRANCH   8  15
BRANCH   2  30
ATOM     30  C   UNL     1       4.413   5.351  16.708  0.00  0.00    +0.000 C 
ATOM     31  C   UNL     1       5.164   6.537  16.092  0.00  0.00    +0.000 C 
ATOM     32  C   UNL     1       6.383   6.959  16.910  0.00  0.00    +0.000 C 
ATOM     33  C   UNL     1       7.329   5.794  17.187  0.00  0.00    +0.000 C 
ATOM     34  C   UNL     1       6.607   4.599  17.797  0.00  0.00    +0.000 C 
ATOM     35  C   UNL     1       5.389   4.185  16.968  0.00  0.00    +0.000 C 
ENDBRANCH   2  30
TORSDOF 4
ENDMDL
MODEL 9
REMARK VINA RESULT:      -8.2      2.169      3.189
REMARK  Name = 
REMARK  4 active torsions:
REMARK  status: ('A' for Active; 'I' for Inactive)
REMARK    1  A    between atoms: C_2  and  C_27
REMARK    2  A    between atoms: C_8  and  C_9
REMARK    3  A    between atoms: C_13  and  N_14
REMARK    4  A    between atoms: N_14  and  C_15
REMARK                            x       y       z     vdW  Elec       q    Type
REMARK                         _______ _______ _______ _____ _____    ______ ____
ROOT
ATOM      1  O   UNL     1       3.606   5.126  18.945  0.00  0.00    +0.000 OA
ATOM      2  C   UNL     1       3.652   5.932  18.018  0.00  0.00    +0.000 C 
ATOM      3  N   UNL     1       3.030   7.172  17.997  0.00  0.00    +0.000 N 
ATOM      4  C   UNL     1       2.266   7.676  19.069  0.00  0.00    +0.000 A 
ATOM      5  C   UNL     1       1.623   8.904  18.929  0.00  0.00    +0.000 A 
ATOM      6  C   UNL     1       0.816   9.396  19.985  0.00  0.00    +0.000 A 
ATOM      7  C   UNL     1       0.115  10.623  19.913  0.00  0.00    +0.000 A 
ATOM      8  C   UNL     1      -0.705  11.084  20.964  0.00  0.00    +0.000 A 
ATOM      9  C   UNL     1      -0.808  10.262  22.104  0.00  0.00    +0.000 A 
ATOM     10  C   UNL     1      -0.113   9.056  22.200  0.00  0.00    +0.000 A 
ATOM     11  C   UNL     1       0.696   8.622  21.146  0.00  0.00    +0.000 A 
ATOM     12  C   UNL     1       1.393   7.423  21.196  0.00  0.00    +0.000 A 
ATOM     13  N   UNL     1       2.162   6.956  20.196  0.00  0.00    +0.000 NA
ATOM     14  H   UNL     1       3.071   7.724  17.155  0.00  0.00    +0.000 HD
ENDROOT
BRANCH   8  15
ATOM     15  C   UNL     1      -1.446  12.361  20.855  0.00  0.00    +0.000 A 
ATOM     16  C   UNL     1      -0.915  13.495  20.239  0.00  0.00    +0.000 A 
ATOM     17  N   UNL     1      -1.549  14.689  20.201  0.00  0.00    +0.000 NA
ATOM     18  C   UNL     1      -2.759  14.703  20.808  0.00  0.00    +0.000 A 
ATOM     19  C   UNL     1      -3.363  13.579  21.382  0.00  0.00    +0.000 A 
ATOM     20  N   UNL     1      -2.693  12.402  21.411  0.00  0.00    +0.000 NA
BRANCH  19  21
ATOM     21  N   UNL     1      -4.623  13.714  21.996  0.00  0.00    +0.000 N 
ATOM     22  H   UNL     1      -5.267  13.004  21.660  0.00  0.00    +0.000 HD
BRANCH  21  23
ATOM     23  C   UNL     1      -4.628  13.826  23.464  0.00  0.00    +0.000 C 
ATOM     24  C   UNL     1      -5.570  12.802  24.113  0.00  0.00    +0.000 C 
ATOM     25  C   UNL     1      -7.044  13.158  23.937  0.00  0.00    +0.000 C 
ATOM     26  N   UNL     1      -7.358  14.502  24.414  0.00  0.00    +0.000 NA
ATOM     27  C   UNL     1      -6.534  15.518  23.760  0.00  0.00    +0.000 C 
ATOM     28  C   UNL     1      -5.035  15.248  23.882  0.00  0.00    +0.000 C 
ATOM     29  H   UNL     1      -7.227  14.549  25.424  0.00  0.00    +0.000 HD
ENDBRANCH  21  23
ENDBRANCH  19  21
ENDBRANCH   8  15
BRANCH   2  30
ATOM     30  C   UNL     1       4.395   5.574  16.719  0.00  0.00    +0.000 C 
ATOM     31  C   UNL     1       5.281   6.707  16.187  0.00  0.00    +0.000 C 
ATOM     32  C   UNL     1       6.535   6.927  17.032  0.00  0.00    +0.000 C 
ATOM     33  C   UNL     1       7.340   5.645  17.225  0.00  0.00    +0.000 C 
ATOM     34  C   UNL     1       6.481   4.501  17.750  0.00  0.00    +0.000 C 
ATOM     35  C   UNL     1       5.229   4.289  16.895  0.00  0.00    +0.000 C 
ENDBRANCH   2  30
TORSDOF 4
ENDMDL
