MODEL 1
REMARK VINA RESULT:      -8.1      0.000      0.000
REMARK  Name = 
REMARK  8 active torsions:
REMARK  status: ('A' for Active; 'I' for Inactive)
REMARK    1  A    between atoms: C_1  and  C_2
REMARK    2  A    between atoms: C_2  and  N_3
REMARK    3  A    between atoms: C_4  and  C_5
REMARK    4  A    between atoms: C_5  and  N_6
REMARK    5  A    between atoms: C_9  and  C_10
REMARK    6  A    between atoms: C_19  and  S_20
REMARK    7  A    between atoms: S_20  and  C_21
REMARK    8  A    between atoms: C_21  and  C_22
REMARK                            x       y       z     vdW  Elec       q    Type
REMARK                         _______ _______ _______ _____ _____    ______ ____
ROOT
ATOM      1  N   UNL     1       2.455   6.046  19.962  0.00  0.00    +0.000 N 
ATOM      2  C   UNL     1       3.363   5.812  18.923  0.00  0.00    +0.000 A 
ATOM      3  N   UNL     1       3.450   6.907  18.194  0.00  0.00    +0.000 NA
ATOM      4  N   UNL     1       2.634   7.860  18.733  0.00  0.00    +0.000 NA
ATOM      5  C   UNL     1       2.051   7.350  19.791  0.00  0.00    +0.000 A 
ENDROOT
BRANCH   1   7
ATOM      6  C   UNL     1       1.078   3.935  20.539  0.00  0.00    +0.000 C 
ATOM      7  C   UNL     1       2.051   5.040  20.924  0.00  0.00    +0.000 C 
ENDBRANCH   1   7
BRANCH   2   8
ATOM      8  C   UNL     1       4.047   4.529  18.556  0.00  0.00    +0.000 C 
BRANCH   8   9
ATOM      9  N   UNL     1       5.095   4.686  17.564  0.00  0.00    +0.000 N 
ATOM     10  N   UNL     1       6.400   4.758  17.872  0.00  0.00    +0.000 NA
ATOM     11  N   UNL     1       7.021   4.787  16.697  0.00  0.00    +0.000 NA
ATOM     12  C   UNL     1       6.044   4.775  15.729  0.00  0.00    +0.000 A 
ATOM     13  N   UNL     1       4.806   4.821  16.254  0.00  0.00    +0.000 NA
BRANCH  12  14
ATOM     14  C   UNL     1       6.306   4.548  14.313  0.00  0.00    +0.000 A 
ATOM     15  C   UNL     1       7.429   5.111  13.691  0.00  0.00    +0.000 A 
ATOM     16  C   UNL     1       7.762   4.756  12.380  0.00  0.00    +0.000 A 
ATOM     17  C   UNL     1       6.971   3.848  11.677  0.00  0.00    +0.000 A 
ATOM     18  C   UNL     1       5.833   3.310  12.271  0.00  0.00    +0.000 A 
ATOM     19  C   UNL     1       5.499   3.663  13.580  0.00  0.00    +0.000 A 
ENDBRANCH  12  14
ENDBRANCH   8   9
ENDBRANCH   2   8
BRANCH   5  20
ATOM     20  S   UNL     1       0.979   8.250  20.816  0.00  0.00    +0.000 S 
BRANCH  20  21
ATOM     21  C   UNL     1       1.118   9.928  20.137  0.00  0.00    +0.000 C 
BRANCH  21  22
ATOM     22  C   UNL     1      -0.148  10.353  19.417  0.00  0.00    +0.000 A 
ATOM     23  C   UNL     1      -0.466   9.816  18.161  0.00  0.00    +0.000 A 
ATOM     24  C   UNL     1      -1.637  10.193  17.497  0.00  0.00    +0.000 A 
ATOM     25  C   UNL     1      -2.509  11.118  18.071  0.00  0.00    +0.000 A 
ATOM     26 CL   UNL     1      -3.943  11.530  17.195  0.00  0.00    +0.000 Cl
ATOM     27  C   UNL     1      -2.201  11.674  19.318  0.00  0.00    +0.000 A 
ATOM     28 CL   UNL     1      -3.236  12.825  20.093  0.00  0.00    +0.000 Cl
ATOM     29  C   UNL     1      -1.027  11.297  19.983  0.00  0.00    +0.000 A 
ENDBRANCH  21  22
ENDBRANCH  20  21
ENDBRANCH   5  20
TORSDOF 7
ENDMDL
MODEL 2
REMARK VINA RESULT:      -7.8      2.323      3.712
REMARK  Name = 
REMARK  8 active torsions:
REMARK  status: ('A' for Active; 'I' for Inactive)
REMARK    1  A    between atoms: C_1  and  C_2
REMARK    2  A    between atoms: C_2  and  N_3
REMARK    3  A    between atoms: C_4  and  C_5
REMARK    4  A    between atoms: C_5  and  N_6
REMARK    5  A    between atoms: C_9  and  C_10
REMARK    6  A    between atoms: C_19  and  S_20
REMARK    7  A    between atoms: S_20  and  C_21
REMARK    8  A    between atoms: C_21  and  C_22
REMARK                            x       y       z     vdW  Elec       q    Type
REMARK                         _______ _______ _______ _____ _____    ______ ____
ROOT
ATOM      1  N   UNL     1       0.581   8.846  20.730  0.00  0.00    +0.000 N 
ATOM      2  C   UNL     1       1.505   7.921  20.234  0.00  0.00    +0.000 A 
ATOM      3  N   UNL     1       1.969   8.373  19.086  0.00  0.00    +0.000 NA
ATOM      4  N   UNL     1       1.385   9.577  18.819  0.00  0.00    +0.000 NA
ATOM      5  C   UNL     1       0.567   9.863  19.803  0.00  0.00    +0.000 A 
ENDROOT
BRANCH   1   7
ATOM      6  C   UNL     1       0.091   9.477  23.189  0.00  0.00    +0.000 C 
ATOM      7  C   UNL     1      -0.189   8.650  21.942  0.00  0.00    +0.000 C 
ENDBRANCH   1   7
BRANCH   2   8
ATOM      8  C   UNL     1       1.855   6.569  20.782  0.00  0.00    +0.000 C 
BRANCH   8   9
ATOM      9  N   UNL     1       2.396   5.656  19.792  0.00  0.00    +0.000 N 
ATOM     10  N   UNL     1       1.634   4.851  19.034  0.00  0.00    +0.000 NA
ATOM     11  N   UNL     1       2.487   4.270  18.199  0.00  0.00    +0.000 NA
ATOM     12  C   UNL     1       3.743   4.727  18.528  0.00  0.00    +0.000 A 
ATOM     13  N   UNL     1       3.725   5.527  19.610  0.00  0.00    +0.000 NA
BRANCH  12  14
ATOM     14  C   UNL     1       4.924   4.526  17.698  0.00  0.00    +0.000 A 
ATOM     15  C   UNL     1       4.802   4.226  16.335  0.00  0.00    +0.000 A 
ATOM     16  C   UNL     1       5.933   4.198  15.513  0.00  0.00    +0.000 A 
ATOM     17  C   UNL     1       7.195   4.457  16.048  0.00  0.00    +0.000 A 
ATOM     18  C   UNL     1       7.333   4.721  17.409  0.00  0.00    +0.000 A 
ATOM     19  C   UNL     1       6.205   4.750  18.230  0.00  0.00    +0.000 A 
ENDBRANCH  12  14
ENDBRANCH   8   9
ENDBRANCH   2   8
BRANCH   5  20
ATOM     20  S   UNL     1      -0.333  11.343  19.895  0.00  0.00    +0.000 S 
BRANCH  20  21
ATOM     21  C   UNL     1      -0.951  11.522  18.197  0.00  0.00    +0.000 C 
BRANCH  21  22
ATOM     22  C   UNL     1      -2.466  11.598  18.152  0.00  0.00    +0.000 A 
ATOM     23  C   UNL     1      -3.163  11.206  17.001  0.00  0.00    +0.000 A 
ATOM     24  C   UNL     1      -4.560  11.261  16.956  0.00  0.00    +0.000 A 
ATOM     25  C   UNL     1      -5.285  11.714  18.057  0.00  0.00    +0.000 A 
ATOM     26 CL   UNL     1      -7.010  11.747  17.933  0.00  0.00    +0.000 Cl
ATOM     27  C   UNL     1      -4.605  12.122  19.211  0.00  0.00    +0.000 A 
ATOM     28 CL   UNL     1      -5.437  12.694  20.616  0.00  0.00    +0.000 Cl
ATOM     29  C   UNL     1      -3.205  12.068  19.255  0.00  0.00    +0.000 A 
ENDBRANCH  21  22
ENDBRANCH  20  21
ENDBRANCH   5  20
TORSDOF 7
ENDMDL
MODEL 3
REMARK VINA RESULT:      -7.5      4.508     10.368
REMARK  Name = 
REMARK  8 active torsions:
REMARK  status: ('A' for Active; 'I' for Inactive)
REMARK    1  A    between atoms: C_1  and  C_2
REMARK    2  A    between atoms: C_2  and  N_3
REMARK    3  A    between atoms: C_4  and  C_5
REMARK    4  A    between atoms: C_5  and  N_6
REMARK    5  A    between atoms: C_9  and  C_10
REMARK    6  A    between atoms: C_19  and  S_20
REMARK    7  A    between atoms: S_20  and  C_21
REMARK    8  A    between atoms: C_21  and  C_22
REMARK                            x       y       z     vdW  Elec       q    Type
REMARK                         _______ _______ _______ _____ _____    ______ ____
ROOT
ATOM      1  N   UNL     1       0.752   8.777  20.397  0.00  0.00    +0.000 N 
ATOM      2  C   UNL     1       0.845   9.829  19.480  0.00  0.00    +0.000 A 
ATOM      3  N   UNL     1       1.745   9.509  18.571  0.00  0.00    +0.000 NA
ATOM      4  N   UNL     1       2.237   8.268  18.858  0.00  0.00    +0.000 NA
ATOM      5  C   UNL     1       1.637   7.829  19.938  0.00  0.00    +0.000 A 
ENDROOT
BRANCH   1   7
ATOM      6  C   UNL     1       0.428   9.382  22.890  0.00  0.00    +0.000 C 
ATOM      7  C   UNL     1      -0.087   8.805  21.578  0.00  0.00    +0.000 C 
ENDBRANCH   1   7
BRANCH   2   8
ATOM      8  C   UNL     1       0.177  11.171  19.532  0.00  0.00    +0.000 C 
BRANCH   8   9
ATOM      9  N   UNL     1      -1.101  11.218  18.847  0.00  0.00    +0.000 N 
ATOM     10  N   UNL     1      -1.327  10.627  17.662  0.00  0.00    +0.000 NA
ATOM     11  N   UNL     1      -2.624  10.808  17.438  0.00  0.00    +0.000 NA
ATOM     12  C   UNL     1      -3.112  11.547  18.491  0.00  0.00    +0.000 A 
ATOM     13  N   UNL     1      -2.141  11.914  19.348  0.00  0.00    +0.000 NA
BRANCH  12  14
ATOM     14  C   UNL     1      -4.531  11.748  18.754  0.00  0.00    +0.000 A 
ATOM     15  C   UNL     1      -5.502  11.244  17.879  0.00  0.00    +0.000 A 
ATOM     16  C   UNL     1      -6.857  11.297  18.221  0.00  0.00    +0.000 A 
ATOM     17  C   UNL     1      -7.253  11.863  19.433  0.00  0.00    +0.000 A 
ATOM     18  C   UNL     1      -6.300  12.400  20.295  0.00  0.00    +0.000 A 
ATOM     19  C   UNL     1      -4.947  12.347  19.955  0.00  0.00    +0.000 A 
ENDBRANCH  12  14
ENDBRANCH   8   9
ENDBRANCH   2   8
BRANCH   5  20
ATOM     20  S   UNL     1       1.921   6.256  20.613  0.00  0.00    +0.000 S 
BRANCH  20  21
ATOM     21  C   UNL     1       2.014   5.213  19.130  0.00  0.00    +0.000 C 
BRANCH  21  22
ATOM     22  C   UNL     1       3.443   5.039  18.651  0.00  0.00    +0.000 A 
ATOM     23  C   UNL     1       4.512   5.137  19.553  0.00  0.00    +0.000 A 
ATOM     24  C   UNL     1       5.831   4.966  19.121  0.00  0.00    +0.000 A 
ATOM     25  C   UNL     1       6.107   4.700  17.781  0.00  0.00    +0.000 A 
ATOM     26 CL   UNL     1       7.762   4.492  17.321  0.00  0.00    +0.000 Cl
ATOM     27  C   UNL     1       5.054   4.612  16.864  0.00  0.00    +0.000 A 
ATOM     28 CL   UNL     1       5.319   4.283  15.185  0.00  0.00    +0.000 Cl
ATOM     29  C   UNL     1       3.731   4.785  17.296  0.00  0.00    +0.000 A 
ENDBRANCH  21  22
ENDBRANCH  20  21
ENDBRANCH   5  20
TORSDOF 7
ENDMDL
MODEL 4
REMARK VINA RESULT:      -7.5      1.367      2.068
REMARK  Name = 
REMARK  8 active torsions:
REMARK  status: ('A' for Active; 'I' for Inactive)
REMARK    1  A    between atoms: C_1  and  C_2
REMARK    2  A    between atoms: C_2  and  N_3
REMARK    3  A    between atoms: C_4  and  C_5
REMARK    4  A    between atoms: C_5  and  N_6
REMARK    5  A    between atoms: C_9  and  C_10
REMARK    6  A    between atoms: C_19  and  S_20
REMARK    7  A    between atoms: S_20  and  C_21
REMARK    8  A    between atoms: C_21  and  C_22
REMARK                            x       y       z     vdW  Elec       q    Type
REMARK                         _______ _______ _______ _____ _____    ______ ____
ROOT
ATOM      1  N   UNL     1       2.869   4.891  19.951  0.00  0.00    +0.000 N 
ATOM      2  C   UNL     1       4.081   4.996  19.259  0.00  0.00    +0.000 A 
ATOM      3  N   UNL     1       4.246   6.255  18.901  0.00  0.00    +0.000 NA
ATOM      4  N   UNL     1       3.183   6.983  19.350  0.00  0.00    +0.000 NA
ATOM      5  C   UNL     1       2.370   6.173  19.984  0.00  0.00    +0.000 A 
ENDROOT
BRANCH   1   7
ATOM      6  C   UNL     1       0.885   3.242  20.120  0.00  0.00    +0.000 C 
ATOM      7  C   UNL     1       2.320   3.640  20.435  0.00  0.00    +0.000 C 
ENDBRANCH   1   7
BRANCH   2   8
ATOM      8  C   UNL     1       5.012   3.898  18.839  0.00  0.00    +0.000 C 
BRANCH   8   9
ATOM      9  N   UNL     1       5.889   4.260  17.741  0.00  0.00    +0.000 N 
ATOM     10  N   UNL     1       7.203   4.491  17.890  0.00  0.00    +0.000 NA
ATOM     11  N   UNL     1       7.653   4.679  16.654  0.00  0.00    +0.000 NA
ATOM     12  C   UNL     1       6.566   4.595  15.816  0.00  0.00    +0.000 A 
ATOM     13  N   UNL     1       5.413   4.437  16.492  0.00  0.00    +0.000 NA
BRANCH  12  14
ATOM     14  C   UNL     1       6.664   4.497  14.365  0.00  0.00    +0.000 A 
ATOM     15  C   UNL     1       7.559   5.303  13.649  0.00  0.00    +0.000 A 
ATOM     16  C   UNL     1       7.765   5.089  12.283  0.00  0.00    +0.000 A 
ATOM     17  C   UNL     1       7.072   4.077  11.619  0.00  0.00    +0.000 A 
ATOM     18  C   UNL     1       6.153   3.293  12.312  0.00  0.00    +0.000 A 
ATOM     19  C   UNL     1       5.946   3.506  13.676  0.00  0.00    +0.000 A 
ENDBRANCH  12  14
ENDBRANCH   8   9
ENDBRANCH   2   8
BRANCH   5  20
ATOM     20  S   UNL     1       0.918   6.703  20.773  0.00  0.00    +0.000 S 
BRANCH  20  21
ATOM     21  C   UNL     1       1.487   8.176  21.671  0.00  0.00    +0.000 C 
BRANCH  21  22
ATOM     22  C   UNL     1       0.520   9.335  21.523  0.00  0.00    +0.000 A 
ATOM     23  C   UNL     1      -0.023   9.958  22.657  0.00  0.00    +0.000 A 
ATOM     24  C   UNL     1      -0.905  11.035  22.530  0.00  0.00    +0.000 A 
ATOM     25  C   UNL     1      -1.267  11.506  21.268  0.00  0.00    +0.000 A 
ATOM     26 CL   UNL     1      -2.357  12.848  21.188  0.00  0.00    +0.000 Cl
ATOM     27  C   UNL     1      -0.746  10.889  20.125  0.00  0.00    +0.000 A 
ATOM     28 CL   UNL     1      -1.148  11.421  18.528  0.00  0.00    +0.000 Cl
ATOM     29  C   UNL     1       0.138   9.809  20.253  0.00  0.00    +0.000 A 
ENDBRANCH  21  22
ENDBRANCH  20  21
ENDBRANCH   5  20
TORSDOF 7
ENDMDL
MODEL 5
REMARK VINA RESULT:      -7.5      0.825      1.821
REMARK  Name = 
REMARK  8 active torsions:
REMARK  status: ('A' for Active; 'I' for Inactive)
REMARK    1  A    between atoms: C_1  and  C_2
REMARK    2  A    between atoms: C_2  and  N_3
REMARK    3  A    between atoms: C_4  and  C_5
REMARK    4  A    between atoms: C_5  and  N_6
REMARK    5  A    between atoms: C_9  and  C_10
REMARK    6  A    between atoms: C_19  and  S_20
REMARK    7  A    between atoms: S_20  and  C_21
REMARK    8  A    between atoms: C_21  and  C_22
REMARK                            x       y       z     vdW  Elec       q    Type
REMARK                         _______ _______ _______ _____ _____    ______ ____
ROOT
ATOM      1  N   UNL     1       2.206   6.152  20.053  0.00  0.00    +0.000 N 
ATOM      2  C   UNL     1       2.942   6.003  18.873  0.00  0.00    +0.000 A 
ATOM      3  N   UNL     1       2.924   7.151  18.225  0.00  0.00    +0.000 NA
ATOM      4  N   UNL     1       2.209   8.056  18.954  0.00  0.00    +0.000 NA
ATOM      5  C   UNL     1       1.791   7.464  20.047  0.00  0.00    +0.000 A 
ENDROOT
BRANCH   1   7
ATOM      6  C   UNL     1       1.041   3.911  20.606  0.00  0.00    +0.000 C 
ATOM      7  C   UNL     1       1.946   5.074  20.986  0.00  0.00    +0.000 C 
ENDBRANCH   1   7
BRANCH   2   8
ATOM      8  C   UNL     1       3.551   4.755  18.307  0.00  0.00    +0.000 C 
BRANCH   8   9
ATOM      9  N   UNL     1       4.687   4.998  17.437  0.00  0.00    +0.000 N 
ATOM     10  N   UNL     1       5.885   5.409  17.883  0.00  0.00    +0.000 NA
ATOM     11  N   UNL     1       6.663   5.406  16.806  0.00  0.00    +0.000 NA
ATOM     12  C   UNL     1       5.873   5.031  15.744  0.00  0.00    +0.000 A 
ATOM     13  N   UNL     1       4.585   4.871  16.099  0.00  0.00    +0.000 NA
BRANCH  12  14
ATOM     14  C   UNL     1       6.394   4.666  14.432  0.00  0.00    +0.000 A 
ATOM     15  C   UNL     1       5.745   3.707  13.643  0.00  0.00    +0.000 A 
ATOM     16  C   UNL     1       6.155   3.482  12.325  0.00  0.00    +0.000 A 
ATOM     17  C   UNL     1       7.222   4.203  11.789  0.00  0.00    +0.000 A 
ATOM     18  C   UNL     1       7.898   5.133  12.576  0.00  0.00    +0.000 A 
ATOM     19  C   UNL     1       7.490   5.358  13.892  0.00  0.00    +0.000 A 
ENDBRANCH  12  14
ENDBRANCH   8   9
ENDBRANCH   2   8
BRANCH   5  20
ATOM     20  S   UNL     1       0.896   8.278  21.290  0.00  0.00    +0.000 S 
BRANCH  20  21
ATOM     21  C   UNL     1       1.207  10.025  20.905  0.00  0.00    +0.000 C 
BRANCH  21  22
ATOM     22  C   UNL     1      -0.083  10.810  20.760  0.00  0.00    +0.000 A 
ATOM     23  C   UNL     1      -0.631  11.488  21.858  0.00  0.00    +0.000 A 
ATOM     24  C   UNL     1      -1.813  12.223  21.729  0.00  0.00    +0.000 A 
ATOM     25  C   UNL     1      -2.473  12.290  20.503  0.00  0.00    +0.000 A 
ATOM     26 CL   UNL     1      -3.926  13.225  20.416  0.00  0.00    +0.000 Cl
ATOM     27  C   UNL     1      -1.949  11.609  19.399  0.00  0.00    +0.000 A 
ATOM     28 CL   UNL     1      -2.712  11.647  17.846  0.00  0.00    +0.000 Cl
ATOM     29  C   UNL     1      -0.764  10.870  19.528  0.00  0.00    +0.000 A 
ENDBRANCH  21  22
ENDBRANCH  20  21
ENDBRANCH   5  20
TORSDOF 7
ENDMDL
MODEL 6
REMARK VINA RESULT:      -7.4      2.284      3.845
REMARK  Name = 
REMARK  8 active torsions:
REMARK  status: ('A' for Active; 'I' for Inactive)
REMARK    1  A    between atoms: C_1  and  C_2
REMARK    2  A    between atoms: C_2  and  N_3
REMARK    3  A    between atoms: C_4  and  C_5
REMARK    4  A    between atoms: C_5  and  N_6
REMARK    5  A    between atoms: C_9  and  C_10
REMARK    6  A    between atoms: C_19  and  S_20
REMARK    7  A    between atoms: S_20  and  C_21
REMARK    8  A    between atoms: C_21  and  C_22
REMARK                            x       y       z     vdW  Elec       q    Type
REMARK                         _______ _______ _______ _____ _____    ______ ____
ROOT
ATOM      1  N   UNL     1       0.991   9.400  20.055  0.00  0.00    +0.000 N 
ATOM      2  C   UNL     1       1.744   8.310  19.606  0.00  0.00    +0.000 A 
ATOM      3  N   UNL     1       1.948   8.452  18.311  0.00  0.00    +0.000 NA
ATOM      4  N   UNL     1       1.362   9.614  17.898  0.00  0.00    +0.000 NA
ATOM      5  C   UNL     1       0.803  10.183  18.939  0.00  0.00    +0.000 A 
ENDROOT
BRANCH   1   7
ATOM      6  C   UNL     1      -0.593   8.653  21.957  0.00  0.00    +0.000 C 
ATOM      7  C   UNL     1       0.513   9.548  21.415  0.00  0.00    +0.000 C 
ENDBRANCH   1   7
BRANCH   2   8
ATOM      8  C   UNL     1       2.161   7.088  20.370  0.00  0.00    +0.000 C 
BRANCH   8   9
ATOM      9  N   UNL     1       2.653   6.011  19.531  0.00  0.00    +0.000 N 
ATOM     10  N   UNL     1       1.881   5.002  19.094  0.00  0.00    +0.000 NA
ATOM     11  N   UNL     1       2.669   4.304  18.284  0.00  0.00    +0.000 NA
ATOM     12  C   UNL     1       3.904   4.909  18.308  0.00  0.00    +0.000 A 
ATOM     13  N   UNL     1       3.952   5.934  19.178  0.00  0.00    +0.000 NA
BRANCH  12  14
ATOM     14  C   UNL     1       4.977   4.604  17.370  0.00  0.00    +0.000 A 
ATOM     15  C   UNL     1       4.703   4.377  16.014  0.00  0.00    +0.000 A 
ATOM     16  C   UNL     1       5.748   4.249  15.094  0.00  0.00    +0.000 A 
ATOM     17  C   UNL     1       7.073   4.333  15.521  0.00  0.00    +0.000 A 
ATOM     18  C   UNL     1       7.358   4.522  16.872  0.00  0.00    +0.000 A 
ATOM     19  C   UNL     1       6.316   4.651  17.791  0.00  0.00    +0.000 A 
ENDBRANCH  12  14
ENDBRANCH   8   9
ENDBRANCH   2   8
BRANCH   5  20
ATOM     20  S   UNL     1       0.002  11.720  18.869  0.00  0.00    +0.000 S 
BRANCH  20  21
ATOM     21  C   UNL     1      -1.476  11.338  17.884  0.00  0.00    +0.000 C 
BRANCH  21  22
ATOM     22  C   UNL     1      -2.751  11.744  18.599  0.00  0.00    +0.000 A 
ATOM     23  C   UNL     1      -2.694  12.387  19.844  0.00  0.00    +0.000 A 
ATOM     24  C   UNL     1      -3.865  12.776  20.503  0.00  0.00    +0.000 A 
ATOM     25  C   UNL     1      -5.113  12.523  19.935  0.00  0.00    +0.000 A 
ATOM     26 CL   UNL     1      -6.517  13.039  20.804  0.00  0.00    +0.000 Cl
ATOM     27  C   UNL     1      -5.190  11.870  18.700  0.00  0.00    +0.000 A 
ATOM     28 CL   UNL     1      -6.702  11.525  17.933  0.00  0.00    +0.000 Cl
ATOM     29  C   UNL     1      -4.016  11.479  18.039  0.00  0.00    +0.000 A 
ENDBRANCH  21  22
ENDBRANCH  20  21
ENDBRANCH   5  20
TORSDOF 7
ENDMDL
MODEL 7
REMARK VINA RESULT:      -7.4      2.019      2.665
REMARK  Name = 
REMARK  8 active torsions:
REMARK  status: ('A' for Active; 'I' for Inactive)
REMARK    1  A    between atoms: C_1  and  C_2
REMARK    2  A    between atoms: C_2  and  N_3
REMARK    3  A    between atoms: C_4  and  C_5
REMARK    4  A    between atoms: C_5  and  N_6
REMARK    5  A    between atoms: C_9  and  C_10
REMARK    6  A    between atoms: C_19  and  S_20
REMARK    7  A    between atoms: S_20  and  C_21
REMARK    8  A    between atoms: C_21  and  C_22
REMARK                            x       y       z     vdW  Elec       q    Type
REMARK                         _______ _______ _______ _____ _____    ______ ____
ROOT
ATOM      1  N   UNL     1       2.111   6.028  19.822  0.00  0.00    +0.000 N 
ATOM      2  C   UNL     1       2.912   5.804  18.697  0.00  0.00    +0.000 A 
ATOM      3  N   UNL     1       3.184   6.970  18.143  0.00  0.00    +0.000 NA
ATOM      4  N   UNL     1       2.595   7.956  18.881  0.00  0.00    +0.000 NA
ATOM      5  C   UNL     1       1.966   7.395  19.886  0.00  0.00    +0.000 A 
ENDROOT
BRANCH   1   7
ATOM      6  C   UNL     1       2.452   4.103  21.514  0.00  0.00    +0.000 C 
ATOM      7  C   UNL     1       1.555   4.970  20.642  0.00  0.00    +0.000 C 
ENDBRANCH   1   7
BRANCH   2   8
ATOM      8  C   UNL     1       3.314   4.495  18.085  0.00  0.00    +0.000 C 
BRANCH   8   9
ATOM      9  N   UNL     1       4.569   4.548  17.359  0.00  0.00    +0.000 N 
ATOM     10  N   UNL     1       5.769   4.392  17.944  0.00  0.00    +0.000 NA
ATOM     11  N   UNL     1       6.635   4.398  16.937  0.00  0.00    +0.000 NA
ATOM     12  C   UNL     1       5.910   4.604  15.786  0.00  0.00    +0.000 A 
ATOM     13  N   UNL     1       4.605   4.811  16.038  0.00  0.00    +0.000 NA
BRANCH  12  14
ATOM     14  C   UNL     1       6.451   4.430  14.444  0.00  0.00    +0.000 A 
ATOM     15  C   UNL     1       5.863   3.530  13.544  0.00  0.00    +0.000 A 
ATOM     16  C   UNL     1       6.283   3.490  12.211  0.00  0.00    +0.000 A 
ATOM     17  C   UNL     1       7.298   4.338  11.768  0.00  0.00    +0.000 A 
ATOM     18  C   UNL     1       7.914   5.210  12.662  0.00  0.00    +0.000 A 
ATOM     19  C   UNL     1       7.496   5.252  13.993  0.00  0.00    +0.000 A 
ENDBRANCH  12  14
ENDBRANCH   8   9
ENDBRANCH   2   8
BRANCH   5  20
ATOM     20  S   UNL     1       1.134   8.296  21.113  0.00  0.00    +0.000 S 
BRANCH  20  21
ATOM     21  C   UNL     1       0.405   9.659  20.160  0.00  0.00    +0.000 C 
BRANCH  21  22
ATOM     22  C   UNL     1      -0.004  10.817  21.052  0.00  0.00    +0.000 A 
ATOM     23  C   UNL     1      -0.857  10.605  22.144  0.00  0.00    +0.000 A 
ATOM     24  C   UNL     1      -1.229  11.664  22.978  0.00  0.00    +0.000 A 
ATOM     25  C   UNL     1      -0.761  12.954  22.733  0.00  0.00    +0.000 A 
ATOM     26 CL   UNL     1      -1.256  14.213  23.812  0.00  0.00    +0.000 Cl
ATOM     27  C   UNL     1       0.081  13.187  21.640  0.00  0.00    +0.000 A 
ATOM     28 CL   UNL     1       0.703  14.760  21.275  0.00  0.00    +0.000 Cl
ATOM     29  C   UNL     1       0.453  12.125  20.803  0.00  0.00    +0.000 A 
ENDBRANCH  21  22
ENDBRANCH  20  21
ENDBRANCH   5  20
TORSDOF 7
ENDMDL
MODEL 8
REMARK VINA RESULT:      -7.4      2.295      3.610
REMARK  Name = 
REMARK  8 active torsions:
REMARK  status: ('A' for Active; 'I' for Inactive)
REMARK    1  A    between atoms: C_1  and  C_2
REMARK    2  A    between atoms: C_2  and  N_3
REMARK    3  A    between atoms: C_4  and  C_5
REMARK    4  A    between atoms: C_5  and  N_6
REMARK    5  A    between atoms: C_9  and  C_10
REMARK    6  A    between atoms: C_19  and  S_20
REMARK    7  A    between atoms: S_20  and  C_21
REMARK    8  A    between atoms: C_21  and  C_22
REMARK                            x       y       z     vdW  Elec       q    Type
REMARK                         _______ _______ _______ _____ _____    ______ ____
ROOT
ATOM      1  N   UNL     1       4.822   5.374  18.015  0.00  0.00    +0.000 N 
ATOM      2  C   UNL     1       5.900   4.484  18.070  0.00  0.00    +0.000 A 
ATOM      3  N   UNL     1       5.666   3.608  19.027  0.00  0.00    +0.000 NA
ATOM      4  N   UNL     1       4.457   3.890  19.595  0.00  0.00    +0.000 NA
ATOM      5  C   UNL     1       3.950   4.934  18.984  0.00  0.00    +0.000 A 
ENDROOT
BRANCH   1   7
ATOM      6  C   UNL     1       5.773   7.653  17.246  0.00  0.00    +0.000 C 
ATOM      7  C   UNL     1       4.763   6.519  17.128  0.00  0.00    +0.000 C 
ENDBRANCH   1   7
BRANCH   2   8
ATOM      8  C   UNL     1       7.190   4.536  17.307  0.00  0.00    +0.000 C 
BRANCH   8   9
ATOM      9  N   UNL     1       7.018   4.682  15.873  0.00  0.00    +0.000 N 
ATOM     10  N   UNL     1       7.695   5.577  15.135  0.00  0.00    +0.000 NA
ATOM     11  N   UNL     1       7.337   5.318  13.882  0.00  0.00    +0.000 NA
ATOM     12  C   UNL     1       6.417   4.296  13.932  0.00  0.00    +0.000 A 
ATOM     13  N   UNL     1       6.114   3.946  15.196  0.00  0.00    +0.000 NA
BRANCH  12  14
ATOM     14  C   UNL     1       5.965   3.551  12.764  0.00  0.00    +0.000 A 
ATOM     15  C   UNL     1       6.777   2.571  12.179  0.00  0.00    +0.000 A 
ATOM     16  C   UNL     1       6.273   1.749  11.165  0.00  0.00    +0.000 A 
ATOM     17  C   UNL     1       4.961   1.909  10.720  0.00  0.00    +0.000 A 
ATOM     18  C   UNL     1       4.156   2.904  11.268  0.00  0.00    +0.000 A 
ATOM     19  C   UNL     1       4.657   3.724  12.281  0.00  0.00    +0.000 A 
ENDBRANCH  12  14
ENDBRANCH   8   9
ENDBRANCH   2   8
BRANCH   5  20
ATOM     20  S   UNL     1       2.386   5.587  19.351  0.00  0.00    +0.000 S 
BRANCH  20  21
ATOM     21  C   UNL     1       2.530   7.292  18.742  0.00  0.00    +0.000 C 
BRANCH  21  22
ATOM     22  C   UNL     1       1.745   8.267  19.601  0.00  0.00    +0.000 A 
ATOM     23  C   UNL     1       1.458   7.963  20.939  0.00  0.00    +0.000 A 
ATOM     24  C   UNL     1       0.746   8.861  21.740  0.00  0.00    +0.000 A 
ATOM     25  C   UNL     1       0.302  10.075  21.218  0.00  0.00    +0.000 A 
ATOM     26 CL   UNL     1      -0.566  11.140  22.270  0.00  0.00    +0.000 Cl
ATOM     27  C   UNL     1       0.568  10.389  19.880  0.00  0.00    +0.000 A 
ATOM     28 CL   UNL     1       0.050  11.877  19.164  0.00  0.00    +0.000 Cl
ATOM     29  C   UNL     1       1.281   9.489  19.077  0.00  0.00    +0.000 A 
ENDBRANCH  21  22
ENDBRANCH  20  21
ENDBRANCH   5  20
TORSDOF 7
ENDMDL
MODEL 9
REMARK VINA RESULT:      -7.3      3.967      6.043
REMARK  Name = 
REMARK  8 active torsions:
REMARK  status: ('A' for Active; 'I' for Inactive)
REMARK    1  A    between atoms: C_1  and  C_2
REMARK    2  A    between atoms: C_2  and  N_3
REMARK    3  A    between atoms: C_4  and  C_5
REMARK    4  A    between atoms: C_5  and  N_6
REMARK    5  A    between atoms: C_9  and  C_10
REMARK    6  A    between atoms: C_19  and  S_20
REMARK    7  A    between atoms: S_20  and  C_21
REMARK    8  A    between atoms: C_21  and  C_22
REMARK                            x       y       z     vdW  Elec       q    Type
REMARK                         _______ _______ _______ _____ _____    ______ ____
ROOT
ATOM      1  N   UNL     1       0.479  11.352  19.137  0.00  0.00    +0.000 N 
ATOM      2  C   UNL     1       0.676  10.278  18.262  0.00  0.00    +0.000 A 
ATOM      3  N   UNL     1      -0.505   9.836  17.875  0.00  0.00    +0.000 NA
ATOM      4  N   UNL     1      -1.473  10.599  18.461  0.00  0.00    +0.000 NA
ATOM      5  C   UNL     1      -0.887  11.508  19.203  0.00  0.00    +0.000 A 
ENDROOT
BRANCH   1   7
ATOM      6  C   UNL     1       2.069  13.383  19.311  0.00  0.00    +0.000 C 
ATOM      7  C   UNL     1       1.552  12.045  19.821  0.00  0.00    +0.000 C 
ENDBRANCH   1   7
BRANCH   2   8
ATOM      8  C   UNL     1       1.963   9.603  17.892  0.00  0.00    +0.000 C 
BRANCH   8   9
ATOM      9  N   UNL     1       2.160   8.320  18.539  0.00  0.00    +0.000 N 
ATOM     10  N   UNL     1       1.913   8.103  19.842  0.00  0.00    +0.000 NA
ATOM     11  N   UNL     1       2.111   6.800  20.008  0.00  0.00    +0.000 NA
ATOM     12  C   UNL     1       2.517   6.299  18.793  0.00  0.00    +0.000 A 
ATOM     13  N   UNL     1       2.661   7.264  17.867  0.00  0.00    +0.000 NA
BRANCH  12  14
ATOM     14  C   UNL     1       2.597   4.876  18.487  0.00  0.00    +0.000 A 
ATOM     15  C   UNL     1       3.838   4.240  18.347  0.00  0.00    +0.000 A 
ATOM     16  C   UNL     1       3.909   2.849  18.218  0.00  0.00    +0.000 A 
ATOM     17  C   UNL     1       2.742   2.085  18.215  0.00  0.00    +0.000 A 
ATOM     18  C   UNL     1       1.501   2.709  18.316  0.00  0.00    +0.000 A 
ATOM     19  C   UNL     1       1.429   4.097  18.446  0.00  0.00    +0.000 A 
ENDBRANCH  12  14
ENDBRANCH   8   9
ENDBRANCH   2   8
BRANCH   5  20
ATOM     20  S   UNL     1      -1.754  12.731  20.075  0.00  0.00    +0.000 S 
BRANCH  20  21
ATOM     21  C   UNL     1      -3.475  12.386  19.611  0.00  0.00    +0.000 C 
BRANCH  21  22
ATOM     22  C   UNL     1      -4.424  12.575  20.780  0.00  0.00    +0.000 A 
ATOM     23  C   UNL     1      -5.808  12.646  20.568  0.00  0.00    +0.000 A 
ATOM     24  C   UNL     1      -6.690  12.807  21.642  0.00  0.00    +0.000 A 
ATOM     25  C   UNL     1      -6.204  12.907  22.945  0.00  0.00    +0.000 A 
ATOM     26 CL   UNL     1      -7.354  13.097  24.224  0.00  0.00    +0.000 Cl
ATOM     27  C   UNL     1      -4.825  12.851  23.175  0.00  0.00    +0.000 A 
ATOM     28 CL   UNL     1      -4.151  12.966  24.765  0.00  0.00    +0.000 Cl
ATOM     29  C   UNL     1      -3.941  12.690  22.099  0.00  0.00    +0.000 A 
ENDBRANCH  21  22
ENDBRANCH  20  21
ENDBRANCH   5  20
TORSDOF 7
ENDMDL
