MODEL 1
REMARK VINA RESULT:      -8.6      0.000      0.000
REMARK  Name = 
REMARK  4 active torsions:
REMARK  status: ('A' for Active; 'I' for Inactive)
REMARK    1  A    between atoms: C_1  and  O_2
REMARK    2  A    between atoms: O_2  and  C_3
REMARK    3  A    between atoms: C_8  and  N_9
REMARK    4  A    between atoms: C_12  and  C_13
REMARK                            x       y       z     vdW  Elec       q    Type
REMARK                         _______ _______ _______ _____ _____    ______ ____
ROOT
ATOM      1  N   UNL     1       4.502   3.170  17.877  0.00  0.00    +0.000 N 
ATOM      2  C   UNL     1       3.691   3.847  18.736  0.00  0.00    +0.000 A 
ATOM      3  N   UNL     1       3.194   5.051  18.540  0.00  0.00    +0.000 NA
ATOM      4  C   UNL     1       2.607   5.561  19.675  0.00  0.00    +0.000 A 
ATOM      5  C   UNL     1       2.531   4.675  20.725  0.00  0.00    +0.000 A 
ATOM      6  S   UNL     1       3.248   3.176  20.268  0.00  0.00    +0.000 S 
ATOM      7  H   UNL     1       4.910   2.301  18.214  0.00  0.00    +0.000 HD
ENDROOT
BRANCH   4   8
ATOM      8  C   UNL     1       2.150   6.923  19.624  0.00  0.00    +0.000 A 
ATOM      9  C   UNL     1       1.298   7.406  20.548  0.00  0.00    +0.000 A 
ATOM     10  C   UNL     1       0.823   8.779  20.504  0.00  0.00    +0.000 A 
ATOM     11  C   UNL     1       0.121   9.360  21.562  0.00  0.00    +0.000 A 
ATOM     12  C   UNL     1      -0.285  10.695  21.467  0.00  0.00    +0.000 A 
ATOM     13 BR   UNL     1      -1.139  11.515  22.942  0.00  0.00    +0.000 Br
ATOM     14  C   UNL     1      -0.041  11.438  20.311  0.00  0.00    +0.000 A 
ATOM     15  C   UNL     1       0.648  10.852  19.249  0.00  0.00    +0.000 A 
ATOM     16  C   UNL     1       1.096   9.538  19.374  0.00  0.00    +0.000 A 
ATOM     17  O   UNL     1       1.898   9.018  18.345  0.00  0.00    +0.000 OA
ATOM     18  C   UNL     1       2.573   7.804  18.492  0.00  0.00    +0.000 A 
ATOM     19  O   UNL     1       3.446   7.485  17.691  0.00  0.00    +0.000 OA
ENDBRANCH   4   8
BRANCH   1  25
ATOM     20  C   UNL     1       6.500   4.524  17.388  0.00  0.00    +0.000 A 
ATOM     21  C   UNL     1       7.253   5.277  16.476  0.00  0.00    +0.000 A 
ATOM     22  C   UNL     1       6.939   5.281  15.118  0.00  0.00    +0.000 A 
ATOM     23  C   UNL     1       5.889   4.505  14.654  0.00  0.00    +0.000 A 
ATOM     24  C   UNL     1       5.128   3.769  15.553  0.00  0.00    +0.000 A 
ATOM     25  C   UNL     1       5.367   3.806  16.943  0.00  0.00    +0.000 A 
BRANCH  20  27
ATOM     26  C   UNL     1       7.358   5.667  19.272  0.00  0.00    +0.000 C 
ATOM     27  O   UNL     1       6.779   4.474  18.738  0.00  0.00    +0.000 OA
ENDBRANCH  20  27
ENDBRANCH   1  25
TORSDOF 3
ENDMDL
MODEL 2
REMARK VINA RESULT:      -8.2      4.806      9.012
REMARK  Name = 
REMARK  4 active torsions:
REMARK  status: ('A' for Active; 'I' for Inactive)
REMARK    1  A    between atoms: C_1  and  O_2
REMARK    2  A    between atoms: O_2  and  C_3
REMARK    3  A    between atoms: C_8  and  N_9
REMARK    4  A    between atoms: C_12  and  C_13
REMARK                            x       y       z     vdW  Elec       q    Type
REMARK                         _______ _______ _______ _____ _____    ______ ____
ROOT
ATOM      1  N   UNL     1      -1.711  12.681  18.004  0.00  0.00    +0.000 N 
ATOM      2  C   UNL     1      -0.515  12.190  18.433  0.00  0.00    +0.000 A 
ATOM      3  N   UNL     1      -0.198  10.915  18.538  0.00  0.00    +0.000 NA
ATOM      4  C   UNL     1       0.986  10.730  19.214  0.00  0.00    +0.000 A 
ATOM      5  C   UNL     1       1.660  11.892  19.513  0.00  0.00    +0.000 A 
ATOM      6  S   UNL     1       0.754  13.246  18.952  0.00  0.00    +0.000 S 
ATOM      7  H   UNL     1      -1.857  13.683  18.092  0.00  0.00    +0.000 HD
ENDROOT
BRANCH   4   8
ATOM      8  C   UNL     1       1.367   9.376  19.511  0.00  0.00    +0.000 A 
ATOM      9  C   UNL     1       1.914   8.584  18.569  0.00  0.00    +0.000 A 
ATOM     10  C   UNL     1       2.297   7.212  18.854  0.00  0.00    +0.000 A 
ATOM     11  C   UNL     1       3.059   6.450  17.966  0.00  0.00    +0.000 A 
ATOM     12  C   UNL     1       3.417   5.143  18.312  0.00  0.00    +0.000 A 
ATOM     13 BR   UNL     1       4.540   4.149  17.160  0.00  0.00    +0.000 Br
ATOM     14  C   UNL     1       2.983   4.575  19.512  0.00  0.00    +0.000 A 
ATOM     15  C   UNL     1       2.210   5.333  20.392  0.00  0.00    +0.000 A 
ATOM     16  C   UNL     1       1.904   6.652  20.061  0.00  0.00    +0.000 A 
ATOM     17  O   UNL     1       1.237   7.430  21.022  0.00  0.00    +0.000 OA
ATOM     18  C   UNL     1       1.095   8.811  20.869  0.00  0.00    +0.000 A 
ATOM     19  O   UNL     1       0.728   9.501  21.815  0.00  0.00    +0.000 OA
ENDBRANCH   4   8
BRANCH   1  25
ATOM     20  C   UNL     1      -3.382  11.118  17.095  0.00  0.00    +0.000 A 
ATOM     21  C   UNL     1      -4.665  10.555  17.154  0.00  0.00    +0.000 A 
ATOM     22  C   UNL     1      -5.496  10.780  18.250  0.00  0.00    +0.000 A 
ATOM     23  C   UNL     1      -5.040  11.542  19.312  0.00  0.00    +0.000 A 
ATOM     24  C   UNL     1      -3.776  12.116  19.255  0.00  0.00    +0.000 A 
ATOM     25  C   UNL     1      -2.942  11.977  18.127  0.00  0.00    +0.000 A 
BRANCH  20  27
ATOM     26  C   UNL     1      -3.128  10.394  14.857  0.00  0.00    +0.000 C 
ATOM     27  O   UNL     1      -2.516  10.914  16.041  0.00  0.00    +0.000 OA
ENDBRANCH  20  27
ENDBRANCH   1  25
TORSDOF 3
ENDMDL
MODEL 3
REMARK VINA RESULT:      -8.2      4.306      8.525
REMARK  Name = 
REMARK  4 active torsions:
REMARK  status: ('A' for Active; 'I' for Inactive)
REMARK    1  A    between atoms: C_1  and  O_2
REMARK    2  A    between atoms: O_2  and  C_3
REMARK    3  A    between atoms: C_8  and  N_9
REMARK    4  A    between atoms: C_12  and  C_13
REMARK                            x       y       z     vdW  Elec       q    Type
REMARK                         _______ _______ _______ _____ _____    ______ ____
ROOT
ATOM      1  N   UNL     1      -1.305  11.286  19.853  0.00  0.00    +0.000 N 
ATOM      2  C   UNL     1      -0.287  10.453  20.208  0.00  0.00    +0.000 A 
ATOM      3  N   UNL     1       0.453   9.745  19.380  0.00  0.00    +0.000 NA
ATOM      4  C   UNL     1       1.240   8.830  20.042  0.00  0.00    +0.000 A 
ATOM      5  C   UNL     1       1.202   8.932  21.414  0.00  0.00    +0.000 A 
ATOM      6  S   UNL     1       0.123  10.196  21.869  0.00  0.00    +0.000 S 
ATOM      7  H   UNL     1      -1.869  11.673  20.605  0.00  0.00    +0.000 HD
ENDROOT
BRANCH   4   8
ATOM      8  C   UNL     1       1.990   7.904  19.237  0.00  0.00    +0.000 A 
ATOM      9  C   UNL     1       2.166   6.628  19.627  0.00  0.00    +0.000 A 
ATOM     10  C   UNL     1       2.928   5.684  18.828  0.00  0.00    +0.000 A 
ATOM     11  C   UNL     1       2.940   4.314  19.098  0.00  0.00    +0.000 A 
ATOM     12  C   UNL     1       3.673   3.455  18.274  0.00  0.00    +0.000 A 
ATOM     13 BR   UNL     1       3.600   1.589  18.573  0.00  0.00    +0.000 Br
ATOM     14  C   UNL     1       4.432   3.955  17.213  0.00  0.00    +0.000 A 
ATOM     15  C   UNL     1       4.431   5.325  16.952  0.00  0.00    +0.000 A 
ATOM     16  C   UNL     1       3.655   6.166  17.748  0.00  0.00    +0.000 A 
ATOM     17  O   UNL     1       3.570   7.520  17.382  0.00  0.00    +0.000 OA
ATOM     18  C   UNL     1       2.644   8.378  17.979  0.00  0.00    +0.000 A 
ATOM     19  O   UNL     1       2.421   9.481  17.488  0.00  0.00    +0.000 OA
ENDBRANCH   4   8
BRANCH   1  25
ATOM     20  C   UNL     1      -3.375  11.681  18.580  0.00  0.00    +0.000 A 
ATOM     21  C   UNL     1      -4.189  11.382  17.477  0.00  0.00    +0.000 A 
ATOM     22  C   UNL     1      -3.716  10.593  16.431  0.00  0.00    +0.000 A 
ATOM     23  C   UNL     1      -2.414  10.120  16.461  0.00  0.00    +0.000 A 
ATOM     24  C   UNL     1      -1.607  10.398  17.557  0.00  0.00    +0.000 A 
ATOM     25  C   UNL     1      -2.079  11.125  18.670  0.00  0.00    +0.000 A 
BRANCH  20  27
ATOM     26  C   UNL     1      -5.207  12.531  19.811  0.00  0.00    +0.000 C 
ATOM     27  O   UNL     1      -3.790  12.470  19.632  0.00  0.00    +0.000 OA
ENDBRANCH  20  27
ENDBRANCH   1  25
TORSDOF 3
ENDMDL
MODEL 4
REMARK VINA RESULT:      -8.1      3.637      7.983
REMARK  Name = 
REMARK  4 active torsions:
REMARK  status: ('A' for Active; 'I' for Inactive)
REMARK    1  A    between atoms: C_1  and  O_2
REMARK    2  A    between atoms: O_2  and  C_3
REMARK    3  A    between atoms: C_8  and  N_9
REMARK    4  A    between atoms: C_12  and  C_13
REMARK                            x       y       z     vdW  Elec       q    Type
REMARK                         _______ _______ _______ _____ _____    ______ ____
ROOT
ATOM      1  N   UNL     1       2.323   6.715  20.452  0.00  0.00    +0.000 N 
ATOM      2  C   UNL     1       3.068   5.771  19.812  0.00  0.00    +0.000 A 
ATOM      3  N   UNL     1       3.886   5.989  18.802  0.00  0.00    +0.000 NA
ATOM      4  C   UNL     1       4.316   4.818  18.221  0.00  0.00    +0.000 A 
ATOM      5  C   UNL     1       3.927   3.676  18.885  0.00  0.00    +0.000 A 
ATOM      6  S   UNL     1       2.972   4.101  20.254  0.00  0.00    +0.000 S 
ATOM      7  H   UNL     1       1.643   6.384  21.132  0.00  0.00    +0.000 HD
ENDROOT
BRANCH   4   8
ATOM      8  C   UNL     1       5.104   4.929  17.024  0.00  0.00    +0.000 A 
ATOM      9  C   UNL     1       4.972   4.042  16.020  0.00  0.00    +0.000 A 
ATOM     10  C   UNL     1       5.766   4.138  14.808  0.00  0.00    +0.000 A 
ATOM     11  C   UNL     1       5.496   3.370  13.673  0.00  0.00    +0.000 A 
ATOM     12  C   UNL     1       6.283   3.529  12.529  0.00  0.00    +0.000 A 
ATOM     13 BR   UNL     1       5.848   2.570  10.958  0.00  0.00    +0.000 Br
ATOM     14  C   UNL     1       7.366   4.411  12.522  0.00  0.00    +0.000 A 
ATOM     15  C   UNL     1       7.644   5.168  13.659  0.00  0.00    +0.000 A 
ATOM     16  C   UNL     1       6.821   5.041  14.777  0.00  0.00    +0.000 A 
ATOM     17  O   UNL     1       7.046   5.908  15.859  0.00  0.00    +0.000 OA
ATOM     18  C   UNL     1       6.135   6.006  16.914  0.00  0.00    +0.000 A 
ATOM     19  O   UNL     1       6.224   6.927  17.720  0.00  0.00    +0.000 OA
ENDBRANCH   4   8
BRANCH   1  25
ATOM     20  C   UNL     1       1.169   8.885  20.584  0.00  0.00    +0.000 A 
ATOM     21  C   UNL     1       0.600   9.991  19.935  0.00  0.00    +0.000 A 
ATOM     22  C   UNL     1       0.778  10.188  18.567  0.00  0.00    +0.000 A 
ATOM     23  C   UNL     1       1.553   9.299  17.841  0.00  0.00    +0.000 A 
ATOM     24  C   UNL     1       2.107   8.193  18.473  0.00  0.00    +0.000 A 
ATOM     25  C   UNL     1       1.880   7.919  19.837  0.00  0.00    +0.000 A 
BRANCH  20  27
ATOM     26  C   UNL     1       0.029   9.440  22.581  0.00  0.00    +0.000 C 
ATOM     27  O   UNL     1       1.036   8.654  21.937  0.00  0.00    +0.000 OA
ENDBRANCH  20  27
ENDBRANCH   1  25
TORSDOF 3
ENDMDL
MODEL 5
REMARK VINA RESULT:      -8.1      4.536      8.676
REMARK  Name = 
REMARK  4 active torsions:
REMARK  status: ('A' for Active; 'I' for Inactive)
REMARK    1  A    between atoms: C_1  and  O_2
REMARK    2  A    between atoms: O_2  and  C_3
REMARK    3  A    between atoms: C_8  and  N_9
REMARK    4  A    between atoms: C_12  and  C_13
REMARK                            x       y       z     vdW  Elec       q    Type
REMARK                         _______ _______ _______ _____ _____    ______ ____
ROOT
ATOM      1  N   UNL     1      -1.620  12.490  18.941  0.00  0.00    +0.000 N 
ATOM      2  C   UNL     1      -0.610  11.806  19.546  0.00  0.00    +0.000 A 
ATOM      3  N   UNL     1       0.003  10.746  19.059  0.00  0.00    +0.000 NA
ATOM      4  C   UNL     1       0.813  10.141  19.993  0.00  0.00    +0.000 A 
ATOM      5  C   UNL     1       0.929  10.829  21.179  0.00  0.00    +0.000 A 
ATOM      6  S   UNL     1      -0.036  12.256  21.115  0.00  0.00    +0.000 S 
ATOM      7  H   UNL     1      -2.082  13.212  19.488  0.00  0.00    +0.000 HD
ENDROOT
BRANCH   4   8
ATOM      8  C   UNL     1       1.429   8.897  19.620  0.00  0.00    +0.000 A 
ATOM      9  C   UNL     1       1.444   7.848  20.465  0.00  0.00    +0.000 A 
ATOM     10  C   UNL     1       2.069   6.587  20.105  0.00  0.00    +0.000 A 
ATOM     11  C   UNL     1       1.908   5.429  20.867  0.00  0.00    +0.000 A 
ATOM     12  C   UNL     1       2.514   4.240  20.451  0.00  0.00    +0.000 A 
ATOM     13 BR   UNL     1       2.206   2.647  21.422  0.00  0.00    +0.000 Br
ATOM     14  C   UNL     1       3.319   4.208  19.310  0.00  0.00    +0.000 A 
ATOM     15  C   UNL     1       3.491   5.369  18.556  0.00  0.00    +0.000 A 
ATOM     16  C   UNL     1       2.839   6.535  18.950  0.00  0.00    +0.000 A 
ATOM     17  O   UNL     1       2.925   7.653  18.104  0.00  0.00    +0.000 OA
ATOM     18  C   UNL     1       2.123   8.780  18.301  0.00  0.00    +0.000 A 
ATOM     19  O   UNL     1       2.039   9.636  17.427  0.00  0.00    +0.000 OA
ENDBRANCH   4   8
BRANCH   1  25
ATOM     20  C   UNL     1      -3.881  11.708  18.357  0.00  0.00    +0.000 A 
ATOM     21  C   UNL     1      -4.724  10.987  17.499  0.00  0.00    +0.000 A 
ATOM     22  C   UNL     1      -4.260  10.509  16.274  0.00  0.00    +0.000 A 
ATOM     23  C   UNL     1      -2.959  10.776  15.881  0.00  0.00    +0.000 A 
ATOM     24  C   UNL     1      -2.113  11.476  16.732  0.00  0.00    +0.000 A 
ATOM     25  C   UNL     1      -2.525  11.903  18.012  0.00  0.00    +0.000 A 
BRANCH  20  27
ATOM     26  C   UNL     1      -5.699  12.100  19.819  0.00  0.00    +0.000 C 
ATOM     27  O   UNL     1      -4.295  12.215  19.571  0.00  0.00    +0.000 OA
ENDBRANCH  20  27
ENDBRANCH   1  25
TORSDOF 3
ENDMDL
MODEL 6
REMARK VINA RESULT:      -7.9      4.638      7.978
REMARK  Name = 
REMARK  4 active torsions:
REMARK  status: ('A' for Active; 'I' for Inactive)
REMARK    1  A    between atoms: C_1  and  O_2
REMARK    2  A    between atoms: O_2  and  C_3
REMARK    3  A    between atoms: C_8  and  N_9
REMARK    4  A    between atoms: C_12  and  C_13
REMARK                            x       y       z     vdW  Elec       q    Type
REMARK                         _______ _______ _______ _____ _____    ______ ____
ROOT
ATOM      1  N   UNL     1       1.214  13.769  20.452  0.00  0.00    +0.000 N 
ATOM      2  C   UNL     1       0.722  12.500  20.388  0.00  0.00    +0.000 A 
ATOM      3  N   UNL     1       1.431  11.408  20.189  0.00  0.00    +0.000 NA
ATOM      4  C   UNL     1       0.636  10.312  19.945  0.00  0.00    +0.000 A 
ATOM      5  C   UNL     1      -0.713  10.540  20.095  0.00  0.00    +0.000 A 
ATOM      6  S   UNL     1      -0.974  12.188  20.525  0.00  0.00    +0.000 S 
ATOM      7  H   UNL     1       0.536  14.526  20.487  0.00  0.00    +0.000 HD
ENDROOT
BRANCH   4   8
ATOM      8  C   UNL     1       1.298   9.089  19.577  0.00  0.00    +0.000 A 
ATOM      9  C   UNL     1       1.343   8.042  20.422  0.00  0.00    +0.000 A 
ATOM     10  C   UNL     1       2.014   6.803  20.066  0.00  0.00    +0.000 A 
ATOM     11  C   UNL     1       1.887   5.639  20.827  0.00  0.00    +0.000 A 
ATOM     12  C   UNL     1       2.538   4.472  20.416  0.00  0.00    +0.000 A 
ATOM     13 BR   UNL     1       2.277   2.869  21.384  0.00  0.00    +0.000 Br
ATOM     14  C   UNL     1       3.352   4.469  19.281  0.00  0.00    +0.000 A 
ATOM     15  C   UNL     1       3.489   5.635  18.529  0.00  0.00    +0.000 A 
ATOM     16  C   UNL     1       2.794   6.778  18.918  0.00  0.00    +0.000 A 
ATOM     17  O   UNL     1       2.847   7.898  18.072  0.00  0.00    +0.000 OA
ATOM     18  C   UNL     1       2.006   8.997  18.263  0.00  0.00    +0.000 A 
ATOM     19  O   UNL     1       1.898   9.850  17.388  0.00  0.00    +0.000 OA
ENDBRANCH   4   8
BRANCH   1  25
ATOM     20  C   UNL     1       3.601  14.366  20.526  0.00  0.00    +0.000 A 
ATOM     21  C   UNL     1       4.724  14.928  19.902  0.00  0.00    +0.000 A 
ATOM     22  C   UNL     1       4.702  15.256  18.547  0.00  0.00    +0.000 A 
ATOM     23  C   UNL     1       3.567  14.996  17.797  0.00  0.00    +0.000 A 
ATOM     24  C   UNL     1       2.445  14.454  18.411  0.00  0.00    +0.000 A 
ATOM     25  C   UNL     1       2.405  14.186  19.795  0.00  0.00    +0.000 A 
BRANCH  20  27
ATOM     26  C   UNL     1       4.455  14.768  22.695  0.00  0.00    +0.000 C 
ATOM     27  O   UNL     1       3.578  14.010  21.858  0.00  0.00    +0.000 OA
ENDBRANCH  20  27
ENDBRANCH   1  25
TORSDOF 3
ENDMDL
MODEL 7
REMARK VINA RESULT:      -7.8      4.743      8.351
REMARK  Name = 
REMARK  4 active torsions:
REMARK  status: ('A' for Active; 'I' for Inactive)
REMARK    1  A    between atoms: C_1  and  O_2
REMARK    2  A    between atoms: O_2  and  C_3
REMARK    3  A    between atoms: C_8  and  N_9
REMARK    4  A    between atoms: C_12  and  C_13
REMARK                            x       y       z     vdW  Elec       q    Type
REMARK                         _______ _______ _______ _____ _____    ______ ____
ROOT
ATOM      1  N   UNL     1       0.810  13.378  19.338  0.00  0.00    +0.000 N 
ATOM      2  C   UNL     1       0.498  12.067  19.138  0.00  0.00    +0.000 A 
ATOM      3  N   UNL     1       1.280  11.040  19.403  0.00  0.00    +0.000 NA
ATOM      4  C   UNL     1       0.787   9.865  18.882  0.00  0.00    +0.000 A 
ATOM      5  C   UNL     1      -0.467   9.971  18.324  0.00  0.00    +0.000 A 
ATOM      6  S   UNL     1      -1.014  11.601  18.437  0.00  0.00    +0.000 S 
ATOM      7  H   UNL     1       0.159  14.068  18.973  0.00  0.00    +0.000 HD
ENDROOT
BRANCH   4   8
ATOM      8  C   UNL     1       1.620   8.699  18.988  0.00  0.00    +0.000 A 
ATOM      9  C   UNL     1       2.399   8.305  17.963  0.00  0.00    +0.000 A 
ATOM     10  C   UNL     1       3.241   7.125  18.054  0.00  0.00    +0.000 A 
ATOM     11  C   UNL     1       4.212   6.824  17.097  0.00  0.00    +0.000 A 
ATOM     12  C   UNL     1       5.008   5.686  17.256  0.00  0.00    +0.000 A 
ATOM     13 BR   UNL     1       6.396   5.339  16.020  0.00  0.00    +0.000 Br
ATOM     14  C   UNL     1       4.811   4.820  18.335  0.00  0.00    +0.000 A 
ATOM     15  C   UNL     1       3.832   5.113  19.283  0.00  0.00    +0.000 A 
ATOM     16  C   UNL     1       3.080   6.279  19.143  0.00  0.00    +0.000 A 
ATOM     17  O   UNL     1       2.193   6.615  20.178  0.00  0.00    +0.000 OA
ATOM     18  C   UNL     1       1.576   7.867  20.230  0.00  0.00    +0.000 A 
ATOM     19  O   UNL     1       1.000   8.228  21.252  0.00  0.00    +0.000 OA
ENDBRANCH   4   8
BRANCH   1  25
ATOM     20  C   UNL     1       2.746  14.325  20.527  0.00  0.00    +0.000 A 
ATOM     21  C   UNL     1       3.993  14.965  20.484  0.00  0.00    +0.000 A 
ATOM     22  C   UNL     1       4.680  15.117  19.281  0.00  0.00    +0.000 A 
ATOM     23  C   UNL     1       4.141  14.601  18.114  0.00  0.00    +0.000 A 
ATOM     24  C   UNL     1       2.899  13.980  18.145  0.00  0.00    +0.000 A 
ATOM     25  C   UNL     1       2.141  13.882  19.330  0.00  0.00    +0.000 A 
BRANCH  20  27
ATOM     26  C   UNL     1       1.452  15.324  22.237  0.00  0.00    +0.000 C 
ATOM     27  O   UNL     1       2.035  14.136  21.694  0.00  0.00    +0.000 OA
ENDBRANCH  20  27
ENDBRANCH   1  25
TORSDOF 3
ENDMDL
MODEL 8
REMARK VINA RESULT:      -7.8      4.786      8.812
REMARK  Name = 
REMARK  4 active torsions:
REMARK  status: ('A' for Active; 'I' for Inactive)
REMARK    1  A    between atoms: C_1  and  O_2
REMARK    2  A    between atoms: O_2  and  C_3
REMARK    3  A    between atoms: C_8  and  N_9
REMARK    4  A    between atoms: C_12  and  C_13
REMARK                            x       y       z     vdW  Elec       q    Type
REMARK                         _______ _______ _______ _____ _____    ______ ____
ROOT
ATOM      1  N   UNL     1      -1.330  12.531  17.959  0.00  0.00    +0.000 N 
ATOM      2  C   UNL     1      -0.308  12.007  18.692  0.00  0.00    +0.000 A 
ATOM      3  N   UNL     1       0.135  10.769  18.621  0.00  0.00    +0.000 NA
ATOM      4  C   UNL     1       1.013  10.474  19.639  0.00  0.00    +0.000 A 
ATOM      5  C   UNL     1       1.355  11.549  20.427  0.00  0.00    +0.000 A 
ATOM      6  S   UNL     1       0.520  12.954  19.880  0.00  0.00    +0.000 S 
ATOM      7  H   UNL     1      -1.645  13.465  18.207  0.00  0.00    +0.000 HD
ENDROOT
BRANCH   4   8
ATOM      8  C   UNL     1       1.459   9.111  19.748  0.00  0.00    +0.000 A 
ATOM      9  C   UNL     1       2.046   8.487  18.709  0.00  0.00    +0.000 A 
ATOM     10  C   UNL     1       2.495   7.109  18.802  0.00  0.00    +0.000 A 
ATOM     11  C   UNL     1       3.295   6.515  17.824  0.00  0.00    +0.000 A 
ATOM     12  C   UNL     1       3.715   5.192  17.987  0.00  0.00    +0.000 A 
ATOM     13 BR   UNL     1       4.888   4.424  16.717  0.00  0.00    +0.000 Br
ATOM     14  C   UNL     1       3.306   4.441  19.091  0.00  0.00    +0.000 A 
ATOM     15  C   UNL     1       2.496   5.030  20.061  0.00  0.00    +0.000 A 
ATOM     16  C   UNL     1       2.126   6.366  19.916  0.00  0.00    +0.000 A 
ATOM     17  O   UNL     1       1.420   6.969  20.970  0.00  0.00    +0.000 OA
ATOM     18  C   UNL     1       1.211   8.350  21.010  0.00  0.00    +0.000 A 
ATOM     19  O   UNL     1       0.809   8.882  22.040  0.00  0.00    +0.000 OA
ENDBRANCH   4   8
BRANCH   1  25
ATOM     20  C   UNL     1      -3.602  11.605  18.174  0.00  0.00    +0.000 A 
ATOM     21  C   UNL     1      -4.588  10.714  17.728  0.00  0.00    +0.000 A 
ATOM     22  C   UNL     1      -4.436  10.016  16.531  0.00  0.00    +0.000 A 
ATOM     23  C   UNL     1      -3.310  10.228  15.752  0.00  0.00    +0.000 A 
ATOM     24  C   UNL     1      -2.320  11.097  16.195  0.00  0.00    +0.000 A 
ATOM     25  C   UNL     1      -2.405  11.756  17.438  0.00  0.00    +0.000 A 
BRANCH  20  27
ATOM     26  C   UNL     1      -5.027  12.359  19.905  0.00  0.00    +0.000 C 
ATOM     27  O   UNL     1      -3.712  12.331  19.341  0.00  0.00    +0.000 OA
ENDBRANCH  20  27
ENDBRANCH   1  25
TORSDOF 3
ENDMDL
MODEL 9
REMARK VINA RESULT:      -7.8      3.216      4.917
REMARK  Name = 
REMARK  4 active torsions:
REMARK  status: ('A' for Active; 'I' for Inactive)
REMARK    1  A    between atoms: C_1  and  O_2
REMARK    2  A    between atoms: O_2  and  C_3
REMARK    3  A    between atoms: C_8  and  N_9
REMARK    4  A    between atoms: C_12  and  C_13
REMARK                            x       y       z     vdW  Elec       q    Type
REMARK                         _______ _______ _______ _____ _____    ______ ____
ROOT
ATOM      1  N   UNL     1       3.143   5.711  18.818  0.00  0.00    +0.000 N 
ATOM      2  C   UNL     1       2.729   7.008  18.786  0.00  0.00    +0.000 A 
ATOM      3  N   UNL     1       2.085   7.635  19.750  0.00  0.00    +0.000 NA
ATOM      4  C   UNL     1       1.600   8.855  19.340  0.00  0.00    +0.000 A 
ATOM      5  C   UNL     1       1.996   9.232  18.077  0.00  0.00    +0.000 A 
ATOM      6  S   UNL     1       2.980   7.996  17.388  0.00  0.00    +0.000 S 
ATOM      7  H   UNL     1       3.518   5.324  17.955  0.00  0.00    +0.000 HD
ENDROOT
BRANCH   4   8
ATOM      8  C   UNL     1       0.762   9.573  20.262  0.00  0.00    +0.000 A 
ATOM      9  C   UNL     1      -0.140  10.473  19.827  0.00  0.00    +0.000 A 
ATOM     10  C   UNL     1      -0.989  11.209  20.747  0.00  0.00    +0.000 A 
ATOM     11  C   UNL     1      -2.071  11.978  20.314  0.00  0.00    +0.000 A 
ATOM     12  C   UNL     1      -2.865  12.642  21.255  0.00  0.00    +0.000 A 
ATOM     13 BR   UNL     1      -4.395  13.591  20.677  0.00  0.00    +0.000 Br
ATOM     14  C   UNL     1      -2.560  12.586  22.616  0.00  0.00    +0.000 A 
ATOM     15  C   UNL     1      -1.470  11.830  23.047  0.00  0.00    +0.000 A 
ATOM     16  C   UNL     1      -0.717  11.129  22.106  0.00  0.00    +0.000 A 
ATOM     17  O   UNL     1       0.292  10.274  22.580  0.00  0.00    +0.000 OA
ATOM     18  C   UNL     1       0.936   9.369  21.733  0.00  0.00    +0.000 A 
ATOM     19  O   UNL     1       1.634   8.476  22.203  0.00  0.00    +0.000 OA
ENDBRANCH   4   8
BRANCH   1  25
ATOM     20  C   UNL     1       1.605   3.796  18.989  0.00  0.00    +0.000 A 
ATOM     21  C   UNL     1       0.867   2.909  19.786  0.00  0.00    +0.000 A 
ATOM     22  C   UNL     1       1.057   2.859  21.166  0.00  0.00    +0.000 A 
ATOM     23  C   UNL     1       2.009   3.672  21.758  0.00  0.00    +0.000 A 
ATOM     24  C   UNL     1       2.732   4.564  20.978  0.00  0.00    +0.000 A 
ATOM     25  C   UNL     1       2.509   4.699  19.592  0.00  0.00    +0.000 A 
BRANCH  20  27
ATOM     26  C   UNL     1       2.499   3.217  16.877  0.00  0.00    +0.000 C 
ATOM     27  O   UNL     1       1.467   3.873  17.619  0.00  0.00    +0.000 OA
ENDBRANCH  20  27
ENDBRANCH   1  25
TORSDOF 3
ENDMDL
