MODEL 1
REMARK VINA RESULT:      -7.7      0.000      0.000
REMARK  Name = 
REMARK  11 active torsions:
REMARK  status: ('A' for Active; 'I' for Inactive)
REMARK    1  A    between atoms: C_1  and  C_2
REMARK    2  A    between atoms: C_5  and  N_6
REMARK    3  A    between atoms: N_9  and  C_10
REMARK    4  A    between atoms: C_13  and  C_14
REMARK    5  A    between atoms: C_17  and  C_18
REMARK    6  A    between atoms: N_20  and  CA_21
REMARK    7  A    between atoms: CA_21  and  C_22
REMARK    8  A    between atoms: CA_21  and  CB_25
REMARK    9  A    between atoms: C_22  and  OXT_24
REMARK   10  A    between atoms: CB_25  and  CG1_26
REMARK   11  A    between atoms: CB_25  and  CG2_27
REMARK                            x       y       z     vdW  Elec       q    Type
REMARK                         _______ _______ _______ _____ _____    ______ ____
ROOT
ATOM      1  C   UNK A   0      -0.505  11.730  18.606  0.00  0.00    +0.000 A 
ATOM      2  C   UNK A   0       0.876  11.920  18.718  0.00  0.00    +0.000 A 
ATOM      3  C   UNK A   0       1.769  10.867  18.460  0.00  0.00    +0.000 A 
ATOM      4  C   UNK A   0       1.296   9.604  18.078  0.00  0.00    +0.000 A 
ATOM      5  C   UNK A   0      -0.090   9.430  17.942  0.00  0.00    +0.000 A 
ATOM      6  C   UNK A   0      -0.983  10.474  18.227  0.00  0.00    +0.000 A 
ENDROOT
BRANCH   1  10
ATOM      7  N   UNK A   0      -2.789  14.088  20.178  0.00  0.00    +0.000 N 
ATOM      8  C   UNK A   0      -1.870  13.043  20.159  0.00  0.00    +0.000 C 
ATOM      9  O   UNK A   0      -1.466  12.460  21.156  0.00  0.00    +0.000 OA
ATOM     10  N   UNK A   0      -1.431  12.767  18.871  0.00  0.00    +0.000 N 
ATOM     11  H   UNK A   0      -3.392  14.154  19.371  0.00  0.00    +0.000 HD
ATOM     12  H   UNK A   0      -1.406  13.570  18.260  0.00  0.00    +0.000 HD
BRANCH   7  17
ATOM     13  C   UNK A   0      -4.532  16.741  24.973  0.00  0.00    +0.000 C 
ATOM     14  C   UNK A   0      -4.086  16.068  23.708  0.00  0.00    +0.000 A 
ATOM     15  C   UNK A   0      -2.961  16.526  23.021  0.00  0.00    +0.000 A 
ATOM     16  C   UNK A   0      -2.530  15.882  21.853  0.00  0.00    +0.000 A 
ATOM     17  C   UNK A   0      -3.213  14.766  21.352  0.00  0.00    +0.000 A 
ATOM     18  C   UNK A   0      -4.360  14.332  22.015  0.00  0.00    +0.000 A 
ATOM     19  C   UNK A   0      -4.785  14.970  23.191  0.00  0.00    +0.000 A 
ENDBRANCH   7  17
ENDBRANCH   1  10
BRANCH   4  20
ATOM     20  C   UNK A   0       2.206   8.467  17.914  0.00  0.00    +0.000 A 
ATOM     21  N   UNK A   0       3.272   8.469  17.095  0.00  0.00    +0.000 NA
ATOM     22  O   UNK A   0       3.960   7.302  17.436  0.00  0.00    +0.000 OA
ATOM     23  C   UNK A   0       3.232   6.697  18.414  0.00  0.00    +0.000 A 
ATOM     24  N   UNK A   0       2.117   7.337  18.710  0.00  0.00    +0.000 NA
BRANCH  23  25
ATOM     25  C   UNK A   0       3.762   5.531  19.100  0.00  0.00    +0.000 C 
ATOM     26  O   UNK A   0       4.832   5.486  19.711  0.00  0.00    +0.000 OA
ATOM     27  N   VAL A   1       2.929   4.424  19.078  0.00  0.00    +0.000 N 
ATOM     28  H   VAL A   1       2.025   4.564  18.637  0.00  0.00    +0.000 HD
BRANCH  27  29
ATOM     29  CA  VAL A   1       3.133   3.260  19.949  0.00  0.00    +0.000 C 
BRANCH  29  30
ATOM     30  CB  VAL A   1       1.782   2.677  20.456  0.00  0.00    +0.000 C 
ATOM     31  CG1 VAL A   1       1.725   2.593  21.989  0.00  0.00    +0.000 C 
ATOM     32  CG2 VAL A   1       0.566   3.486  19.983  0.00  0.00    +0.000 C 
ENDBRANCH  29  30
BRANCH  29  33
ATOM     33  C   VAL A   1       3.916   2.168  19.180  0.00  0.00    +0.000 C 
ATOM     34  O   VAL A   1       3.572   1.691  18.107  0.00  0.00    +0.000 OA
BRANCH  33  35
ATOM     35  OXT VAL A   1       5.067   1.791  19.786  0.00  0.00    +0.000 OA
ATOM     36  HXT VAL A   1       4.927   1.515  20.723  0.00  0.00    +0.000 HD
ENDBRANCH  33  35
ENDBRANCH  29  33
ENDBRANCH  27  29
ENDBRANCH  23  25
ENDBRANCH   4  20
TORSDOF 8
ENDMDL
MODEL 2
REMARK VINA RESULT:      -7.6      3.486     11.600
REMARK  Name = 
REMARK  11 active torsions:
REMARK  status: ('A' for Active; 'I' for Inactive)
REMARK    1  A    between atoms: C_1  and  C_2
REMARK    2  A    between atoms: C_5  and  N_6
REMARK    3  A    between atoms: N_9  and  C_10
REMARK    4  A    between atoms: C_13  and  C_14
REMARK    5  A    between atoms: C_17  and  C_18
REMARK    6  A    between atoms: N_20  and  CA_21
REMARK    7  A    between atoms: CA_21  and  C_22
REMARK    8  A    between atoms: CA_21  and  CB_25
REMARK    9  A    between atoms: C_22  and  OXT_24
REMARK   10  A    between atoms: CB_25  and  CG1_26
REMARK   11  A    between atoms: CB_25  and  CG2_27
REMARK                            x       y       z     vdW  Elec       q    Type
REMARK                         _______ _______ _______ _____ _____    ______ ____
ROOT
ATOM      1  C   UNK A   0       1.104   8.453  21.108  0.00  0.00    +0.000 A 
ATOM      2  C   UNK A   0       0.232   9.177  20.290  0.00  0.00    +0.000 A 
ATOM      3  C   UNK A   0      -0.449  10.302  20.784  0.00  0.00    +0.000 A 
ATOM      4  C   UNK A   0      -0.263  10.726  22.107  0.00  0.00    +0.000 A 
ATOM      5  C   UNK A   0       0.634  10.010  22.914  0.00  0.00    +0.000 A 
ATOM      6  C   UNK A   0       1.293   8.869  22.427  0.00  0.00    +0.000 A 
ENDROOT
BRANCH   1  10
ATOM      7  N   UNK A   0       2.903   6.001  19.107  0.00  0.00    +0.000 N 
ATOM      8  C   UNK A   0       2.276   7.221  19.345  0.00  0.00    +0.000 C 
ATOM      9  O   UNK A   0       2.190   8.125  18.524  0.00  0.00    +0.000 OA
ATOM     10  N   UNK A   0       1.795   7.307  20.644  0.00  0.00    +0.000 N 
ATOM     11  H   UNK A   0       2.518   5.209  19.599  0.00  0.00    +0.000 HD
ATOM     12  H   UNK A   0       2.338   6.794  21.323  0.00  0.00    +0.000 HD
BRANCH   7  17
ATOM     13  C   UNK A   0       6.263   4.930  14.565  0.00  0.00    +0.000 C 
ATOM     14  C   UNK A   0       5.367   5.208  15.735  0.00  0.00    +0.000 A 
ATOM     15  C   UNK A   0       4.600   4.187  16.299  0.00  0.00    +0.000 A 
ATOM     16  C   UNK A   0       3.782   4.442  17.407  0.00  0.00    +0.000 A 
ATOM     17  C   UNK A   0       3.715   5.720  17.976  0.00  0.00    +0.000 A 
ATOM     18  C   UNK A   0       4.450   6.750  17.390  0.00  0.00    +0.000 A 
ATOM     19  C   UNK A   0       5.279   6.493  16.287  0.00  0.00    +0.000 A 
ENDBRANCH   7  17
ENDBRANCH   1  10
BRANCH   4  20
ATOM     20  C   UNK A   0      -1.048  11.828  22.671  0.00  0.00    +0.000 A 
ATOM     21  N   UNK A   0      -0.529  13.015  23.029  0.00  0.00    +0.000 NA
ATOM     22  O   UNK A   0      -1.650  13.811  23.279  0.00  0.00    +0.000 OA
ATOM     23  C   UNK A   0      -2.738  13.021  23.067  0.00  0.00    +0.000 A 
ATOM     24  N   UNK A   0      -2.430  11.779  22.747  0.00  0.00    +0.000 NA
BRANCH  23  25
ATOM     25  C   UNK A   0      -4.072  13.598  23.092  0.00  0.00    +0.000 C 
ATOM     26  O   UNK A   0      -4.331  14.794  23.248  0.00  0.00    +0.000 OA
ATOM     27  N   VAL A   1      -5.094  12.692  22.862  0.00  0.00    +0.000 N 
ATOM     28  H   VAL A   1      -4.800  11.743  22.648  0.00  0.00    +0.000 HD
BRANCH  27  29
ATOM     29  CA  VAL A   1      -6.467  13.108  22.550  0.00  0.00    +0.000 C 
BRANCH  29  30
ATOM     30  CB  VAL A   1      -6.852  12.765  21.081  0.00  0.00    +0.000 C 
ATOM     31  CG1 VAL A   1      -6.846  14.007  20.175  0.00  0.00    +0.000 C 
ATOM     32  CG2 VAL A   1      -5.928  11.717  20.449  0.00  0.00    +0.000 C 
ENDBRANCH  29  30
BRANCH  29  33
ATOM     33  C   VAL A   1      -7.452  12.412  23.522  0.00  0.00    +0.000 C 
ATOM     34  O   VAL A   1      -7.777  11.235  23.459  0.00  0.00    +0.000 OA
BRANCH  33  35
ATOM     35  OXT VAL A   1      -7.916  13.224  24.503  0.00  0.00    +0.000 OA
ATOM     36  HXT VAL A   1      -8.745  13.693  24.244  0.00  0.00    +0.000 HD
ENDBRANCH  33  35
ENDBRANCH  29  33
ENDBRANCH  27  29
ENDBRANCH  23  25
ENDBRANCH   4  20
TORSDOF 8
ENDMDL
MODEL 3
REMARK VINA RESULT:      -7.5      4.249      5.791
REMARK  Name = 
REMARK  11 active torsions:
REMARK  status: ('A' for Active; 'I' for Inactive)
REMARK    1  A    between atoms: C_1  and  C_2
REMARK    2  A    between atoms: C_5  and  N_6
REMARK    3  A    between atoms: N_9  and  C_10
REMARK    4  A    between atoms: C_13  and  C_14
REMARK    5  A    between atoms: C_17  and  C_18
REMARK    6  A    between atoms: N_20  and  CA_21
REMARK    7  A    between atoms: CA_21  and  C_22
REMARK    8  A    between atoms: CA_21  and  CB_25
REMARK    9  A    between atoms: C_22  and  OXT_24
REMARK   10  A    between atoms: CB_25  and  CG1_26
REMARK   11  A    between atoms: CB_25  and  CG2_27
REMARK                            x       y       z     vdW  Elec       q    Type
REMARK                         _______ _______ _______ _____ _____    ______ ____
ROOT
ATOM      1  C   UNK A   0       1.266   9.368  18.817  0.00  0.00    +0.000 A 
ATOM      2  C   UNK A   0       2.102   9.507  17.705  0.00  0.00    +0.000 A 
ATOM      3  C   UNK A   0       3.033   8.508  17.377  0.00  0.00    +0.000 A 
ATOM      4  C   UNK A   0       3.140   7.346  18.154  0.00  0.00    +0.000 A 
ATOM      5  C   UNK A   0       2.279   7.203  19.253  0.00  0.00    +0.000 A 
ATOM      6  C   UNK A   0       1.368   8.214  19.597  0.00  0.00    +0.000 A 
ENDROOT
BRANCH   1  10
ATOM      7  N   UNK A   0      -1.629  11.565  19.023  0.00  0.00    +0.000 N 
ATOM      8  C   UNK A   0      -0.874  10.517  18.504  0.00  0.00    +0.000 C 
ATOM      9  O   UNK A   0      -1.237   9.793  17.587  0.00  0.00    +0.000 OA
ATOM     10  N   UNK A   0       0.326  10.363  19.182  0.00  0.00    +0.000 N 
ATOM     11  H   UNK A   0      -1.101  12.347  19.381  0.00  0.00    +0.000 HD
ATOM     12  H   UNK A   0       0.289  10.621  20.157  0.00  0.00    +0.000 HD
BRANCH   7  17
ATOM     13  C   UNK A   0      -7.163  12.604  17.855  0.00  0.00    +0.000 C 
ATOM     14  C   UNK A   0      -5.724  12.309  18.161  0.00  0.00    +0.000 A 
ATOM     15  C   UNK A   0      -4.897  11.737  17.193  0.00  0.00    +0.000 A 
ATOM     16  C   UNK A   0      -3.547  11.484  17.472  0.00  0.00    +0.000 A 
ATOM     17  C   UNK A   0      -2.997  11.800  18.720  0.00  0.00    +0.000 A 
ATOM     18  C   UNK A   0      -3.831  12.334  19.702  0.00  0.00    +0.000 A 
ATOM     19  C   UNK A   0      -5.181  12.598  19.419  0.00  0.00    +0.000 A 
ENDBRANCH   7  17
ENDBRANCH   1  10
BRANCH   4  20
ATOM     20  C   UNK A   0       4.180   6.348  17.892  0.00  0.00    +0.000 A 
ATOM     21  N   UNK A   0       4.141   5.084  18.348  0.00  0.00    +0.000 NA
ATOM     22  O   UNK A   0       5.185   4.449  17.672  0.00  0.00    +0.000 OA
ATOM     23  C   UNK A   0       5.767   5.396  16.887  0.00  0.00    +0.000 A 
ATOM     24  N   UNK A   0       5.229   6.593  17.022  0.00  0.00    +0.000 NA
BRANCH  23  25
ATOM     25  C   UNK A   0       6.795   5.018  15.931  0.00  0.00    +0.000 C 
ATOM     26  O   UNK A   0       7.895   4.540  16.217  0.00  0.00    +0.000 OA
ATOM     27  N   VAL A   1       6.433   5.180  14.604  0.00  0.00    +0.000 N 
ATOM     28  H   VAL A   1       5.479   5.489  14.444  0.00  0.00    +0.000 HD
BRANCH  27  29
ATOM     29  CA  VAL A   1       7.193   4.587  13.496  0.00  0.00    +0.000 C 
BRANCH  29  30
ATOM     30  CB  VAL A   1       6.254   3.988  12.409  0.00  0.00    +0.000 C 
ATOM     31  CG1 VAL A   1       6.883   2.779  11.701  0.00  0.00    +0.000 C 
ATOM     32  CG2 VAL A   1       4.893   3.551  12.968  0.00  0.00    +0.000 C 
ENDBRANCH  29  30
BRANCH  29  33
ATOM     33  C   VAL A   1       8.106   5.664  12.861  0.00  0.00    +0.000 C 
ATOM     34  O   VAL A   1       7.862   6.255  11.817  0.00  0.00    +0.000 OA
BRANCH  33  35
ATOM     35  OXT VAL A   1       9.215   5.939  13.588  0.00  0.00    +0.000 OA
ATOM     36  HXT VAL A   1      10.047   5.724  13.104  0.00  0.00    +0.000 HD
ENDBRANCH  33  35
ENDBRANCH  29  33
ENDBRANCH  27  29
ENDBRANCH  23  25
ENDBRANCH   4  20
TORSDOF 8
ENDMDL
MODEL 4
REMARK VINA RESULT:      -7.5      3.954      5.167
REMARK  Name = 
REMARK  11 active torsions:
REMARK  status: ('A' for Active; 'I' for Inactive)
REMARK    1  A    between atoms: C_1  and  C_2
REMARK    2  A    between atoms: C_5  and  N_6
REMARK    3  A    between atoms: N_9  and  C_10
REMARK    4  A    between atoms: C_13  and  C_14
REMARK    5  A    between atoms: C_17  and  C_18
REMARK    6  A    between atoms: N_20  and  CA_21
REMARK    7  A    between atoms: CA_21  and  C_22
REMARK    8  A    between atoms: CA_21  and  CB_25
REMARK    9  A    between atoms: C_22  and  OXT_24
REMARK   10  A    between atoms: CB_25  and  CG1_26
REMARK   11  A    between atoms: CB_25  and  CG2_27
REMARK                            x       y       z     vdW  Elec       q    Type
REMARK                         _______ _______ _______ _____ _____    ______ ____
ROOT
ATOM      1  C   UNK A   0       1.456   9.390  19.512  0.00  0.00    +0.000 A 
ATOM      2  C   UNK A   0       1.852   9.392  18.171  0.00  0.00    +0.000 A 
ATOM      3  C   UNK A   0       2.454   8.260  17.598  0.00  0.00    +0.000 A 
ATOM      4  C   UNK A   0       2.667   7.101  18.358  0.00  0.00    +0.000 A 
ATOM      5  C   UNK A   0       2.242   7.098  19.695  0.00  0.00    +0.000 A 
ATOM      6  C   UNK A   0       1.665   8.239  20.275  0.00  0.00    +0.000 A 
ENDROOT
BRANCH   1  10
ATOM      7  N   UNK A   0      -0.867  11.930  20.697  0.00  0.00    +0.000 N 
ATOM      8  C   UNK A   0      -0.508  10.756  20.041  0.00  0.00    +0.000 C 
ATOM      9  O   UNK A   0      -1.299  10.001  19.491  0.00  0.00    +0.000 OA
ATOM     10  N   UNK A   0       0.857  10.520  20.122  0.00  0.00    +0.000 N 
ATOM     11  H   UNK A   0      -0.183  12.671  20.671  0.00  0.00    +0.000 HD
ATOM     12  H   UNK A   0       1.290  10.866  20.966  0.00  0.00    +0.000 HD
BRANCH   7  17
ATOM     13  C   UNK A   0      -6.236  13.477  22.059  0.00  0.00    +0.000 C 
ATOM     14  C   UNK A   0      -4.843  13.052  21.696  0.00  0.00    +0.000 A 
ATOM     15  C   UNK A   0      -4.447  12.991  20.359  0.00  0.00    +0.000 A 
ATOM     16  C   UNK A   0      -3.140  12.616  20.022  0.00  0.00    +0.000 A 
ATOM     17  C   UNK A   0      -2.202  12.299  21.012  0.00  0.00    +0.000 A 
ATOM     18  C   UNK A   0      -2.607  12.321  22.346  0.00  0.00    +0.000 A 
ATOM     19  C   UNK A   0      -3.914  12.707  22.685  0.00  0.00    +0.000 A 
ENDBRANCH   7  17
ENDBRANCH   1  10
BRANCH   4  20
ATOM     20  C   UNK A   0       3.394   5.953  17.809  0.00  0.00    +0.000 A 
ATOM     21  N   UNK A   0       2.840   4.748  17.589  0.00  0.00    +0.000 NA
ATOM     22  O   UNK A   0       3.812   4.060  16.858  0.00  0.00    +0.000 OA
ATOM     23  C   UNK A   0       4.866   4.909  16.723  0.00  0.00    +0.000 A 
ATOM     24  N   UNK A   0       4.690   6.065  17.334  0.00  0.00    +0.000 NA
BRANCH  23  25
ATOM     25  C   UNK A   0       5.988   4.549  15.872  0.00  0.00    +0.000 C 
ATOM     26  O   UNK A   0       7.135   4.318  16.261  0.00  0.00    +0.000 OA
ATOM     27  N   VAL A   1       5.670   4.414  14.530  0.00  0.00    +0.000 N 
ATOM     28  H   VAL A   1       4.688   4.527  14.298  0.00  0.00    +0.000 HD
BRANCH  27  29
ATOM     29  CA  VAL A   1       6.571   3.774  13.563  0.00  0.00    +0.000 C 
BRANCH  29  30
ATOM     30  CB  VAL A   1       5.786   2.914  12.529  0.00  0.00    +0.000 C 
ATOM     31  CG1 VAL A   1       4.689   3.720  11.817  0.00  0.00    +0.000 C 
ATOM     32  CG2 VAL A   1       6.691   2.297  11.454  0.00  0.00    +0.000 C 
ENDBRANCH  29  30
BRANCH  29  33
ATOM     33  C   VAL A   1       7.390   4.859  12.822  0.00  0.00    +0.000 C 
ATOM     34  O   VAL A   1       7.373   5.039  11.612  0.00  0.00    +0.000 OA
BRANCH  33  35
ATOM     35  OXT VAL A   1       8.125   5.645  13.645  0.00  0.00    +0.000 OA
ATOM     36  HXT VAL A   1       7.821   5.598  14.582  0.00  0.00    +0.000 HD
ENDBRANCH  33  35
ENDBRANCH  29  33
ENDBRANCH  27  29
ENDBRANCH  23  25
ENDBRANCH   4  20
TORSDOF 8
ENDMDL
MODEL 5
REMARK VINA RESULT:      -7.5      4.010      5.289
REMARK  Name = 
REMARK  11 active torsions:
REMARK  status: ('A' for Active; 'I' for Inactive)
REMARK    1  A    between atoms: C_1  and  C_2
REMARK    2  A    between atoms: C_5  and  N_6
REMARK    3  A    between atoms: N_9  and  C_10
REMARK    4  A    between atoms: C_13  and  C_14
REMARK    5  A    between atoms: C_17  and  C_18
REMARK    6  A    between atoms: N_20  and  CA_21
REMARK    7  A    between atoms: CA_21  and  C_22
REMARK    8  A    between atoms: CA_21  and  CB_25
REMARK    9  A    between atoms: C_22  and  OXT_24
REMARK   10  A    between atoms: CB_25  and  CG1_26
REMARK   11  A    between atoms: CB_25  and  CG2_27
REMARK                            x       y       z     vdW  Elec       q    Type
REMARK                         _______ _______ _______ _____ _____    ______ ____
ROOT
ATOM      1  C   UNK A   0       1.495   8.567  20.226  0.00  0.00    +0.000 A 
ATOM      2  C   UNK A   0       1.870   8.806  18.901  0.00  0.00    +0.000 A 
ATOM      3  C   UNK A   0       2.416   7.781  18.112  0.00  0.00    +0.000 A 
ATOM      4  C   UNK A   0       2.592   6.492  18.636  0.00  0.00    +0.000 A 
ATOM      5  C   UNK A   0       2.187   6.253  19.958  0.00  0.00    +0.000 A 
ATOM      6  C   UNK A   0       1.667   7.286  20.754  0.00  0.00    +0.000 A 
ENDROOT
BRANCH   1  10
ATOM      7  N   UNK A   0      -0.548  11.217  21.660  0.00  0.00    +0.000 N 
ATOM      8  C   UNK A   0      -0.216  10.250  20.715  0.00  0.00    +0.000 C 
ATOM      9  O   UNK A   0      -0.890   9.990  19.727  0.00  0.00    +0.000 OA
ATOM     10  N   UNK A   0       0.953   9.583  21.051  0.00  0.00    +0.000 N 
ATOM     11  H   UNK A   0       0.232  11.675  22.107  0.00  0.00    +0.000 HD
ATOM     12  H   UNK A   0       1.114   9.499  22.044  0.00  0.00    +0.000 HD
BRANCH   7  17
ATOM     13  C   UNK A   0      -5.666  13.832  21.863  0.00  0.00    +0.000 C 
ATOM     14  C   UNK A   0      -4.320  13.169  21.821  0.00  0.00    +0.000 A 
ATOM     15  C   UNK A   0      -3.750  12.649  22.984  0.00  0.00    +0.000 A 
ATOM     16  C   UNK A   0      -2.505  12.009  22.939  0.00  0.00    +0.000 A 
ATOM     17  C   UNK A   0      -1.806  11.873  21.733  0.00  0.00    +0.000 A 
ATOM     18  C   UNK A   0      -2.355  12.426  20.578  0.00  0.00    +0.000 A 
ATOM     19  C   UNK A   0      -3.608  13.058  20.619  0.00  0.00    +0.000 A 
ENDBRANCH   7  17
ENDBRANCH   1  10
BRANCH   4  20
ATOM     20  C   UNK A   0       3.262   5.441  17.865  0.00  0.00    +0.000 A 
ATOM     21  N   UNK A   0       2.631   4.381  17.331  0.00  0.00    +0.000 NA
ATOM     22  O   UNK A   0       3.594   3.795  16.508  0.00  0.00    +0.000 OA
ATOM     23  C   UNK A   0       4.721   4.546  16.638  0.00  0.00    +0.000 A 
ATOM     24  N   UNK A   0       4.594   5.537  17.500  0.00  0.00    +0.000 NA
BRANCH  23  25
ATOM     25  C   UNK A   0       5.870   4.290  15.785  0.00  0.00    +0.000 C 
ATOM     26  O   UNK A   0       6.990   3.953  16.176  0.00  0.00    +0.000 OA
ATOM     27  N   VAL A   1       5.612   4.396  14.427  0.00  0.00    +0.000 N 
ATOM     28  H   VAL A   1       4.646   4.584  14.178  0.00  0.00    +0.000 HD
BRANCH  27  29
ATOM     29  CA  VAL A   1       6.537   3.892  13.404  0.00  0.00    +0.000 C 
BRANCH  29  30
ATOM     30  CB  VAL A   1       5.782   3.445  12.118  0.00  0.00    +0.000 C 
ATOM     31  CG1 VAL A   1       6.224   2.054  11.639  0.00  0.00    +0.000 C 
ATOM     32  CG2 VAL A   1       4.258   3.420  12.296  0.00  0.00    +0.000 C 
ENDBRANCH  29  30
BRANCH  29  33
ATOM     33  C   VAL A   1       7.564   4.995  13.048  0.00  0.00    +0.000 C 
ATOM     34  O   VAL A   1       7.793   5.393  11.914  0.00  0.00    +0.000 OA
BRANCH  33  35
ATOM     35  OXT VAL A   1       8.188   5.528  14.126  0.00  0.00    +0.000 OA
ATOM     36  HXT VAL A   1       7.560   5.749  14.854  0.00  0.00    +0.000 HD
ENDBRANCH  33  35
ENDBRANCH  29  33
ENDBRANCH  27  29
ENDBRANCH  23  25
ENDBRANCH   4  20
TORSDOF 8
ENDMDL
MODEL 6
REMARK VINA RESULT:      -7.5      4.238      5.859
REMARK  Name = 
REMARK  11 active torsions:
REMARK  status: ('A' for Active; 'I' for Inactive)
REMARK    1  A    between atoms: C_1  and  C_2
REMARK    2  A    between atoms: C_5  and  N_6
REMARK    3  A    between atoms: N_9  and  C_10
REMARK    4  A    between atoms: C_13  and  C_14
REMARK    5  A    between atoms: C_17  and  C_18
REMARK    6  A    between atoms: N_20  and  CA_21
REMARK    7  A    between atoms: CA_21  and  C_22
REMARK    8  A    between atoms: CA_21  and  CB_25
REMARK    9  A    between atoms: C_22  and  OXT_24
REMARK   10  A    between atoms: CB_25  and  CG1_26
REMARK   11  A    between atoms: CB_25  and  CG2_27
REMARK                            x       y       z     vdW  Elec       q    Type
REMARK                         _______ _______ _______ _____ _____    ______ ____
ROOT
ATOM      1  C   UNK A   0       1.320   9.330  18.833  0.00  0.00    +0.000 A 
ATOM      2  C   UNK A   0       2.115   9.403  17.686  0.00  0.00    +0.000 A 
ATOM      3  C   UNK A   0       3.053   8.399  17.397  0.00  0.00    +0.000 A 
ATOM      4  C   UNK A   0       3.208   7.297  18.250  0.00  0.00    +0.000 A 
ATOM      5  C   UNK A   0       2.387   7.218  19.385  0.00  0.00    +0.000 A 
ATOM      6  C   UNK A   0       1.469   8.236  19.688  0.00  0.00    +0.000 A 
ENDROOT
BRANCH   1  10
ATOM      7  N   UNK A   0      -1.584  11.523  18.948  0.00  0.00    +0.000 N 
ATOM      8  C   UNK A   0      -0.822  10.461  18.468  0.00  0.00    +0.000 C 
ATOM      9  O   UNK A   0      -1.177   9.705  17.573  0.00  0.00    +0.000 OA
ATOM     10  N   UNK A   0       0.374  10.333  19.159  0.00  0.00    +0.000 N 
ATOM     11  H   UNK A   0      -1.061  12.318  19.284  0.00  0.00    +0.000 HD
ATOM     12  H   UNK A   0       0.330  10.622  20.125  0.00  0.00    +0.000 HD
BRANCH   7  17
ATOM     13  C   UNK A   0      -7.114  12.328  17.592  0.00  0.00    +0.000 C 
ATOM     14  C   UNK A   0      -5.668  12.142  17.947  0.00  0.00    +0.000 A 
ATOM     15  C   UNK A   0      -5.223  12.374  19.249  0.00  0.00    +0.000 A 
ATOM     16  C   UNK A   0      -3.877  12.177  19.585  0.00  0.00    +0.000 A 
ATOM     17  C   UNK A   0      -2.951  11.742  18.629  0.00  0.00    +0.000 A 
ATOM     18  C   UNK A   0      -3.385  11.547  17.319  0.00  0.00    +0.000 A 
ATOM     19  C   UNK A   0      -4.736  11.734  16.984  0.00  0.00    +0.000 A 
ENDBRANCH   7  17
ENDBRANCH   1  10
BRANCH   4  20
ATOM     20  C   UNK A   0       4.257   6.300  18.023  0.00  0.00    +0.000 A 
ATOM     21  N   UNK A   0       4.262   5.074  18.576  0.00  0.00    +0.000 NA
ATOM     22  O   UNK A   0       5.291   4.407  17.908  0.00  0.00    +0.000 OA
ATOM     23  C   UNK A   0       5.823   5.300  17.029  0.00  0.00    +0.000 A 
ATOM     24  N   UNK A   0       5.265   6.495  17.094  0.00  0.00    +0.000 NA
BRANCH  23  25
ATOM     25  C   UNK A   0       6.819   4.867  16.064  0.00  0.00    +0.000 C 
ATOM     26  O   UNK A   0       7.828   4.208  16.326  0.00  0.00    +0.000 OA
ATOM     27  N   VAL A   1       6.532   5.204  14.751  0.00  0.00    +0.000 N 
ATOM     28  H   VAL A   1       5.639   5.663  14.602  0.00  0.00    +0.000 HD
BRANCH  27  29
ATOM     29  CA  VAL A   1       7.239   4.613  13.608  0.00  0.00    +0.000 C 
BRANCH  29  30
ATOM     30  CB  VAL A   1       6.248   4.036  12.555  0.00  0.00    +0.000 C 
ATOM     31  CG1 VAL A   1       6.822   2.810  11.828  0.00  0.00    +0.000 C 
ATOM     32  CG2 VAL A   1       4.897   3.634  13.161  0.00  0.00    +0.000 C 
ENDBRANCH  29  30
BRANCH  29  33
ATOM     33  C   VAL A   1       8.138   5.685  12.945  0.00  0.00    +0.000 C 
ATOM     34  O   VAL A   1       9.225   6.046  13.377  0.00  0.00    +0.000 OA
BRANCH  33  35
ATOM     35  OXT VAL A   1       7.632   6.186  11.793  0.00  0.00    +0.000 OA
ATOM     36  HXT VAL A   1       6.712   5.874  11.619  0.00  0.00    +0.000 HD
ENDBRANCH  33  35
ENDBRANCH  29  33
ENDBRANCH  27  29
ENDBRANCH  23  25
ENDBRANCH   4  20
TORSDOF 8
ENDMDL
MODEL 7
REMARK VINA RESULT:      -7.4      0.485      1.276
REMARK  Name = 
REMARK  11 active torsions:
REMARK  status: ('A' for Active; 'I' for Inactive)
REMARK    1  A    between atoms: C_1  and  C_2
REMARK    2  A    between atoms: C_5  and  N_6
REMARK    3  A    between atoms: N_9  and  C_10
REMARK    4  A    between atoms: C_13  and  C_14
REMARK    5  A    between atoms: C_17  and  C_18
REMARK    6  A    between atoms: N_20  and  CA_21
REMARK    7  A    between atoms: CA_21  and  C_22
REMARK    8  A    between atoms: CA_21  and  CB_25
REMARK    9  A    between atoms: C_22  and  OXT_24
REMARK   10  A    between atoms: CB_25  and  CG1_26
REMARK   11  A    between atoms: CB_25  and  CG2_27
REMARK                            x       y       z     vdW  Elec       q    Type
REMARK                         _______ _______ _______ _____ _____    ______ ____
ROOT
ATOM      1  C   UNK A   0      -0.673  11.906  19.045  0.00  0.00    +0.000 A 
ATOM      2  C   UNK A   0      -1.130  10.589  19.143  0.00  0.00    +0.000 A 
ATOM      3  C   UNK A   0      -0.260   9.508  18.928  0.00  0.00    +0.000 A 
ATOM      4  C   UNK A   0       1.089   9.727  18.615  0.00  0.00    +0.000 A 
ATOM      5  C   UNK A   0       1.546  11.051  18.544  0.00  0.00    +0.000 A 
ATOM      6  C   UNK A   0       0.669  12.131  18.732  0.00  0.00    +0.000 A 
ENDROOT
BRANCH   1  10
ATOM      7  N   UNK A   0      -2.913  14.415  20.435  0.00  0.00    +0.000 N 
ATOM      8  C   UNK A   0      -2.097  13.289  20.479  0.00  0.00    +0.000 C 
ATOM      9  O   UNK A   0      -1.874  12.637  21.491  0.00  0.00    +0.000 OA
ATOM     10  N   UNK A   0      -1.528  13.017  19.243  0.00  0.00    +0.000 N 
ATOM     11  H   UNK A   0      -3.403  14.565  19.565  0.00  0.00    +0.000 HD
ATOM     12  H   UNK A   0      -1.355  13.834  18.676  0.00  0.00    +0.000 HD
BRANCH   7  17
ATOM     13  C   UNK A   0      -4.918  17.242  25.024  0.00  0.00    +0.000 C 
ATOM     14  C   UNK A   0      -4.388  16.486  23.841  0.00  0.00    +0.000 A 
ATOM     15  C   UNK A   0      -5.085  15.390  23.331  0.00  0.00    +0.000 A 
ATOM     16  C   UNK A   0      -4.602  14.699  22.212  0.00  0.00    +0.000 A 
ATOM     17  C   UNK A   0      -3.417  15.091  21.578  0.00  0.00    +0.000 A 
ATOM     18  C   UNK A   0      -2.698  16.161  22.110  0.00  0.00    +0.000 A 
ATOM     19  C   UNK A   0      -3.187  16.861  23.225  0.00  0.00    +0.000 A 
ENDBRANCH   7  17
ENDBRANCH   1  10
BRANCH   4  20
ATOM     20  C   UNK A   0       1.983   8.616  18.278  0.00  0.00    +0.000 A 
ATOM     21  N   UNK A   0       2.983   8.699  17.383  0.00  0.00    +0.000 NA
ATOM     22  O   UNK A   0       3.695   7.511  17.561  0.00  0.00    +0.000 OA
ATOM     23  C   UNK A   0       3.045   6.814  18.533  0.00  0.00    +0.000 A 
ATOM     24  N   UNK A   0       1.956   7.417  18.971  0.00  0.00    +0.000 NA
BRANCH  23  25
ATOM     25  C   UNK A   0       3.626   5.594  19.066  0.00  0.00    +0.000 C 
ATOM     26  O   UNK A   0       4.783   5.472  19.475  0.00  0.00    +0.000 OA
ATOM     27  N   VAL A   1       2.746   4.527  19.149  0.00  0.00    +0.000 N 
ATOM     28  H   VAL A   1       1.787   4.727  18.883  0.00  0.00    +0.000 HD
BRANCH  27  29
ATOM     29  CA  VAL A   1       3.040   3.314  19.923  0.00  0.00    +0.000 C 
BRANCH  29  30
ATOM     30  CB  VAL A   1       1.745   2.520  20.262  0.00  0.00    +0.000 C 
ATOM     31  CG1 VAL A   1       1.344   2.666  21.738  0.00  0.00    +0.000 C 
ATOM     32  CG2 VAL A   1       0.543   2.940  19.404  0.00  0.00    +0.000 C 
ENDBRANCH  29  30
BRANCH  29  33
ATOM     33  C   VAL A   1       4.010   2.411  19.122  0.00  0.00    +0.000 C 
ATOM     34  O   VAL A   1       3.744   1.881  18.052  0.00  0.00    +0.000 OA
BRANCH  33  35
ATOM     35  OXT VAL A   1       5.229   2.276  19.696  0.00  0.00    +0.000 OA
ATOM     36  HXT VAL A   1       5.201   2.393  20.675  0.00  0.00    +0.000 HD
ENDBRANCH  33  35
ENDBRANCH  29  33
ENDBRANCH  27  29
ENDBRANCH  23  25
ENDBRANCH   4  20
TORSDOF 8
ENDMDL
MODEL 8
REMARK VINA RESULT:      -7.3      4.239      5.680
REMARK  Name = 
REMARK  11 active torsions:
REMARK  status: ('A' for Active; 'I' for Inactive)
REMARK    1  A    between atoms: C_1  and  C_2
REMARK    2  A    between atoms: C_5  and  N_6
REMARK    3  A    between atoms: N_9  and  C_10
REMARK    4  A    between atoms: C_13  and  C_14
REMARK    5  A    between atoms: C_17  and  C_18
REMARK    6  A    between atoms: N_20  and  CA_21
REMARK    7  A    between atoms: CA_21  and  C_22
REMARK    8  A    between atoms: CA_21  and  CB_25
REMARK    9  A    between atoms: C_22  and  OXT_24
REMARK   10  A    between atoms: CB_25  and  CG1_26
REMARK   11  A    between atoms: CB_25  and  CG2_27
REMARK                            x       y       z     vdW  Elec       q    Type
REMARK                         _______ _______ _______ _____ _____    ______ ____
ROOT
ATOM      1  C   UNK A   0       1.109   9.232  19.269  0.00  0.00    +0.000 A 
ATOM      2  C   UNK A   0       1.544   8.175  20.073  0.00  0.00    +0.000 A 
ATOM      3  C   UNK A   0       2.449   7.221  19.579  0.00  0.00    +0.000 A 
ATOM      4  C   UNK A   0       2.940   7.312  18.269  0.00  0.00    +0.000 A 
ATOM      5  C   UNK A   0       2.520   8.391  17.477  0.00  0.00    +0.000 A 
ATOM      6  C   UNK A   0       1.594   9.329  17.962  0.00  0.00    +0.000 A 
ENDROOT
BRANCH   1  10
ATOM      7  N   UNK A   0      -1.701  11.513  19.655  0.00  0.00    +0.000 N 
ATOM      8  C   UNK A   0      -0.957  10.524  19.018  0.00  0.00    +0.000 C 
ATOM      9  O   UNK A   0      -1.286   9.975  17.976  0.00  0.00    +0.000 OA
ATOM     10  N   UNK A   0       0.188  10.203  19.733  0.00  0.00    +0.000 N 
ATOM     11  H   UNK A   0      -1.168  12.200  20.166  0.00  0.00    +0.000 HD
ATOM     12  H   UNK A   0       0.096  10.302  20.734  0.00  0.00    +0.000 HD
BRANCH   7  17
ATOM     13  C   UNK A   0      -7.115  12.828  18.231  0.00  0.00    +0.000 C 
ATOM     14  C   UNK A   0      -5.696  12.508  18.597  0.00  0.00    +0.000 A 
ATOM     15  C   UNK A   0      -5.139  13.004  19.776  0.00  0.00    +0.000 A 
ATOM     16  C   UNK A   0      -3.821  12.685  20.129  0.00  0.00    +0.000 A 
ATOM     17  C   UNK A   0      -3.035  11.862  19.313  0.00  0.00    +0.000 A 
ATOM     18  C   UNK A   0      -3.576  11.398  18.115  0.00  0.00    +0.000 A 
ATOM     19  C   UNK A   0      -4.900  11.708  17.766  0.00  0.00    +0.000 A 
ENDBRANCH   7  17
ENDBRANCH   1  10
BRANCH   4  20
ATOM     20  C   UNK A   0       3.795   6.266  17.702  0.00  0.00    +0.000 A 
ATOM     21  N   UNK A   0       3.414   4.986  17.544  0.00  0.00    +0.000 NA
ATOM     22  O   UNK A   0       4.432   4.425  16.769  0.00  0.00    +0.000 OA
ATOM     23  C   UNK A   0       5.340   5.415  16.550  0.00  0.00    +0.000 A 
ATOM     24  N   UNK A   0       5.031   6.551  17.145  0.00  0.00    +0.000 NA
BRANCH  23  25
ATOM     25  C   UNK A   0       6.451   5.196  15.639  0.00  0.00    +0.000 C 
ATOM     26  O   UNK A   0       7.643   5.181  15.956  0.00  0.00    +0.000 OA
ATOM     27  N   VAL A   1       6.078   4.932  14.331  0.00  0.00    +0.000 N 
ATOM     28  H   VAL A   1       5.078   4.867  14.165  0.00  0.00    +0.000 HD
BRANCH  27  29
ATOM     29  CA  VAL A   1       7.011   4.394  13.333  0.00  0.00    +0.000 C 
BRANCH  29  30
ATOM     30  CB  VAL A   1       6.260   3.753  12.130  0.00  0.00    +0.000 C 
ATOM     31  CG1 VAL A   1       6.890   2.421  11.696  0.00  0.00    +0.000 C 
ATOM     32  CG2 VAL A   1       4.774   3.499  12.419  0.00  0.00    +0.000 C 
ENDBRANCH  29  30
BRANCH  29  33
ATOM     33  C   VAL A   1       7.936   5.528  12.825  0.00  0.00    +0.000 C 
ATOM     34  O   VAL A   1       7.727   6.201  11.825  0.00  0.00    +0.000 OA
BRANCH  33  35
ATOM     35  OXT VAL A   1       9.012   5.751  13.617  0.00  0.00    +0.000 OA
ATOM     36  HXT VAL A   1       8.804   6.342  14.379  0.00  0.00    +0.000 HD
ENDBRANCH  33  35
ENDBRANCH  29  33
ENDBRANCH  27  29
ENDBRANCH  23  25
ENDBRANCH   4  20
TORSDOF 8
ENDMDL
MODEL 9
REMARK VINA RESULT:      -7.2      2.890      3.903
REMARK  Name = 
REMARK  11 active torsions:
REMARK  status: ('A' for Active; 'I' for Inactive)
REMARK    1  A    between atoms: C_1  and  C_2
REMARK    2  A    between atoms: C_5  and  N_6
REMARK    3  A    between atoms: N_9  and  C_10
REMARK    4  A    between atoms: C_13  and  C_14
REMARK    5  A    between atoms: C_17  and  C_18
REMARK    6  A    between atoms: N_20  and  CA_21
REMARK    7  A    between atoms: CA_21  and  C_22
REMARK    8  A    between atoms: CA_21  and  CB_25
REMARK    9  A    between atoms: C_22  and  OXT_24
REMARK   10  A    between atoms: CB_25  and  CG1_26
REMARK   11  A    between atoms: CB_25  and  CG2_27
REMARK                            x       y       z     vdW  Elec       q    Type
REMARK                         _______ _______ _______ _____ _____    ______ ____
ROOT
ATOM      1  C   UNK A   0      -0.706  10.666  22.474  0.00  0.00    +0.000 A 
ATOM      2  C   UNK A   0      -0.066   9.488  22.868  0.00  0.00    +0.000 A 
ATOM      3  C   UNK A   0       0.726   8.763  21.963  0.00  0.00    +0.000 A 
ATOM      4  C   UNK A   0       0.897   9.209  20.645  0.00  0.00    +0.000 A 
ATOM      5  C   UNK A   0       0.272  10.407  20.265  0.00  0.00    +0.000 A 
ATOM      6  C   UNK A   0      -0.542  11.116  21.162  0.00  0.00    +0.000 A 
ENDROOT
BRANCH   1  10
ATOM      7  N   UNK A   0      -3.142  12.939  23.941  0.00  0.00    +0.000 N 
ATOM      8  C   UNK A   0      -2.475  12.308  22.895  0.00  0.00    +0.000 C 
ATOM      9  O   UNK A   0      -2.721  12.488  21.710  0.00  0.00    +0.000 OA
ATOM     10  N   UNK A   0      -1.522  11.413  23.359  0.00  0.00    +0.000 N 
ATOM     11  H   UNK A   0      -2.592  13.110  24.769  0.00  0.00    +0.000 HD
ATOM     12  H   UNK A   0      -1.752  10.981  24.242  0.00  0.00    +0.000 HD
BRANCH   7  17
ATOM     13  C   UNK A   0      -7.911  16.086  23.288  0.00  0.00    +0.000 C 
ATOM     14  C   UNK A   0      -6.674  15.259  23.481  0.00  0.00    +0.000 A 
ATOM     15  C   UNK A   0      -6.748  13.866  23.492  0.00  0.00    +0.000 A 
ATOM     16  C   UNK A   0      -5.588  13.094  23.648  0.00  0.00    +0.000 A 
ATOM     17  C   UNK A   0      -4.334  13.699  23.794  0.00  0.00    +0.000 A 
ATOM     18  C   UNK A   0      -4.263  15.091  23.823  0.00  0.00    +0.000 A 
ATOM     19  C   UNK A   0      -5.423  15.864  23.655  0.00  0.00    +0.000 A 
ENDBRANCH   7  17
ENDBRANCH   1  10
BRANCH   4  20
ATOM     20  C   UNK A   0       1.626   8.408  19.658  0.00  0.00    +0.000 A 
ATOM     21  N   UNK A   0       1.949   8.843  18.427  0.00  0.00    +0.000 NA
ATOM     22  O   UNK A   0       2.822   7.865  17.944  0.00  0.00    +0.000 OA
ATOM     23  C   UNK A   0       2.926   6.924  18.921  0.00  0.00    +0.000 A 
ATOM     24  N   UNK A   0       2.172   7.175  19.974  0.00  0.00    +0.000 NA
BRANCH  23  25
ATOM     25  C   UNK A   0       3.889   5.843  18.791  0.00  0.00    +0.000 C 
ATOM     26  O   UNK A   0       3.958   4.855  19.526  0.00  0.00    +0.000 OA
ATOM     27  N   VAL A   1       4.738   5.958  17.702  0.00  0.00    +0.000 N 
ATOM     28  H   VAL A   1       4.561   6.748  17.089  0.00  0.00    +0.000 HD
BRANCH  27  29
ATOM     29  CA  VAL A   1       5.568   4.845  17.223  0.00  0.00    +0.000 C 
BRANCH  29  30
ATOM     30  CB  VAL A   1       5.332   4.562  15.711  0.00  0.00    +0.000 C 
ATOM     31  CG1 VAL A   1       5.283   5.853  14.879  0.00  0.00    +0.000 C 
ATOM     32  CG2 VAL A   1       6.402   3.648  15.099  0.00  0.00    +0.000 C 
ENDBRANCH  29  30
BRANCH  29  33
ATOM     33  C   VAL A   1       7.062   5.173  17.465  0.00  0.00    +0.000 C 
ATOM     34  O   VAL A   1       7.628   6.180  17.062  0.00  0.00    +0.000 OA
BRANCH  33  35
ATOM     35  OXT VAL A   1       7.711   4.246  18.210  0.00  0.00    +0.000 OA
ATOM     36  HXT VAL A   1       8.260   3.638  17.661  0.00  0.00    +0.000 HD
ENDBRANCH  33  35
ENDBRANCH  29  33
ENDBRANCH  27  29
ENDBRANCH  23  25
ENDBRANCH   4  20
TORSDOF 8
ENDMDL
