MODEL 1
REMARK VINA RESULT:      -7.6      0.000      0.000
REMARK  Name = 
REMARK  12 active torsions:
REMARK  status: ('A' for Active; 'I' for Inactive)
REMARK    1  A    between atoms: C_1  and  C_2
REMARK    2  A    between atoms: C_2  and  C_3
REMARK    3  A    between atoms: C_3  and  C_4
REMARK    4  A    between atoms: C_3  and  N_19
REMARK    5  A    between atoms: N_6  and  C_7
REMARK    6  A    between atoms: C_7  and  C_8
REMARK    7  A    between atoms: C_8  and  C_9
REMARK    8  A    between atoms: C_12  and  O_13
REMARK    9  A    between atoms: O_13  and  C_14
REMARK   10  A    between atoms: C_15  and  O_16
REMARK   11  A    between atoms: O_16  and  C_17
REMARK   12  A    between atoms: C_21  and  C_22
REMARK                            x       y       z     vdW  Elec       q    Type
REMARK                         _______ _______ _______ _____ _____    ______ ____
ROOT
ATOM      1  C   UNL     1       6.152   5.533  16.491  0.00  0.00    +0.000 C 
ENDROOT
BRANCH   1   2
ATOM      2  N   UNL     1       5.153   4.956  17.440  0.00  0.00    +0.000 N 
ATOM      3  N   UNL     1       3.813   5.098  17.073  0.00  0.00    +0.000 NA
ATOM      4  C   UNL     1       2.881   4.615  17.839  0.00  0.00    +0.000 A 
ATOM      5  C   UNL     1       1.436   4.713  17.487  0.00  0.00    +0.000 C 
ATOM      6  N   UNL     1       3.180   3.982  19.030  0.00  0.00    +0.000 N 
ATOM      7  C   UNL     1       4.487   3.793  19.448  0.00  0.00    +0.000 A 
ATOM      8  C   UNL     1       4.493   3.151  20.682  0.00  0.00    +0.000 A 
ATOM      9  C   UNL     1       3.125   2.948  20.969  0.00  0.00    +0.000 A 
ATOM     10  O   UNL     1       2.371   2.403  21.952  0.00  0.00    +0.000 OA
ATOM     11  C   UNL     1       1.078   2.571  21.533  0.00  0.00    +0.000 A 
ATOM     12  C   UNL     1       0.991   3.209  20.318  0.00  0.00    +0.000 A 
ATOM     13  C   UNL     1       2.347   3.442  19.980  0.00  0.00    +0.000 A 
ATOM     14  C   UNL     1       5.572   4.260  18.597  0.00  0.00    +0.000 A 
ATOM     15  O   UNL     1       6.757   4.067  18.858  0.00  0.00    +0.000 OA
ENDBRANCH   1   2
BRANCH   1  16
ATOM     16  C   UNL     1       6.417   7.017  16.835  0.00  0.00    +0.000 C 
ATOM     17  O   UNL     1       5.627   7.927  16.555  0.00  0.00    +0.000 OA
ATOM     18  N   UNL     1       7.607   7.276  17.497  0.00  0.00    +0.000 N 
ATOM     19  H   UNL     1       8.156   6.500  17.862  0.00  0.00    +0.000 HD
BRANCH  18  20
ATOM     20  C   UNL     1       7.978   8.636  17.832  0.00  0.00    +0.000 C 
BRANCH  20  21
ATOM     21  C   UNL     1       8.935   8.750  19.024  0.00  0.00    +0.000 C 
BRANCH  21  22
ATOM     22  C   UNL     1       9.317  10.200  19.215  0.00  0.00    +0.000 A 
ATOM     23  C   UNL     1       9.280  10.779  20.483  0.00  0.00    +0.000 A 
ATOM     24  C   UNL     1       9.440  12.157  20.622  0.00  0.00    +0.000 A 
ATOM     25  C   UNL     1       9.650  12.982  19.505  0.00  0.00    +0.000 A 
ATOM     26  C   UNL     1       9.718  12.403  18.226  0.00  0.00    +0.000 A 
ATOM     27  C   UNL     1       9.564  11.014  18.098  0.00  0.00    +0.000 A 
BRANCH  25  28
ATOM     28  O   UNL     1       9.751  14.307  19.850  0.00  0.00    +0.000 OA
ATOM     29  C   UNL     1      11.045  14.851  20.063  0.00  0.00    +0.000 C 
ENDBRANCH  25  28
BRANCH  26  30
ATOM     30  O   UNL     1       9.890  13.229  17.148  0.00  0.00    +0.000 OA
ATOM     31  C   UNL     1      11.194  13.398  16.616  0.00  0.00    +0.000 C 
ENDBRANCH  26  30
ENDBRANCH  21  22
ENDBRANCH  20  21
ENDBRANCH  18  20
ENDBRANCH   1  16
BRANCH   1  33
ATOM     32  C   UNL     1       6.649   4.786  14.024  0.00  0.00    +0.000 C 
ATOM     33  C   UNL     1       5.671   5.401  15.021  0.00  0.00    +0.000 C 
ENDBRANCH   1  33
TORSDOF 8
ENDMDL
MODEL 2
REMARK VINA RESULT:      -7.6      7.127     10.105
REMARK  Name = 
REMARK  12 active torsions:
REMARK  status: ('A' for Active; 'I' for Inactive)
REMARK    1  A    between atoms: C_1  and  C_2
REMARK    2  A    between atoms: C_2  and  C_3
REMARK    3  A    between atoms: C_3  and  C_4
REMARK    4  A    between atoms: C_3  and  N_19
REMARK    5  A    between atoms: N_6  and  C_7
REMARK    6  A    between atoms: C_7  and  C_8
REMARK    7  A    between atoms: C_8  and  C_9
REMARK    8  A    between atoms: C_12  and  O_13
REMARK    9  A    between atoms: O_13  and  C_14
REMARK   10  A    between atoms: C_15  and  O_16
REMARK   11  A    between atoms: O_16  and  C_17
REMARK   12  A    between atoms: C_21  and  C_22
REMARK                            x       y       z     vdW  Elec       q    Type
REMARK                         _______ _______ _______ _____ _____    ______ ____
ROOT
ATOM      1  C   UNL     1       1.380  10.050  19.166  0.00  0.00    +0.000 C 
ENDROOT
BRANCH   1   2
ATOM      2  N   UNL     1       1.930   8.662  19.147  0.00  0.00    +0.000 N 
ATOM      3  N   UNL     1       2.751   8.347  18.061  0.00  0.00    +0.000 NA
ATOM      4  C   UNL     1       3.278   7.163  17.974  0.00  0.00    +0.000 A 
ATOM      5  C   UNL     1       4.183   6.779  16.853  0.00  0.00    +0.000 C 
ATOM      6  N   UNL     1       3.027   6.189  18.920  0.00  0.00    +0.000 N 
ATOM      7  C   UNL     1       2.236   6.436  20.029  0.00  0.00    +0.000 A 
ATOM      8  C   UNL     1       2.137   5.281  20.799  0.00  0.00    +0.000 A 
ATOM      9  C   UNL     1       2.928   4.339  20.103  0.00  0.00    +0.000 A 
ATOM     10  O   UNL     1       3.302   3.045  20.233  0.00  0.00    +0.000 OA
ATOM     11  C   UNL     1       4.100   2.802  19.147  0.00  0.00    +0.000 A 
ATOM     12  C   UNL     1       4.238   3.901  18.332  0.00  0.00    +0.000 A 
ATOM     13  C   UNL     1       3.458   4.885  18.987  0.00  0.00    +0.000 A 
ATOM     14  C   UNL     1       1.670   7.765  20.209  0.00  0.00    +0.000 A 
ATOM     15  O   UNL     1       1.020   8.088  21.200  0.00  0.00    +0.000 OA
ENDBRANCH   1   2
BRANCH   1  16
ATOM     16  C   UNL     1      -0.139  10.024  18.879  0.00  0.00    +0.000 C 
ATOM     17  O   UNL     1      -0.996  10.042  19.771  0.00  0.00    +0.000 OA
ATOM     18  N   UNL     1      -0.496   9.988  17.540  0.00  0.00    +0.000 N 
ATOM     19  H   UNL     1       0.216  10.143  16.829  0.00  0.00    +0.000 HD
BRANCH  18  20
ATOM     20  C   UNL     1      -1.892   9.919  17.156  0.00  0.00    +0.000 C 
BRANCH  20  21
ATOM     21  C   UNL     1      -2.552  11.286  16.942  0.00  0.00    +0.000 C 
BRANCH  21  22
ATOM     22  C   UNL     1      -3.738  11.413  17.869  0.00  0.00    +0.000 A 
ATOM     23  C   UNL     1      -4.982  10.903  17.498  0.00  0.00    +0.000 A 
ATOM     24  C   UNL     1      -6.109  11.197  18.265  0.00  0.00    +0.000 A 
ATOM     25  C   UNL     1      -6.018  11.992  19.419  0.00  0.00    +0.000 A 
ATOM     26  C   UNL     1      -4.763  12.486  19.816  0.00  0.00    +0.000 A 
ATOM     27  C   UNL     1      -3.634  12.178  19.042  0.00  0.00    +0.000 A 
BRANCH  25  28
ATOM     28  O   UNL     1      -7.241  12.188  20.012  0.00  0.00    +0.000 OA
ATOM     29  C   UNL     1      -7.666  11.265  21.002  0.00  0.00    +0.000 C 
ENDBRANCH  25  28
BRANCH  26  30
ATOM     30  O   UNL     1      -4.702  13.286  20.925  0.00  0.00    +0.000 OA
ATOM     31  C   UNL     1      -4.271  12.723  22.154  0.00  0.00    +0.000 C 
ENDBRANCH  26  30
ENDBRANCH  21  22
ENDBRANCH  20  21
ENDBRANCH  18  20
ENDBRANCH   1  16
BRANCH   1  33
ATOM     32  C   UNL     1       2.170  12.448  18.445  0.00  0.00    +0.000 C 
ATOM     33  C   UNL     1       2.104  10.956  18.134  0.00  0.00    +0.000 C 
ENDBRANCH   1  33
TORSDOF 8
ENDMDL
MODEL 3
REMARK VINA RESULT:      -7.5      7.591     10.343
REMARK  Name = 
REMARK  12 active torsions:
REMARK  status: ('A' for Active; 'I' for Inactive)
REMARK    1  A    between atoms: C_1  and  C_2
REMARK    2  A    between atoms: C_2  and  C_3
REMARK    3  A    between atoms: C_3  and  C_4
REMARK    4  A    between atoms: C_3  and  N_19
REMARK    5  A    between atoms: N_6  and  C_7
REMARK    6  A    between atoms: C_7  and  C_8
REMARK    7  A    between atoms: C_8  and  C_9
REMARK    8  A    between atoms: C_12  and  O_13
REMARK    9  A    between atoms: O_13  and  C_14
REMARK   10  A    between atoms: C_15  and  O_16
REMARK   11  A    between atoms: O_16  and  C_17
REMARK   12  A    between atoms: C_21  and  C_22
REMARK                            x       y       z     vdW  Elec       q    Type
REMARK                         _______ _______ _______ _____ _____    ______ ____
ROOT
ATOM      1  C   UNL     1       0.008  12.259  18.473  0.00  0.00    +0.000 C 
ENDROOT
BRANCH   1   2
ATOM      2  N   UNL     1      -1.454  12.224  18.777  0.00  0.00    +0.000 N 
ATOM      3  N   UNL     1      -1.860  12.949  19.901  0.00  0.00    +0.000 NA
ATOM      4  C   UNL     1      -3.117  12.978  20.228  0.00  0.00    +0.000 A 
ATOM      5  C   UNL     1      -3.612  13.755  21.401  0.00  0.00    +0.000 C 
ATOM      6  N   UNL     1      -4.069  12.285  19.506  0.00  0.00    +0.000 N 
ATOM      7  C   UNL     1      -3.740  11.560  18.374  0.00  0.00    +0.000 A 
ATOM      8  C   UNL     1      -4.882  10.952  17.861  0.00  0.00    +0.000 A 
ATOM      9  C   UNL     1      -5.912  11.370  18.733  0.00  0.00    +0.000 A 
ATOM     10  O   UNL     1      -7.247  11.197  18.872  0.00  0.00    +0.000 OA
ATOM     11  C   UNL     1      -7.580  11.929  19.981  0.00  0.00    +0.000 A 
ATOM     12  C   UNL     1      -6.495  12.556  20.549  0.00  0.00    +0.000 A 
ATOM     13  C   UNL     1      -5.423  12.166  19.709  0.00  0.00    +0.000 A 
ATOM     14  C   UNL     1      -2.355  11.544  17.925  0.00  0.00    +0.000 A 
ATOM     15  O   UNL     1      -1.992  10.987  16.892  0.00  0.00    +0.000 OA
ENDBRANCH   1   2
BRANCH   1  16
ATOM     16  C   UNL     1       0.693  10.983  19.014  0.00  0.00    +0.000 C 
ATOM     17  O   UNL     1       1.018  10.841  20.199  0.00  0.00    +0.000 OA
ATOM     18  N   UNL     1       0.920   9.984  18.080  0.00  0.00    +0.000 N 
ATOM     19  H   UNL     1       0.498  10.056  17.157  0.00  0.00    +0.000 HD
BRANCH  18  20
ATOM     20  C   UNL     1       1.595   8.760  18.467  0.00  0.00    +0.000 C 
BRANCH  20  21
ATOM     21  C   UNL     1       2.913   8.509  17.726  0.00  0.00    +0.000 C 
BRANCH  21  22
ATOM     22  C   UNL     1       3.222   7.030  17.755  0.00  0.00    +0.000 A 
ATOM     23  C   UNL     1       2.226   6.107  18.072  0.00  0.00    +0.000 A 
ATOM     24  C   UNL     1       2.562   4.771  18.290  0.00  0.00    +0.000 A 
ATOM     25  C   UNL     1       3.890   4.328  18.187  0.00  0.00    +0.000 A 
ATOM     26  C   UNL     1       4.896   5.247  17.839  0.00  0.00    +0.000 A 
ATOM     27  C   UNL     1       4.546   6.586  17.614  0.00  0.00    +0.000 A 
BRANCH  25  28
ATOM     28  O   UNL     1       4.016   2.990  18.468  0.00  0.00    +0.000 OA
ATOM     29  C   UNL     1       4.225   2.602  19.817  0.00  0.00    +0.000 C 
ENDBRANCH  25  28
BRANCH  26  30
ATOM     30  O   UNL     1       6.189   4.801  17.776  0.00  0.00    +0.000 OA
ATOM     31  C   UNL     1       6.733   4.452  16.513  0.00  0.00    +0.000 C 
ENDBRANCH  26  30
ENDBRANCH  21  22
ENDBRANCH  20  21
ENDBRANCH  18  20
ENDBRANCH   1  16
BRANCH   1  33
ATOM     32  C   UNL     1       2.027  13.937  18.499  0.00  0.00    +0.000 C 
ATOM     33  C   UNL     1       0.677  13.524  19.076  0.00  0.00    +0.000 C 
ENDBRANCH   1  33
TORSDOF 8
ENDMDL
MODEL 4
REMARK VINA RESULT:      -7.4      7.210      9.753
REMARK  Name = 
REMARK  12 active torsions:
REMARK  status: ('A' for Active; 'I' for Inactive)
REMARK    1  A    between atoms: C_1  and  C_2
REMARK    2  A    between atoms: C_2  and  C_3
REMARK    3  A    between atoms: C_3  and  C_4
REMARK    4  A    between atoms: C_3  and  N_19
REMARK    5  A    between atoms: N_6  and  C_7
REMARK    6  A    between atoms: C_7  and  C_8
REMARK    7  A    between atoms: C_8  and  C_9
REMARK    8  A    between atoms: C_12  and  O_13
REMARK    9  A    between atoms: O_13  and  C_14
REMARK   10  A    between atoms: C_15  and  O_16
REMARK   11  A    between atoms: O_16  and  C_17
REMARK   12  A    between atoms: C_21  and  C_22
REMARK                            x       y       z     vdW  Elec       q    Type
REMARK                         _______ _______ _______ _____ _____    ______ ____
ROOT
ATOM      1  C   UNL     1       0.017  10.773  20.584  0.00  0.00    +0.000 C 
ENDROOT
BRANCH   1   2
ATOM      2  N   UNL     1      -1.303  11.152  19.997  0.00  0.00    +0.000 N 
ATOM      3  N   UNL     1      -1.636  10.525  18.793  0.00  0.00    +0.000 NA
ATOM      4  C   UNL     1      -2.772  10.792  18.222  0.00  0.00    +0.000 A 
ATOM      5  C   UNL     1      -3.192  10.134  16.951  0.00  0.00    +0.000 C 
ATOM      6  N   UNL     1      -3.656  11.706  18.760  0.00  0.00    +0.000 N 
ATOM      7  C   UNL     1      -3.397  12.352  19.957  0.00  0.00    +0.000 A 
ATOM      8  C   UNL     1      -4.440  13.225  20.251  0.00  0.00    +0.000 A 
ATOM      9  C   UNL     1      -5.344  13.050  19.178  0.00  0.00    +0.000 A 
ATOM     10  O   UNL     1      -6.543  13.535  18.782  0.00  0.00    +0.000 OA
ATOM     11  C   UNL     1      -6.811  12.884  17.607  0.00  0.00    +0.000 A 
ATOM     12  C   UNL     1      -5.816  12.005  17.247  0.00  0.00    +0.000 A 
ATOM     13  C   UNL     1      -4.873  12.142  18.295  0.00  0.00    +0.000 A 
ATOM     14  C   UNL     1      -2.167  12.044  20.672  0.00  0.00    +0.000 A 
ATOM     15  O   UNL     1      -1.897  12.516  21.773  0.00  0.00    +0.000 OA
ENDBRANCH   1   2
BRANCH   1  16
ATOM     16  C   UNL     1       1.050  10.529  19.460  0.00  0.00    +0.000 C 
ATOM     17  O   UNL     1       1.597  11.446  18.835  0.00  0.00    +0.000 OA
ATOM     18  N   UNL     1       1.341   9.201  19.192  0.00  0.00    +0.000 N 
ATOM     19  H   UNL     1       1.008   8.478  19.825  0.00  0.00    +0.000 HD
BRANCH  18  20
ATOM     20  C   UNL     1       2.264   8.855  18.129  0.00  0.00    +0.000 C 
BRANCH  20  21
ATOM     21  C   UNL     1       2.069   7.443  17.564  0.00  0.00    +0.000 C 
BRANCH  21  22
ATOM     22  C   UNL     1       3.318   6.632  17.819  0.00  0.00    +0.000 A 
ATOM     23  C   UNL     1       3.489   5.960  19.029  0.00  0.00    +0.000 A 
ATOM     24  C   UNL     1       4.721   5.382  19.335  0.00  0.00    +0.000 A 
ATOM     25  C   UNL     1       5.799   5.450  18.438  0.00  0.00    +0.000 A 
ATOM     26  C   UNL     1       5.627   6.100  17.203  0.00  0.00    +0.000 A 
ATOM     27  C   UNL     1       4.381   6.672  16.903  0.00  0.00    +0.000 A 
BRANCH  25  28
ATOM     28  O   UNL     1       6.928   4.849  18.937  0.00  0.00    +0.000 OA
ATOM     29  C   UNL     1       7.930   5.670  19.516  0.00  0.00    +0.000 C 
ENDBRANCH  25  28
BRANCH  26  30
ATOM     30  O   UNL     1       6.701   6.184  16.359  0.00  0.00    +0.000 OA
ATOM     31  C   UNL     1       6.975   5.098  15.488  0.00  0.00    +0.000 C 
ENDBRANCH  26  30
ENDBRANCH  21  22
ENDBRANCH  20  21
ENDBRANCH  18  20
ENDBRANCH   1  16
BRANCH   1  33
ATOM     32  C   UNL     1      -0.065   9.724  22.990  0.00  0.00    +0.000 C 
ATOM     33  C   UNL     1      -0.108   9.511  21.480  0.00  0.00    +0.000 C 
ENDBRANCH   1  33
TORSDOF 8
ENDMDL
MODEL 5
REMARK VINA RESULT:      -7.3      7.472     11.394
REMARK  Name = 
REMARK  12 active torsions:
REMARK  status: ('A' for Active; 'I' for Inactive)
REMARK    1  A    between atoms: C_1  and  C_2
REMARK    2  A    between atoms: C_2  and  C_3
REMARK    3  A    between atoms: C_3  and  C_4
REMARK    4  A    between atoms: C_3  and  N_19
REMARK    5  A    between atoms: N_6  and  C_7
REMARK    6  A    between atoms: C_7  and  C_8
REMARK    7  A    between atoms: C_8  and  C_9
REMARK    8  A    between atoms: C_12  and  O_13
REMARK    9  A    between atoms: O_13  and  C_14
REMARK   10  A    between atoms: C_15  and  O_16
REMARK   11  A    between atoms: O_16  and  C_17
REMARK   12  A    between atoms: C_21  and  C_22
REMARK                            x       y       z     vdW  Elec       q    Type
REMARK                         _______ _______ _______ _____ _____    ______ ____
ROOT
ATOM      1  C   UNL     1       0.615  11.177  20.859  0.00  0.00    +0.000 C 
ENDROOT
BRANCH   1   2
ATOM      2  N   UNL     1       0.287  12.570  20.432  0.00  0.00    +0.000 N 
ATOM      3  N   UNL     1      -0.991  13.025  20.767  0.00  0.00    +0.000 NA
ATOM      4  C   UNL     1      -1.352  14.229  20.441  0.00  0.00    +0.000 A 
ATOM      5  C   UNL     1      -2.693  14.778  20.795  0.00  0.00    +0.000 C 
ATOM      6  N   UNL     1      -0.510  15.072  19.741  0.00  0.00    +0.000 N 
ATOM      7  C   UNL     1       0.774  14.692  19.390  0.00  0.00    +0.000 A 
ATOM      8  C   UNL     1       1.387  15.721  18.681  0.00  0.00    +0.000 A 
ATOM      9  C   UNL     1       0.409  16.741  18.646  0.00  0.00    +0.000 A 
ATOM     10  O   UNL     1       0.279  17.994  18.154  0.00  0.00    +0.000 OA
ATOM     11  C   UNL     1      -0.985  18.381  18.516  0.00  0.00    +0.000 A 
ATOM     12  C   UNL     1      -1.657  17.408  19.218  0.00  0.00    +0.000 A 
ATOM     13  C   UNL     1      -0.717  16.350  19.281  0.00  0.00    +0.000 A 
ATOM     14  C   UNL     1       1.253  13.376  19.786  0.00  0.00    +0.000 A 
ATOM     15  O   UNL     1       2.400  12.990  19.579  0.00  0.00    +0.000 OA
ENDBRANCH   1   2
BRANCH   1  16
ATOM     16  C   UNL     1       0.505  10.212  19.656  0.00  0.00    +0.000 C 
ATOM     17  O   UNL     1      -0.570   9.743  19.263  0.00  0.00    +0.000 OA
ATOM     18  N   UNL     1       1.699   9.903  19.025  0.00  0.00    +0.000 N 
ATOM     19  H   UNL     1       2.539  10.427  19.259  0.00  0.00    +0.000 HD
BRANCH  18  20
ATOM     20  C   UNL     1       1.720   8.975  17.911  0.00  0.00    +0.000 C 
BRANCH  20  21
ATOM     21  C   UNL     1       2.803   7.896  18.014  0.00  0.00    +0.000 C 
BRANCH  21  22
ATOM     22  C   UNL     1       2.221   6.674  18.687  0.00  0.00    +0.000 A 
ATOM     23  C   UNL     1       2.068   6.637  20.073  0.00  0.00    +0.000 A 
ATOM     24  C   UNL     1       1.719   5.442  20.701  0.00  0.00    +0.000 A 
ATOM     25  C   UNL     1       1.506   4.267  19.963  0.00  0.00    +0.000 A 
ATOM     26  C   UNL     1       1.630   4.302  18.563  0.00  0.00    +0.000 A 
ATOM     27  C   UNL     1       1.973   5.512  17.940  0.00  0.00    +0.000 A 
BRANCH  25  28
ATOM     28  O   UNL     1       1.203   3.196  20.767  0.00  0.00    +0.000 OA
ATOM     29  C   UNL     1       2.241   2.626  21.550  0.00  0.00    +0.000 C 
ENDBRANCH  25  28
BRANCH  26  30
ATOM     30  O   UNL     1       1.450   3.138  17.866  0.00  0.00    +0.000 OA
ATOM     31  C   UNL     1       2.555   2.265  17.693  0.00  0.00    +0.000 C 
ENDBRANCH  26  30
ENDBRANCH  21  22
ENDBRANCH  20  21
ENDBRANCH  18  20
ENDBRANCH   1  16
BRANCH   1  33
ATOM     32  C   UNL     1       0.132   9.492  22.815  0.00  0.00    +0.000 C 
ATOM     33  C   UNL     1      -0.317  10.708  22.010  0.00  0.00    +0.000 C 
ENDBRANCH   1  33
TORSDOF 8
ENDMDL
MODEL 6
REMARK VINA RESULT:      -7.3      0.865      1.625
REMARK  Name = 
REMARK  12 active torsions:
REMARK  status: ('A' for Active; 'I' for Inactive)
REMARK    1  A    between atoms: C_1  and  C_2
REMARK    2  A    between atoms: C_2  and  C_3
REMARK    3  A    between atoms: C_3  and  C_4
REMARK    4  A    between atoms: C_3  and  N_19
REMARK    5  A    between atoms: N_6  and  C_7
REMARK    6  A    between atoms: C_7  and  C_8
REMARK    7  A    between atoms: C_8  and  C_9
REMARK    8  A    between atoms: C_12  and  O_13
REMARK    9  A    between atoms: O_13  and  C_14
REMARK   10  A    between atoms: C_15  and  O_16
REMARK   11  A    between atoms: O_16  and  C_17
REMARK   12  A    between atoms: C_21  and  C_22
REMARK                            x       y       z     vdW  Elec       q    Type
REMARK                         _______ _______ _______ _____ _____    ______ ____
ROOT
ATOM      1  C   UNL     1       6.134   5.721  16.694  0.00  0.00    +0.000 C 
ENDROOT
BRANCH   1   2
ATOM      2  N   UNL     1       5.140   5.073  17.602  0.00  0.00    +0.000 N 
ATOM      3  N   UNL     1       3.798   5.228  17.245  0.00  0.00    +0.000 NA
ATOM      4  C   UNL     1       2.871   4.687  17.976  0.00  0.00    +0.000 A 
ATOM      5  C   UNL     1       1.425   4.797  17.630  0.00  0.00    +0.000 C 
ATOM      6  N   UNL     1       3.175   3.979  19.122  0.00  0.00    +0.000 N 
ATOM      7  C   UNL     1       4.483   3.773  19.527  0.00  0.00    +0.000 A 
ATOM      8  C   UNL     1       4.495   3.050  20.715  0.00  0.00    +0.000 A 
ATOM      9  C   UNL     1       3.128   2.816  20.987  0.00  0.00    +0.000 A 
ATOM     10  O   UNL     1       2.379   2.201  21.931  0.00  0.00    +0.000 OA
ATOM     11  C   UNL     1       1.085   2.386  21.524  0.00  0.00    +0.000 A 
ATOM     12  C   UNL     1       0.993   3.103  20.354  0.00  0.00    +0.000 A 
ATOM     13  C   UNL     1       2.347   3.369  20.034  0.00  0.00    +0.000 A 
ATOM     14  C   UNL     1       5.565   4.305  18.710  0.00  0.00    +0.000 A 
ATOM     15  O   UNL     1       6.751   4.104  18.958  0.00  0.00    +0.000 OA
ENDBRANCH   1   2
BRANCH   1  16
ATOM     16  C   UNL     1       6.311   7.209  17.074  0.00  0.00    +0.000 C 
ATOM     17  O   UNL     1       5.359   7.970  17.285  0.00  0.00    +0.000 OA
ATOM     18  N   UNL     1       7.621   7.650  17.177  0.00  0.00    +0.000 N 
ATOM     19  H   UNL     1       8.379   6.971  17.164  0.00  0.00    +0.000 HD
BRANCH  18  20
ATOM     20  C   UNL     1       7.904   9.037  17.488  0.00  0.00    +0.000 C 
BRANCH  20  21
ATOM     21  C   UNL     1       8.789   9.235  18.723  0.00  0.00    +0.000 C 
BRANCH  21  22
ATOM     22  C   UNL     1       9.366  10.632  18.699  0.00  0.00    +0.000 A 
ATOM     23  C   UNL     1      10.421  10.945  17.843  0.00  0.00    +0.000 A 
ATOM     24  C   UNL     1      11.076  12.171  17.967  0.00  0.00    +0.000 A 
ATOM     25  C   UNL     1      10.686  13.109  18.935  0.00  0.00    +0.000 A 
ATOM     26  C   UNL     1       9.603  12.813  19.783  0.00  0.00    +0.000 A 
ATOM     27  C   UNL     1       8.948  11.581  19.645  0.00  0.00    +0.000 A 
BRANCH  25  28
ATOM     28  O   UNL     1      11.472  14.234  18.915  0.00  0.00    +0.000 OA
ATOM     29  C   UNL     1      11.545  14.985  17.713  0.00  0.00    +0.000 C 
ENDBRANCH  25  28
BRANCH  26  30
ATOM     30  O   UNL     1       9.261  13.729  20.742  0.00  0.00    +0.000 OA
ATOM     31  C   UNL     1       9.454  13.396  22.107  0.00  0.00    +0.000 C 
ENDBRANCH  26  30
ENDBRANCH  21  22
ENDBRANCH  20  21
ENDBRANCH  18  20
ENDBRANCH   1  16
BRANCH   1  33
ATOM     32  C   UNL     1       6.245   4.401  14.427  0.00  0.00    +0.000 C 
ATOM     33  C   UNL     1       5.703   5.594  15.208  0.00  0.00    +0.000 C 
ENDBRANCH   1  33
TORSDOF 8
ENDMDL
MODEL 7
REMARK VINA RESULT:      -7.3      7.607     10.884
REMARK  Name = 
REMARK  12 active torsions:
REMARK  status: ('A' for Active; 'I' for Inactive)
REMARK    1  A    between atoms: C_1  and  C_2
REMARK    2  A    between atoms: C_2  and  C_3
REMARK    3  A    between atoms: C_3  and  C_4
REMARK    4  A    between atoms: C_3  and  N_19
REMARK    5  A    between atoms: N_6  and  C_7
REMARK    6  A    between atoms: C_7  and  C_8
REMARK    7  A    between atoms: C_8  and  C_9
REMARK    8  A    between atoms: C_12  and  O_13
REMARK    9  A    between atoms: O_13  and  C_14
REMARK   10  A    between atoms: C_15  and  O_16
REMARK   11  A    between atoms: O_16  and  C_17
REMARK   12  A    between atoms: C_21  and  C_22
REMARK                            x       y       z     vdW  Elec       q    Type
REMARK                         _______ _______ _______ _____ _____    ______ ____
ROOT
ATOM      1  C   UNL     1      -0.040  11.701  18.694  0.00  0.00    +0.000 C 
ENDROOT
BRANCH   1   2
ATOM      2  N   UNL     1      -1.517  11.860  18.840  0.00  0.00    +0.000 N 
ATOM      3  N   UNL     1      -1.951  12.468  20.021  0.00  0.00    +0.000 NA
ATOM      4  C   UNL     1      -3.221  12.653  20.220  0.00  0.00    +0.000 A 
ATOM      5  C   UNL     1      -3.741  13.320  21.449  0.00  0.00    +0.000 C 
ATOM      6  N   UNL     1      -4.166  12.238  19.303  0.00  0.00    +0.000 N 
ATOM      7  C   UNL     1      -3.807  11.643  18.105  0.00  0.00    +0.000 A 
ATOM      8  C   UNL     1      -4.952  11.311  17.387  0.00  0.00    +0.000 A 
ATOM      9  C   UNL     1      -6.011  11.758  18.209  0.00  0.00    +0.000 A 
ATOM     10  O   UNL     1      -7.364  11.786  18.182  0.00  0.00    +0.000 OA
ATOM     11  C   UNL     1      -7.723  12.392  19.357  0.00  0.00    +0.000 A 
ATOM     12  C   UNL     1      -6.638  12.743  20.127  0.00  0.00    +0.000 A 
ATOM     13  C   UNL     1      -5.538  12.312  19.346  0.00  0.00    +0.000 A 
ATOM     14  C   UNL     1      -2.394  11.468  17.802  0.00  0.00    +0.000 A 
ATOM     15  O   UNL     1      -1.990  11.017  16.733  0.00  0.00    +0.000 OA
ENDBRANCH   1   2
BRANCH   1  16
ATOM     16  C   UNL     1       0.397  10.306  19.197  0.00  0.00    +0.000 C 
ATOM     17  O   UNL     1      -0.164   9.718  20.129  0.00  0.00    +0.000 OA
ATOM     18  N   UNL     1       1.467   9.735  18.527  0.00  0.00    +0.000 N 
ATOM     19  H   UNL     1       1.801  10.160  17.664  0.00  0.00    +0.000 HD
BRANCH  18  20
ATOM     20  C   UNL     1       1.988   8.447  18.941  0.00  0.00    +0.000 C 
BRANCH  20  21
ATOM     21  C   UNL     1       2.850   7.749  17.883  0.00  0.00    +0.000 C 
BRANCH  21  22
ATOM     22  C   UNL     1       3.206   6.364  18.371  0.00  0.00    +0.000 A 
ATOM     23  C   UNL     1       3.824   5.452  17.516  0.00  0.00    +0.000 A 
ATOM     24  C   UNL     1       3.968   4.121  17.907  0.00  0.00    +0.000 A 
ATOM     25  C   UNL     1       3.511   3.677  19.158  0.00  0.00    +0.000 A 
ATOM     26  C   UNL     1       2.913   4.596  20.038  0.00  0.00    +0.000 A 
ATOM     27  C   UNL     1       2.781   5.934  19.638  0.00  0.00    +0.000 A 
BRANCH  25  28
ATOM     28  O   UNL     1       3.718   2.331  19.339  0.00  0.00    +0.000 OA
ATOM     29  C   UNL     1       3.539   1.466  18.228  0.00  0.00    +0.000 C 
ENDBRANCH  25  28
BRANCH  26  30
ATOM     30  O   UNL     1       2.445   4.135  21.239  0.00  0.00    +0.000 OA
ATOM     31  C   UNL     1       1.369   3.211  21.246  0.00  0.00    +0.000 C 
ENDBRANCH  26  30
ENDBRANCH  21  22
ENDBRANCH  20  21
ENDBRANCH  18  20
ENDBRANCH   1  16
BRANCH   1  33
ATOM     32  C   UNL     1       0.830  14.177  18.791  0.00  0.00    +0.000 C 
ATOM     33  C   UNL     1       0.724  12.812  19.465  0.00  0.00    +0.000 C 
ENDBRANCH   1  33
TORSDOF 8
ENDMDL
MODEL 8
REMARK VINA RESULT:      -7.3      1.731      1.967
REMARK  Name = 
REMARK  12 active torsions:
REMARK  status: ('A' for Active; 'I' for Inactive)
REMARK    1  A    between atoms: C_1  and  C_2
REMARK    2  A    between atoms: C_2  and  C_3
REMARK    3  A    between atoms: C_3  and  C_4
REMARK    4  A    between atoms: C_3  and  N_19
REMARK    5  A    between atoms: N_6  and  C_7
REMARK    6  A    between atoms: C_7  and  C_8
REMARK    7  A    between atoms: C_8  and  C_9
REMARK    8  A    between atoms: C_12  and  O_13
REMARK    9  A    between atoms: O_13  and  C_14
REMARK   10  A    between atoms: C_15  and  O_16
REMARK   11  A    between atoms: O_16  and  C_17
REMARK   12  A    between atoms: C_21  and  C_22
REMARK                            x       y       z     vdW  Elec       q    Type
REMARK                         _______ _______ _______ _____ _____    ______ ____
ROOT
ATOM      1  C   UNL     1       6.931   5.524  16.841  0.00  0.00    +0.000 C 
ENDROOT
BRANCH   1   2
ATOM      2  N   UNL     1       5.639   5.024  17.398  0.00  0.00    +0.000 N 
ATOM      3  N   UNL     1       4.955   5.906  18.239  0.00  0.00    +0.000 NA
ATOM      4  C   UNL     1       3.818   5.550  18.757  0.00  0.00    +0.000 A 
ATOM      5  C   UNL     1       3.032   6.459  19.640  0.00  0.00    +0.000 C 
ATOM      6  N   UNL     1       3.274   4.304  18.520  0.00  0.00    +0.000 N 
ATOM      7  C   UNL     1       3.889   3.386  17.686  0.00  0.00    +0.000 A 
ATOM      8  C   UNL     1       3.137   2.216  17.645  0.00  0.00    +0.000 A 
ATOM      9  C   UNL     1       2.031   2.491  18.480  0.00  0.00    +0.000 A 
ATOM     10  O   UNL     1       0.913   1.862  18.913  0.00  0.00    +0.000 OA
ATOM     11  C   UNL     1       0.292   2.775  19.724  0.00  0.00    +0.000 A 
ATOM     12  C   UNL     1       0.985   3.959  19.820  0.00  0.00    +0.000 A 
ATOM     13  C   UNL     1       2.115   3.737  18.996  0.00  0.00    +0.000 A 
ATOM     14  C   UNL     1       5.134   3.755  17.029  0.00  0.00    +0.000 A 
ATOM     15  O   UNL     1       5.704   3.029  16.219  0.00  0.00    +0.000 OA
ENDBRANCH   1   2
BRANCH   1  16
ATOM     16  C   UNL     1       7.509   6.632  17.751  0.00  0.00    +0.000 C 
ATOM     17  O   UNL     1       8.105   6.395  18.809  0.00  0.00    +0.000 OA
ATOM     18  N   UNL     1       7.327   7.931  17.303  0.00  0.00    +0.000 N 
ATOM     19  H   UNL     1       6.985   8.091  16.358  0.00  0.00    +0.000 HD
BRANCH  18  20
ATOM     20  C   UNL     1       7.792   9.051  18.098  0.00  0.00    +0.000 C 
BRANCH  20  21
ATOM     21  C   UNL     1       8.896   9.878  17.430  0.00  0.00    +0.000 C 
BRANCH  21  22
ATOM     22  C   UNL     1       9.425  10.889  18.421  0.00  0.00    +0.000 A 
ATOM     23  C   UNL     1       9.530  10.563  19.773  0.00  0.00    +0.000 A 
ATOM     24  C   UNL     1       9.828  11.556  20.706  0.00  0.00    +0.000 A 
ATOM     25  C   UNL     1      10.037  12.887  20.310  0.00  0.00    +0.000 A 
ATOM     26  C   UNL     1       9.961  13.219  18.945  0.00  0.00    +0.000 A 
ATOM     27  C   UNL     1       9.669  12.210  18.015  0.00  0.00    +0.000 A 
BRANCH  25  28
ATOM     28  O   UNL     1      10.287  13.714  21.377  0.00  0.00    +0.000 OA
ATOM     29  C   UNL     1       9.185  14.333  22.022  0.00  0.00    +0.000 C 
ENDBRANCH  25  28
BRANCH  26  30
ATOM     30  O   UNL     1      10.136  14.528  18.585  0.00  0.00    +0.000 OA
ATOM     31  C   UNL     1       9.004  15.288  18.194  0.00  0.00    +0.000 C 
ENDBRANCH  26  30
ENDBRANCH  21  22
ENDBRANCH  20  21
ENDBRANCH  18  20
ENDBRANCH   1  16
BRANCH   1  33
ATOM     32  C   UNL     1       7.216   5.157  14.257  0.00  0.00    +0.000 C 
ATOM     33  C   UNL     1       6.748   6.060  15.395  0.00  0.00    +0.000 C 
ENDBRANCH   1  33
TORSDOF 8
ENDMDL
MODEL 9
REMARK VINA RESULT:      -7.3      6.970     10.743
REMARK  Name = 
REMARK  12 active torsions:
REMARK  status: ('A' for Active; 'I' for Inactive)
REMARK    1  A    between atoms: C_1  and  C_2
REMARK    2  A    between atoms: C_2  and  C_3
REMARK    3  A    between atoms: C_3  and  C_4
REMARK    4  A    between atoms: C_3  and  N_19
REMARK    5  A    between atoms: N_6  and  C_7
REMARK    6  A    between atoms: C_7  and  C_8
REMARK    7  A    between atoms: C_8  and  C_9
REMARK    8  A    between atoms: C_12  and  O_13
REMARK    9  A    between atoms: O_13  and  C_14
REMARK   10  A    between atoms: C_15  and  O_16
REMARK   11  A    between atoms: O_16  and  C_17
REMARK   12  A    between atoms: C_21  and  C_22
REMARK                            x       y       z     vdW  Elec       q    Type
REMARK                         _______ _______ _______ _____ _____    ______ ____
ROOT
ATOM      1  C   UNL     1      -1.074  10.778  19.193  0.00  0.00    +0.000 C 
ENDROOT
BRANCH   1   2
ATOM      2  N   UNL     1      -0.557  12.179  19.210  0.00  0.00    +0.000 N 
ATOM      3  N   UNL     1       0.726  12.361  18.689  0.00  0.00    +0.000 NA
ATOM      4  C   UNL     1       1.245  13.551  18.657  0.00  0.00    +0.000 A 
ATOM      5  C   UNL     1       2.600  13.809  18.090  0.00  0.00    +0.000 C 
ATOM      6  N   UNL     1       0.569  14.648  19.154  0.00  0.00    +0.000 N 
ATOM      7  C   UNL     1      -0.711  14.544  19.670  0.00  0.00    +0.000 A 
ATOM      8  C   UNL     1      -1.139  15.792  20.112  0.00  0.00    +0.000 A 
ATOM      9  C   UNL     1      -0.057  16.650  19.813  0.00  0.00    +0.000 A 
ATOM     10  O   UNL     1       0.256  17.960  19.941  0.00  0.00    +0.000 OA
ATOM     11  C   UNL     1       1.515  18.071  19.413  0.00  0.00    +0.000 A 
ATOM     12  C   UNL     1       2.009  16.870  18.960  0.00  0.00    +0.000 A 
ATOM     13  C   UNL     1       0.957  15.964  19.240  0.00  0.00    +0.000 A 
ATOM     14  C   UNL     1      -1.365  13.243  19.672  0.00  0.00    +0.000 A 
ATOM     15  O   UNL     1      -2.524  13.078  20.043  0.00  0.00    +0.000 OA
ENDBRANCH   1   2
BRANCH   1  16
ATOM     16  C   UNL     1       0.029   9.798  19.655  0.00  0.00    +0.000 C 
ATOM     17  O   UNL     1       0.143   9.411  20.824  0.00  0.00    +0.000 OA
ATOM     18  N   UNL     1       0.895   9.361  18.664  0.00  0.00    +0.000 N 
ATOM     19  H   UNL     1       0.680   9.559  17.689  0.00  0.00    +0.000 HD
BRANCH  18  20
ATOM     20  C   UNL     1       1.993   8.473  18.991  0.00  0.00    +0.000 C 
BRANCH  20  21
ATOM     21  C   UNL     1       2.912   8.150  17.808  0.00  0.00    +0.000 C 
BRANCH  21  22
ATOM     22  C   UNL     1       3.271   6.682  17.848  0.00  0.00    +0.000 A 
ATOM     23  C   UNL     1       2.312   5.729  18.187  0.00  0.00    +0.000 A 
ATOM     24  C   UNL     1       2.696   4.408  18.415  0.00  0.00    +0.000 A 
ATOM     25  C   UNL     1       4.037   4.009  18.299  0.00  0.00    +0.000 A 
ATOM     26  C   UNL     1       5.007   4.958  17.929  0.00  0.00    +0.000 A 
ATOM     27  C   UNL     1       4.608   6.282  17.694  0.00  0.00    +0.000 A 
BRANCH  25  28
ATOM     28  O   UNL     1       4.211   2.679  18.592  0.00  0.00    +0.000 OA
ATOM     29  C   UNL     1       4.364   2.304  19.952  0.00  0.00    +0.000 C 
ENDBRANCH  25  28
BRANCH  26  30
ATOM     30  O   UNL     1       6.313   4.555  17.854  0.00  0.00    +0.000 OA
ATOM     31  C   UNL     1       6.926   4.452  16.579  0.00  0.00    +0.000 C 
ENDBRANCH  26  30
ENDBRANCH  21  22
ENDBRANCH  20  21
ENDBRANCH  18  20
ENDBRANCH   1  16
BRANCH   1  33
ATOM     32  C   UNL     1      -3.066  10.045  17.647  0.00  0.00    +0.000 C 
ATOM     33  C   UNL     1      -1.584  10.384  17.780  0.00  0.00    +0.000 C 
ENDBRANCH   1  33
TORSDOF 8
ENDMDL
