MODEL 1
REMARK VINA RESULT:     -10.4      0.000      0.000
REMARK  Name = 
REMARK  4 active torsions:
REMARK  status: ('A' for Active; 'I' for Inactive)
REMARK    1  A    between atoms: N_3  and  C_4
REMARK    2  A    between atoms: C_4  and  C_5
REMARK    3  A    between atoms: C_9  and  N_10
REMARK    4  A    between atoms: N_21  and  C_22
REMARK                            x       y       z     vdW  Elec       q    Type
REMARK                         _______ _______ _______ _____ _____    ______ ____
ROOT
ATOM      1  C   UNL     1       7.404   7.494  17.135  0.00  0.00    +0.000 C 
ENDROOT
BRANCH   1   2
ATOM      2  C   UNL     1       6.311   6.594  17.630  0.00  0.00    +0.000 A 
ATOM      3  C   UNL     1       4.967   6.911  17.417  0.00  0.00    +0.000 A 
ATOM      4  C   UNL     1       3.958   6.061  17.883  0.00  0.00    +0.000 A 
ATOM      5  F   UNL     1       2.689   6.442  17.664  0.00  0.00    +0.000 F 
ATOM      6  C   UNL     1       4.231   4.874  18.591  0.00  0.00    +0.000 A 
ATOM      7  C   UNL     1       5.588   4.579  18.789  0.00  0.00    +0.000 A 
ATOM      8  C   UNL     1       6.600   5.413  18.307  0.00  0.00    +0.000 A 
ATOM      9  F   UNL     1       7.878   5.051  18.496  0.00  0.00    +0.000 F 
BRANCH   6  10
ATOM     10  N   UNL     1       3.251   4.036  19.051  0.00  0.00    +0.000 N 
ATOM     11  C   UNL     1       3.401   2.657  19.499  0.00  0.00    +0.000 C 
ATOM     12  C   UNL     1       3.211   2.669  21.031  0.00  0.00    +0.000 C 
ATOM     13  C   UNL     1       1.853   3.254  21.452  0.00  0.00    +0.000 C 
ATOM     14  C   UNL     1       1.475   4.500  20.636  0.00  0.00    +0.000 C 
ATOM     15  C   UNL     1       1.828   4.355  19.145  0.00  0.00    +0.000 C 
ATOM     16  C   UNL     1       1.200   3.083  18.538  0.00  0.00    +0.000 C 
ATOM     17  C   UNL     1       2.233   1.967  18.780  0.00  0.00    +0.000 C 
ENDBRANCH   6  10
ENDBRANCH   1   2
BRANCH   1  20
ATOM     18  O   UNL     1       7.982  10.126  17.619  0.00  0.00    +0.000 OA
ATOM     19  C   UNL     1       8.441   9.300  18.397  0.00  0.00    +0.000 C 
ATOM     20  N   UNL     1       8.258   7.945  18.216  0.00  0.00    +0.000 N 
ATOM     21  N   UNL     1       9.227   9.561  19.499  0.00  0.00    +0.000 N 
ATOM     22  H   UNL     1       8.227   7.391  19.059  0.00  0.00    +0.000 HD
ATOM     23  H   UNL     1       9.749   8.775  19.856  0.00  0.00    +0.000 HD
BRANCH  21  24
ATOM     24  C   UNL     1       9.612  10.842  19.961  0.00  0.00    +0.000 A 
ATOM     25  C   UNL     1       9.132  11.399  21.160  0.00  0.00    +0.000 A 
ATOM     26  C   UNL     1       9.483  12.688  21.565  0.00  0.00    +0.000 A 
ATOM     27  C   UNL     1      10.335  13.480  20.798  0.00  0.00    +0.000 A 
ATOM     28  C   UNL     1      10.841  12.909  19.628  0.00  0.00    +0.000 A 
ATOM     29  N   UNL     1      11.689  13.414  18.676  0.00  0.00    +0.000 N 
ATOM     30  N   UNL     1      11.965  12.555  17.678  0.00  0.00    +0.000 NA
ATOM     31  C   UNL     1      11.245  11.474  17.995  0.00  0.00    +0.000 A 
ATOM     32  C   UNL     1      10.515  11.623  19.201  0.00  0.00    +0.000 A 
ATOM     33  H   UNL     1      12.114  14.332  18.652  0.00  0.00    +0.000 HD
ENDBRANCH  21  24
ENDBRANCH   1  20
TORSDOF 4
ENDMDL
MODEL 2
REMARK VINA RESULT:     -10.3      0.439      1.461
REMARK  Name = 
REMARK  4 active torsions:
REMARK  status: ('A' for Active; 'I' for Inactive)
REMARK    1  A    between atoms: N_3  and  C_4
REMARK    2  A    between atoms: C_4  and  C_5
REMARK    3  A    between atoms: C_9  and  N_10
REMARK    4  A    between atoms: N_21  and  C_22
REMARK                            x       y       z     vdW  Elec       q    Type
REMARK                         _______ _______ _______ _____ _____    ______ ____
ROOT
ATOM      1  C   UNL     1       7.402   7.424  17.264  0.00  0.00    +0.000 C 
ENDROOT
BRANCH   1   2
ATOM      2  C   UNL     1       6.354   6.542  17.874  0.00  0.00    +0.000 A 
ATOM      3  C   UNL     1       5.026   6.601  17.444  0.00  0.00    +0.000 A 
ATOM      4  C   UNL     1       4.058   5.771  18.022  0.00  0.00    +0.000 A 
ATOM      5  F   UNL     1       2.798   5.900  17.576  0.00  0.00    +0.000 F 
ATOM      6  C   UNL     1       4.356   4.862  19.056  0.00  0.00    +0.000 A 
ATOM      7  C   UNL     1       5.697   4.822  19.467  0.00  0.00    +0.000 A 
ATOM      8  C   UNL     1       6.671   5.633  18.879  0.00  0.00    +0.000 A 
ATOM      9  F   UNL     1       7.942   5.516  19.291  0.00  0.00    +0.000 F 
BRANCH   6  10
ATOM     10  N   UNL     1       3.417   4.046  19.627  0.00  0.00    +0.000 N 
ATOM     11  C   UNL     1       2.160   4.442  20.252  0.00  0.00    +0.000 C 
ATOM     12  C   UNL     1       1.034   3.990  19.298  0.00  0.00    +0.000 C 
ATOM     13  C   UNL     1       1.071   2.480  19.014  0.00  0.00    +0.000 C 
ATOM     14  C   UNL     1       2.501   1.963  18.789  0.00  0.00    +0.000 C 
ATOM     15  C   UNL     1       3.513   2.595  19.762  0.00  0.00    +0.000 C 
ATOM     16  C   UNL     1       3.079   2.405  21.230  0.00  0.00    +0.000 C 
ATOM     17  C   UNL     1       2.182   3.616  21.546  0.00  0.00    +0.000 C 
ENDBRANCH   6  10
ENDBRANCH   1   2
BRANCH   1  20
ATOM     18  O   UNL     1       7.857  10.085  17.721  0.00  0.00    +0.000 OA
ATOM     19  C   UNL     1       8.443   9.286  18.438  0.00  0.00    +0.000 C 
ATOM     20  N   UNL     1       8.329   7.923  18.260  0.00  0.00    +0.000 N 
ATOM     21  N   UNL     1       9.318   9.591  19.460  0.00  0.00    +0.000 N 
ATOM     22  H   UNL     1       8.418   7.363  19.095  0.00  0.00    +0.000 HD
ATOM     23  H   UNL     1       9.921   8.837  19.753  0.00  0.00    +0.000 HD
BRANCH  21  24
ATOM     24  C   UNL     1       9.665  10.891  19.897  0.00  0.00    +0.000 A 
ATOM     25  C   UNL     1       9.202  11.440  21.106  0.00  0.00    +0.000 A 
ATOM     26  C   UNL     1       9.512  12.747  21.487  0.00  0.00    +0.000 A 
ATOM     27  C   UNL     1      10.306  13.565  20.685  0.00  0.00    +0.000 A 
ATOM     28  C   UNL     1      10.796  13.003  19.504  0.00  0.00    +0.000 A 
ATOM     29  N   UNL     1      11.591  13.531  18.520  0.00  0.00    +0.000 N 
ATOM     30  N   UNL     1      11.869  12.673  17.522  0.00  0.00    +0.000 NA
ATOM     31  C   UNL     1      11.205  11.568  17.872  0.00  0.00    +0.000 A 
ATOM     32  C   UNL     1      10.509  11.700  19.100  0.00  0.00    +0.000 A 
ATOM     33  H   UNL     1      11.977  14.466  18.474  0.00  0.00    +0.000 HD
ENDBRANCH  21  24
ENDBRANCH   1  20
TORSDOF 4
ENDMDL
MODEL 3
REMARK VINA RESULT:     -10.2      0.819      1.457
REMARK  Name = 
REMARK  4 active torsions:
REMARK  status: ('A' for Active; 'I' for Inactive)
REMARK    1  A    between atoms: N_3  and  C_4
REMARK    2  A    between atoms: C_4  and  C_5
REMARK    3  A    between atoms: C_9  and  N_10
REMARK    4  A    between atoms: N_21  and  C_22
REMARK                            x       y       z     vdW  Elec       q    Type
REMARK                         _______ _______ _______ _____ _____    ______ ____
ROOT
ATOM      1  C   UNL     1       7.340   7.549  17.004  0.00  0.00    +0.000 C 
ENDROOT
BRANCH   1   2
ATOM      2  C   UNL     1       6.259   6.633  17.494  0.00  0.00    +0.000 A 
ATOM      3  C   UNL     1       6.430   5.877  18.657  0.00  0.00    +0.000 A 
ATOM      4  C   UNL     1       5.412   5.027  19.103  0.00  0.00    +0.000 A 
ATOM      5  F   UNL     1       5.655   4.313  20.214  0.00  0.00    +0.000 F 
ATOM      6  C   UNL     1       4.192   4.877  18.416  0.00  0.00    +0.000 A 
ATOM      7  C   UNL     1       4.046   5.648  17.253  0.00  0.00    +0.000 A 
ATOM      8  C   UNL     1       5.051   6.514  16.814  0.00  0.00    +0.000 A 
ATOM      9  F   UNL     1       4.830   7.253  15.717  0.00  0.00    +0.000 F 
BRANCH   6  10
ATOM     10  N   UNL     1       3.190   4.048  18.844  0.00  0.00    +0.000 N 
ATOM     11  C   UNL     1       3.289   2.630  19.169  0.00  0.00    +0.000 C 
ATOM     12  C   UNL     1       3.157   2.520  20.703  0.00  0.00    +0.000 C 
ATOM     13  C   UNL     1       1.845   3.128  21.227  0.00  0.00    +0.000 C 
ATOM     14  C   UNL     1       1.499   4.456  20.535  0.00  0.00    +0.000 C 
ATOM     15  C   UNL     1       1.789   4.422  19.023  0.00  0.00    +0.000 C 
ATOM     16  C   UNL     1       1.076   3.237  18.338  0.00  0.00    +0.000 C 
ATOM     17  C   UNL     1       2.062   2.058  18.444  0.00  0.00    +0.000 C 
ENDBRANCH   6  10
ENDBRANCH   1   2
BRANCH   1  20
ATOM     18  O   UNL     1       7.924  10.165  17.563  0.00  0.00    +0.000 OA
ATOM     19  C   UNL     1       8.403   9.315  18.301  0.00  0.00    +0.000 C 
ATOM     20  N   UNL     1       8.219   7.966  18.079  0.00  0.00    +0.000 N 
ATOM     21  N   UNL     1       9.215   9.541  19.392  0.00  0.00    +0.000 N 
ATOM     22  H   UNL     1       8.209   7.384  18.903  0.00  0.00    +0.000 HD
ATOM     23  H   UNL     1       9.747   8.745  19.710  0.00  0.00    +0.000 HD
BRANCH  21  24
ATOM     24  C   UNL     1       9.608  10.807  19.888  0.00  0.00    +0.000 A 
ATOM     25  C   UNL     1       9.159  11.319  21.118  0.00  0.00    +0.000 A 
ATOM     26  C   UNL     1       9.516  12.595  21.558  0.00  0.00    +0.000 A 
ATOM     27  C   UNL     1      10.344  13.418  20.796  0.00  0.00    +0.000 A 
ATOM     28  C   UNL     1      10.820  12.890  19.593  0.00  0.00    +0.000 A 
ATOM     29  N   UNL     1      11.640  13.431  18.637  0.00  0.00    +0.000 N 
ATOM     30  N   UNL     1      11.891  12.608  17.602  0.00  0.00    +0.000 NA
ATOM     31  C   UNL     1      11.184  11.514  17.901  0.00  0.00    +0.000 A 
ATOM     32  C   UNL     1      10.487  11.618  19.131  0.00  0.00    +0.000 A 
ATOM     33  H   UNL     1      12.060  14.351  18.633  0.00  0.00    +0.000 HD
ENDBRANCH  21  24
ENDBRANCH   1  20
TORSDOF 4
ENDMDL
MODEL 4
REMARK VINA RESULT:     -10.0      1.747      2.670
REMARK  Name = 
REMARK  4 active torsions:
REMARK  status: ('A' for Active; 'I' for Inactive)
REMARK    1  A    between atoms: N_3  and  C_4
REMARK    2  A    between atoms: C_4  and  C_5
REMARK    3  A    between atoms: C_9  and  N_10
REMARK    4  A    between atoms: N_21  and  C_22
REMARK                            x       y       z     vdW  Elec       q    Type
REMARK                         _______ _______ _______ _____ _____    ______ ____
ROOT
ATOM      1  C   UNL     1       8.227   8.016  17.654  0.00  0.00    +0.000 C 
ENDROOT
BRANCH   1   2
ATOM      2  C   UNL     1       7.143   7.019  17.936  0.00  0.00    +0.000 A 
ATOM      3  C   UNL     1       5.892   7.125  17.323  0.00  0.00    +0.000 A 
ATOM      4  C   UNL     1       4.890   6.187  17.595  0.00  0.00    +0.000 A 
ATOM      5  F   UNL     1       3.705   6.366  16.989  0.00  0.00    +0.000 F 
ATOM      6  C   UNL     1       5.075   5.117  18.492  0.00  0.00    +0.000 A 
ATOM      7  C   UNL     1       6.340   5.033  19.092  0.00  0.00    +0.000 A 
ATOM      8  C   UNL     1       7.351   5.955  18.808  0.00  0.00    +0.000 A 
ATOM      9  F   UNL     1       8.551   5.793  19.385  0.00  0.00    +0.000 F 
BRANCH   6  10
ATOM     10  N   UNL     1       4.101   4.194  18.764  0.00  0.00    +0.000 N 
ATOM     11  C   UNL     1       3.205   4.162  19.915  0.00  0.00    +0.000 C 
ATOM     12  C   UNL     1       1.802   4.533  19.389  0.00  0.00    +0.000 C 
ATOM     13  C   UNL     1       1.321   3.589  18.274  0.00  0.00    +0.000 C 
ATOM     14  C   UNL     1       2.437   3.254  17.272  0.00  0.00    +0.000 C 
ATOM     15  C   UNL     1       3.793   3.013  17.961  0.00  0.00    +0.000 C 
ATOM     16  C   UNL     1       3.685   1.930  19.054  0.00  0.00    +0.000 C 
ATOM     17  C   UNL     1       3.290   2.688  20.336  0.00  0.00    +0.000 C 
ENDBRANCH   6  10
ENDBRANCH   1   2
BRANCH   1  20
ATOM     18  O   UNL     1       8.742  10.686  17.981  0.00  0.00    +0.000 OA
ATOM     19  C   UNL     1       8.933   9.957  18.945  0.00  0.00    +0.000 C 
ATOM     20  N   UNL     1       8.758   8.590  18.874  0.00  0.00    +0.000 N 
ATOM     21  N   UNL     1       9.387  10.345  20.188  0.00  0.00    +0.000 N 
ATOM     22  H   UNL     1       8.471   8.141  19.731  0.00  0.00    +0.000 HD
ATOM     23  H   UNL     1       9.758   9.605  20.765  0.00  0.00    +0.000 HD
BRANCH  21  24
ATOM     24  C   UNL     1       9.673  11.671  20.592  0.00  0.00    +0.000 A 
ATOM     25  C   UNL     1      10.622  12.480  19.941  0.00  0.00    +0.000 A 
ATOM     26  C   UNL     1      10.927  13.765  20.394  0.00  0.00    +0.000 A 
ATOM     27  C   UNL     1      10.294  14.307  21.511  0.00  0.00    +0.000 A 
ATOM     28  C   UNL     1       9.324  13.516  22.130  0.00  0.00    +0.000 A 
ATOM     29  N   UNL     1       8.533  13.756  23.225  0.00  0.00    +0.000 N 
ATOM     30  N   UNL     1       7.696  12.747  23.526  0.00  0.00    +0.000 NA
ATOM     31  C   UNL     1       7.983  11.823  22.604  0.00  0.00    +0.000 A 
ATOM     32  C   UNL     1       8.993  12.233  21.697  0.00  0.00    +0.000 A 
ATOM     33  H   UNL     1       8.517  14.586  23.804  0.00  0.00    +0.000 HD
ENDBRANCH  21  24
ENDBRANCH   1  20
TORSDOF 4
ENDMDL
MODEL 5
REMARK VINA RESULT:      -9.9      1.404      2.520
REMARK  Name = 
REMARK  4 active torsions:
REMARK  status: ('A' for Active; 'I' for Inactive)
REMARK    1  A    between atoms: N_3  and  C_4
REMARK    2  A    between atoms: C_4  and  C_5
REMARK    3  A    between atoms: C_9  and  N_10
REMARK    4  A    between atoms: N_21  and  C_22
REMARK                            x       y       z     vdW  Elec       q    Type
REMARK                         _______ _______ _______ _____ _____    ______ ____
ROOT
ATOM      1  C   UNL     1       7.802   7.635  17.503  0.00  0.00    +0.000 C 
ENDROOT
BRANCH   1   2
ATOM      2  C   UNL     1       6.677   6.755  17.959  0.00  0.00    +0.000 A 
ATOM      3  C   UNL     1       5.373   6.960  17.501  0.00  0.00    +0.000 A 
ATOM      4  C   UNL     1       4.333   6.131  17.935  0.00  0.00    +0.000 A 
ATOM      5  F   UNL     1       3.102   6.402  17.471  0.00  0.00    +0.000 F 
ATOM      6  C   UNL     1       4.532   5.077  18.848  0.00  0.00    +0.000 A 
ATOM      7  C   UNL     1       5.850   4.893  19.291  0.00  0.00    +0.000 A 
ATOM      8  C   UNL     1       6.896   5.705  18.845  0.00  0.00    +0.000 A 
ATOM      9  F   UNL     1       8.140   5.448  19.277  0.00  0.00    +0.000 F 
BRANCH   6  10
ATOM     10  N   UNL     1       3.521   4.260  19.278  0.00  0.00    +0.000 N 
ATOM     11  C   UNL     1       2.104   4.587  19.393  0.00  0.00    +0.000 C 
ATOM     12  C   UNL     1       1.382   3.812  18.271  0.00  0.00    +0.000 C 
ATOM     13  C   UNL     1       1.619   2.295  18.355  0.00  0.00    +0.000 C 
ATOM     14  C   UNL     1       3.078   1.950  18.689  0.00  0.00    +0.000 C 
ATOM     15  C   UNL     1       3.674   2.888  19.755  0.00  0.00    +0.000 C 
ATOM     16  C   UNL     1       2.805   2.918  21.029  0.00  0.00    +0.000 C 
ATOM     17  C   UNL     1       1.768   4.031  20.784  0.00  0.00    +0.000 C 
ENDBRANCH   6  10
ENDBRANCH   1   2
BRANCH   1  20
ATOM     18  O   UNL     1       8.420  10.295  17.712  0.00  0.00    +0.000 OA
ATOM     19  C   UNL     1       8.737   9.571  18.647  0.00  0.00    +0.000 C 
ATOM     20  N   UNL     1       8.522   8.209  18.623  0.00  0.00    +0.000 N 
ATOM     21  N   UNL     1       9.379   9.961  19.803  0.00  0.00    +0.000 N 
ATOM     22  H   UNL     1       8.356   7.775  19.519  0.00  0.00    +0.000 HD
ATOM     23  H   UNL     1       9.815   9.218  20.329  0.00  0.00    +0.000 HD
BRANCH  21  24
ATOM     24  C   UNL     1       9.752  11.284  20.141  0.00  0.00    +0.000 A 
ATOM     25  C   UNL     1      10.669  12.036  19.385  0.00  0.00    +0.000 A 
ATOM     26  C   UNL     1      11.064  13.318  19.771  0.00  0.00    +0.000 A 
ATOM     27  C   UNL     1      10.557  13.914  20.925  0.00  0.00    +0.000 A 
ATOM     28  C   UNL     1       9.617  13.180  21.651  0.00  0.00    +0.000 A 
ATOM     29  N   UNL     1       8.939  13.480  22.805  0.00  0.00    +0.000 N 
ATOM     30  N   UNL     1       8.093  12.515  23.209  0.00  0.00    +0.000 NA
ATOM     31  C   UNL     1       8.259  11.557  22.292  0.00  0.00    +0.000 A 
ATOM     32  C   UNL     1       9.198  11.901  21.287  0.00  0.00    +0.000 A 
ATOM     33  H   UNL     1       9.007  14.324  23.359  0.00  0.00    +0.000 HD
ENDBRANCH  21  24
ENDBRANCH   1  20
TORSDOF 4
ENDMDL
MODEL 6
REMARK VINA RESULT:      -9.9      1.371      2.058
REMARK  Name = 
REMARK  4 active torsions:
REMARK  status: ('A' for Active; 'I' for Inactive)
REMARK    1  A    between atoms: N_3  and  C_4
REMARK    2  A    between atoms: C_4  and  C_5
REMARK    3  A    between atoms: C_9  and  N_10
REMARK    4  A    between atoms: N_21  and  C_22
REMARK                            x       y       z     vdW  Elec       q    Type
REMARK                         _______ _______ _______ _____ _____    ______ ____
ROOT
ATOM      1  C   UNL     1       7.811   7.597  17.481  0.00  0.00    +0.000 C 
ENDROOT
BRANCH   1   2
ATOM      2  C   UNL     1       6.660   6.723  17.882  0.00  0.00    +0.000 A 
ATOM      3  C   UNL     1       5.362   7.002  17.449  0.00  0.00    +0.000 A 
ATOM      4  C   UNL     1       4.297   6.177  17.830  0.00  0.00    +0.000 A 
ATOM      5  F   UNL     1       3.073   6.520  17.396  0.00  0.00    +0.000 F 
ATOM      6  C   UNL     1       4.466   5.055  18.665  0.00  0.00    +0.000 A 
ATOM      7  C   UNL     1       5.780   4.798  19.084  0.00  0.00    +0.000 A 
ATOM      8  C   UNL     1       6.850   5.606  18.689  0.00  0.00    +0.000 A 
ATOM      9  F   UNL     1       8.087   5.279  19.093  0.00  0.00    +0.000 F 
BRANCH   6  10
ATOM     10  N   UNL     1       3.432   4.242  19.043  0.00  0.00    +0.000 N 
ATOM     11  C   UNL     1       3.469   2.800  19.257  0.00  0.00    +0.000 C 
ATOM     12  C   UNL     1       3.348   2.578  20.779  0.00  0.00    +0.000 C 
ATOM     13  C   UNL     1       2.072   3.203  21.368  0.00  0.00    +0.000 C 
ATOM     14  C   UNL     1       1.781   4.594  20.784  0.00  0.00    +0.000 C 
ATOM     15  C   UNL     1       2.052   4.664  19.270  0.00  0.00    +0.000 C 
ATOM     16  C   UNL     1       1.278   3.569  18.507  0.00  0.00    +0.000 C 
ATOM     17  C   UNL     1       2.209   2.342  18.508  0.00  0.00    +0.000 C 
ENDBRANCH   6  10
ENDBRANCH   1   2
BRANCH   1  20
ATOM     18  O   UNL     1       8.500  10.240  17.675  0.00  0.00    +0.000 OA
ATOM     19  C   UNL     1       8.730   9.529  18.645  0.00  0.00    +0.000 C 
ATOM     20  N   UNL     1       8.473   8.174  18.634  0.00  0.00    +0.000 N 
ATOM     21  N   UNL     1       9.306   9.926  19.833  0.00  0.00    +0.000 N 
ATOM     22  H   UNL     1       8.234   7.767  19.526  0.00  0.00    +0.000 HD
ATOM     23  H   UNL     1       9.682   9.182  20.402  0.00  0.00    +0.000 HD
BRANCH  21  24
ATOM     24  C   UNL     1       9.699  11.244  20.167  0.00  0.00    +0.000 A 
ATOM     25  C   UNL     1      10.623  11.982  19.406  0.00  0.00    +0.000 A 
ATOM     26  C   UNL     1      11.037  13.259  19.788  0.00  0.00    +0.000 A 
ATOM     27  C   UNL     1      10.543  13.864  20.943  0.00  0.00    +0.000 A 
ATOM     28  C   UNL     1       9.596  13.144  21.674  0.00  0.00    +0.000 A 
ATOM     29  N   UNL     1       8.927  13.455  22.830  0.00  0.00    +0.000 N 
ATOM     30  N   UNL     1       8.070  12.502  23.239  0.00  0.00    +0.000 NA
ATOM     31  C   UNL     1       8.218  11.541  22.323  0.00  0.00    +0.000 A 
ATOM     32  C   UNL     1       9.158  11.870  21.314  0.00  0.00    +0.000 A 
ATOM     33  H   UNL     1       9.009  14.299  23.383  0.00  0.00    +0.000 HD
ENDBRANCH  21  24
ENDBRANCH   1  20
TORSDOF 4
ENDMDL
MODEL 7
REMARK VINA RESULT:      -9.8      0.804      2.084
REMARK  Name = 
REMARK  4 active torsions:
REMARK  status: ('A' for Active; 'I' for Inactive)
REMARK    1  A    between atoms: N_3  and  C_4
REMARK    2  A    between atoms: C_4  and  C_5
REMARK    3  A    between atoms: C_9  and  N_10
REMARK    4  A    between atoms: N_21  and  C_22
REMARK                            x       y       z     vdW  Elec       q    Type
REMARK                         _______ _______ _______ _____ _____    ______ ____
ROOT
ATOM      1  C   UNL     1       7.304   7.458  17.033  0.00  0.00    +0.000 C 
ENDROOT
BRANCH   1   2
ATOM      2  C   UNL     1       6.231   6.590  17.619  0.00  0.00    +0.000 A 
ATOM      3  C   UNL     1       6.504   5.734  18.689  0.00  0.00    +0.000 A 
ATOM      4  C   UNL     1       5.493   4.930  19.227  0.00  0.00    +0.000 A 
ATOM      5  F   UNL     1       5.833   4.115  20.238  0.00  0.00    +0.000 F 
ATOM      6  C   UNL     1       4.177   4.925  18.722  0.00  0.00    +0.000 A 
ATOM      7  C   UNL     1       3.930   5.794  17.649  0.00  0.00    +0.000 A 
ATOM      8  C   UNL     1       4.932   6.615  17.122  0.00  0.00    +0.000 A 
ATOM      9  F   UNL     1       4.618   7.452  16.122  0.00  0.00    +0.000 F 
BRANCH   6  10
ATOM     10  N   UNL     1       3.181   4.142  19.241  0.00  0.00    +0.000 N 
ATOM     11  C   UNL     1       1.764   4.468  19.353  0.00  0.00    +0.000 C 
ATOM     12  C   UNL     1       1.028   3.592  18.317  0.00  0.00    +0.000 C 
ATOM     13  C   UNL     1       1.280   2.090  18.530  0.00  0.00    +0.000 C 
ATOM     14  C   UNL     1       2.749   1.786  18.866  0.00  0.00    +0.000 C 
ATOM     15  C   UNL     1       3.355   2.818  19.834  0.00  0.00    +0.000 C 
ATOM     16  C   UNL     1       2.509   2.954  21.116  0.00  0.00    +0.000 C 
ATOM     17  C   UNL     1       1.458   4.034  20.794  0.00  0.00    +0.000 C 
ENDBRANCH   6  10
ENDBRANCH   1   2
BRANCH   1  20
ATOM     18  O   UNL     1       7.781  10.090  17.619  0.00  0.00    +0.000 OA
ATOM     19  C   UNL     1       8.372   9.252  18.287  0.00  0.00    +0.000 C 
ATOM     20  N   UNL     1       8.247   7.900  18.041  0.00  0.00    +0.000 N 
ATOM     21  N   UNL     1       9.261   9.499  19.312  0.00  0.00    +0.000 N 
ATOM     22  H   UNL     1       8.343   7.298  18.845  0.00  0.00    +0.000 HD
ATOM     23  H   UNL     1       9.863   8.728  19.558  0.00  0.00    +0.000 HD
BRANCH  21  24
ATOM     24  C   UNL     1       9.621  10.773  19.810  0.00  0.00    +0.000 A 
ATOM     25  C   UNL     1       9.197  11.252  21.063  0.00  0.00    +0.000 A 
ATOM     26  C   UNL     1       9.520  12.536  21.507  0.00  0.00    +0.000 A 
ATOM     27  C   UNL     1      10.287  13.400  20.727  0.00  0.00    +0.000 A 
ATOM     28  C   UNL     1      10.739  12.906  19.501  0.00  0.00    +0.000 A 
ATOM     29  N   UNL     1      11.502  13.491  18.523  0.00  0.00    +0.000 N 
ATOM     30  N   UNL     1      11.747  12.692  17.470  0.00  0.00    +0.000 NA
ATOM     31  C   UNL     1      11.096  11.567  17.779  0.00  0.00    +0.000 A 
ATOM     32  C   UNL     1      10.439  11.627  19.034  0.00  0.00    +0.000 A 
ATOM     33  H   UNL     1      11.886  14.428  18.518  0.00  0.00    +0.000 HD
ENDBRANCH  21  24
ENDBRANCH   1  20
TORSDOF 4
ENDMDL
MODEL 8
REMARK VINA RESULT:      -9.7      3.215     10.879
REMARK  Name = 
REMARK  4 active torsions:
REMARK  status: ('A' for Active; 'I' for Inactive)
REMARK    1  A    between atoms: N_3  and  C_4
REMARK    2  A    between atoms: C_4  and  C_5
REMARK    3  A    between atoms: C_9  and  N_10
REMARK    4  A    between atoms: N_21  and  C_22
REMARK                            x       y       z     vdW  Elec       q    Type
REMARK                         _______ _______ _______ _____ _____    ______ ____
ROOT
ATOM      1  C   UNL     1       9.091   9.500  19.118  0.00  0.00    +0.000 C 
ENDROOT
BRANCH   1   2
ATOM      2  C   UNL     1       9.523  10.924  18.935  0.00  0.00    +0.000 A 
ATOM      3  C   UNL     1      10.092  11.353  17.733  0.00  0.00    +0.000 A 
ATOM      4  C   UNL     1      10.490  12.685  17.576  0.00  0.00    +0.000 A 
ATOM      5  F   UNL     1      11.052  13.020  16.403  0.00  0.00    +0.000 F 
ATOM      6  C   UNL     1      10.358  13.644  18.599  0.00  0.00    +0.000 A 
ATOM      7  C   UNL     1       9.783  13.187  19.795  0.00  0.00    +0.000 A 
ATOM      8  C   UNL     1       9.364  11.862  19.950  0.00  0.00    +0.000 A 
ATOM      9  F   UNL     1       8.785  11.501  21.104  0.00  0.00    +0.000 F 
BRANCH   6  10
ATOM     10  N   UNL     1      10.744  14.949  18.455  0.00  0.00    +0.000 N 
ATOM     11  C   UNL     1       9.949  16.058  17.939  0.00  0.00    +0.000 C 
ATOM     12  C   UNL     1       9.622  16.963  19.145  0.00  0.00    +0.000 C 
ATOM     13  C   UNL     1      10.884  17.463  19.868  0.00  0.00    +0.000 C 
ATOM     14  C   UNL     1      11.945  16.361  20.019  0.00  0.00    +0.000 C 
ATOM     15  C   UNL     1      12.068  15.488  18.757  0.00  0.00    +0.000 C 
ATOM     16  C   UNL     1      12.333  16.345  17.502  0.00  0.00    +0.000 C 
ATOM     17  C   UNL     1      10.937  16.725  16.971  0.00  0.00    +0.000 C 
ENDBRANCH   6  10
ENDBRANCH   1   2
BRANCH   1  20
ATOM     18  O   UNL     1       8.270   6.907  18.798  0.00  0.00    +0.000 OA
ATOM     19  C   UNL     1       7.849   7.731  17.997  0.00  0.00    +0.000 C 
ATOM     20  N   UNL     1       8.241   9.053  18.033  0.00  0.00    +0.000 N 
ATOM     21  N   UNL     1       6.998   7.485  16.941  0.00  0.00    +0.000 N 
ATOM     22  H   UNL     1       7.558   9.721  17.708  0.00  0.00    +0.000 HD
ATOM     23  H   UNL     1       6.979   8.195  16.224  0.00  0.00    +0.000 HD
BRANCH  21  24
ATOM     24  C   UNL     1       6.417   6.236  16.615  0.00  0.00    +0.000 A 
ATOM     25  C   UNL     1       7.044   5.298  15.774  0.00  0.00    +0.000 A 
ATOM     26  C   UNL     1       6.426   4.097  15.422  0.00  0.00    +0.000 A 
ATOM     27  C   UNL     1       5.157   3.770  15.898  0.00  0.00    +0.000 A 
ATOM     28  C   UNL     1       4.555   4.686  16.763  0.00  0.00    +0.000 A 
ATOM     29  N   UNL     1       3.338   4.659  17.395  0.00  0.00    +0.000 N 
ATOM     30  N   UNL     1       3.101   5.732  18.171  0.00  0.00    +0.000 NA
ATOM     31  C   UNL     1       4.197   6.479  18.007  0.00  0.00    +0.000 A 
ATOM     32  C   UNL     1       5.150   5.889  17.139  0.00  0.00    +0.000 A 
ATOM     33  H   UNL     1       2.629   3.939  17.339  0.00  0.00    +0.000 HD
ENDBRANCH  21  24
ENDBRANCH   1  20
TORSDOF 4
ENDMDL
MODEL 9
REMARK VINA RESULT:      -9.6      3.189     10.782
REMARK  Name = 
REMARK  4 active torsions:
REMARK  status: ('A' for Active; 'I' for Inactive)
REMARK    1  A    between atoms: N_3  and  C_4
REMARK    2  A    between atoms: C_4  and  C_5
REMARK    3  A    between atoms: C_9  and  N_10
REMARK    4  A    between atoms: N_21  and  C_22
REMARK                            x       y       z     vdW  Elec       q    Type
REMARK                         _______ _______ _______ _____ _____    ______ ____
ROOT
ATOM      1  C   UNL     1       9.025   9.266  19.207  0.00  0.00    +0.000 C 
ENDROOT
BRANCH   1   2
ATOM      2  C   UNL     1       9.429  10.708  19.128  0.00  0.00    +0.000 A 
ATOM      3  C   UNL     1       9.802  11.284  17.910  0.00  0.00    +0.000 A 
ATOM      4  C   UNL     1      10.176  12.631  17.851  0.00  0.00    +0.000 A 
ATOM      5  F   UNL     1      10.545  13.110  16.652  0.00  0.00    +0.000 F 
ATOM      6  C   UNL     1      10.213  13.460  18.989  0.00  0.00    +0.000 A 
ATOM      7  C   UNL     1       9.833  12.857  20.198  0.00  0.00    +0.000 A 
ATOM      8  C   UNL     1       9.438  11.518  20.259  0.00  0.00    +0.000 A 
ATOM      9  F   UNL     1       9.048  11.015  21.440  0.00  0.00    +0.000 F 
BRANCH   6  10
ATOM     10  N   UNL     1      10.577  14.779  18.941  0.00  0.00    +0.000 N 
ATOM     11  C   UNL     1      11.919  15.334  19.079  0.00  0.00    +0.000 C 
ATOM     12  C   UNL     1      12.333  15.837  17.680  0.00  0.00    +0.000 C 
ATOM     13  C   UNL     1      11.349  16.873  17.111  0.00  0.00    +0.000 C 
ATOM     14  C   UNL     1       9.884  16.492  17.371  0.00  0.00    +0.000 C 
ATOM     15  C   UNL     1       9.670  15.912  18.781  0.00  0.00    +0.000 C 
ATOM     16  C   UNL     1      10.195  16.869  19.871  0.00  0.00    +0.000 C 
ATOM     17  C   UNL     1      11.677  16.493  20.058  0.00  0.00    +0.000 C 
ENDBRANCH   6  10
ENDBRANCH   1   2
BRANCH   1  20
ATOM     18  O   UNL     1       8.123   6.713  18.798  0.00  0.00    +0.000 OA
ATOM     19  C   UNL     1       7.799   7.560  17.976  0.00  0.00    +0.000 C 
ATOM     20  N   UNL     1       8.243   8.864  18.055  0.00  0.00    +0.000 N 
ATOM     21  N   UNL     1       7.021   7.359  16.855  0.00  0.00    +0.000 N 
ATOM     22  H   UNL     1       7.615   9.563  17.686  0.00  0.00    +0.000 HD
ATOM     23  H   UNL     1       7.088   8.074  16.147  0.00  0.00    +0.000 HD
BRANCH  21  24
ATOM     24  C   UNL     1       6.416   6.138  16.472  0.00  0.00    +0.000 A 
ATOM     25  C   UNL     1       6.985   5.266  15.527  0.00  0.00    +0.000 A 
ATOM     26  C   UNL     1       6.340   4.095  15.124  0.00  0.00    +0.000 A 
ATOM     27  C   UNL     1       5.101   3.734  15.651  0.00  0.00    +0.000 A 
ATOM     28  C   UNL     1       4.557   4.583  16.619  0.00  0.00    +0.000 A 
ATOM     29  N   UNL     1       3.381   4.510  17.320  0.00  0.00    +0.000 N 
ATOM     30  N   UNL     1       3.198   5.521  18.188  0.00  0.00    +0.000 NA
ATOM     31  C   UNL     1       4.286   6.277  18.013  0.00  0.00    +0.000 A 
ATOM     32  C   UNL     1       5.181   5.754  17.046  0.00  0.00    +0.000 A 
ATOM     33  H   UNL     1       2.667   3.796  17.254  0.00  0.00    +0.000 HD
ENDBRANCH  21  24
ENDBRANCH   1  20
TORSDOF 4
ENDMDL
