MODEL 1
REMARK VINA RESULT:      -8.2      0.000      0.000
REMARK  Name = 
REMARK  4 active torsions:
REMARK  status: ('A' for Active; 'I' for Inactive)
REMARK    1  A    between atoms: C_2  and  C_12
REMARK    2  A    between atoms: N_3  and  C_4
REMARK    3  A    between atoms: C_8  and  C_9
REMARK    4  A    between atoms: C_9  and  O_10
REMARK                            x       y       z     vdW  Elec       q    Type
REMARK                         _______ _______ _______ _____ _____    ______ ____
ROOT
ATOM      1  O   UNL     1       5.729   4.254  18.251  0.00  0.00    +0.000 OA
ATOM      2  C   UNL     1       5.246   4.186  17.120  0.00  0.00    +0.000 C 
ATOM      3  N   UNL     1       3.904   3.936  16.873  0.00  0.00    +0.000 N 
ATOM      4  H   UNL     1       3.596   3.937  15.912  0.00  0.00    +0.000 HD
ENDROOT
BRANCH   2   5
ATOM      5  C   UNL     1       6.123   4.475  15.981  0.00  0.00    +0.000 A 
ATOM      6  C   UNL     1       7.349   5.078  16.235  0.00  0.00    +0.000 A 
ATOM      7  N   UNL     1       7.747   5.668  15.079  0.00  0.00    +0.000 N 
ATOM      8  C   UNL     1       7.225   4.950  14.036  0.00  0.00    +0.000 A 
ATOM      9  C   UNL     1       7.642   4.911  12.704  0.00  0.00    +0.000 A 
ATOM     10  C   UNL     1       6.962   4.039  11.852  0.00  0.00    +0.000 A 
ATOM     11  C   UNL     1       5.843   3.324  12.313  0.00  0.00    +0.000 A 
ATOM     12 CL   UNL     1       5.066   2.242  11.224  0.00  0.00    +0.000 Cl
ATOM     13  C   UNL     1       5.407   3.431  13.639  0.00  0.00    +0.000 A 
ATOM     14  C   UNL     1       6.144   4.221  14.557  0.00  0.00    +0.000 A 
ATOM     15  H   UNL     1       8.419   6.422  15.015  0.00  0.00    +0.000 HD
ENDBRANCH   2   5
BRANCH   3  16
ATOM     16  C   UNL     1       2.922   3.657  17.874  0.00  0.00    +0.000 A 
ATOM     17  C   UNL     1       2.106   2.524  17.861  0.00  0.00    +0.000 A 
ATOM     18  C   UNL     1       1.095   2.340  18.803  0.00  0.00    +0.000 A 
ATOM     19  C   UNL     1       0.887   3.295  19.792  0.00  0.00    +0.000 A 
ATOM     20  C   UNL     1       1.707   4.427  19.859  0.00  0.00    +0.000 A 
ATOM     21  C   UNL     1       2.730   4.590  18.907  0.00  0.00    +0.000 A 
BRANCH  20  22
ATOM     22  C   UNL     1       1.405   5.465  20.911  0.00  0.00    +0.000 C 
BRANCH  22  23
ATOM     23  O   UNL     1       2.052   6.697  20.627  0.00  0.00    +0.000 OA
ATOM     24  H   UNL     1       1.579   7.083  19.870  0.00  0.00    +0.000 HD
ENDBRANCH  22  23
ENDBRANCH  20  22
ENDBRANCH   3  16
TORSDOF 4
ENDMDL
MODEL 2
REMARK VINA RESULT:      -8.1      1.320      1.413
REMARK  Name = 
REMARK  4 active torsions:
REMARK  status: ('A' for Active; 'I' for Inactive)
REMARK    1  A    between atoms: C_2  and  C_12
REMARK    2  A    between atoms: N_3  and  C_4
REMARK    3  A    between atoms: C_8  and  C_9
REMARK    4  A    between atoms: C_9  and  O_10
REMARK                            x       y       z     vdW  Elec       q    Type
REMARK                         _______ _______ _______ _____ _____    ______ ____
ROOT
ATOM      1  O   UNL     1       4.362   5.726  17.467  0.00  0.00    +0.000 OA
ATOM      2  C   UNL     1       4.673   4.696  16.867  0.00  0.00    +0.000 C 
ATOM      3  N   UNL     1       4.010   3.487  17.025  0.00  0.00    +0.000 N 
ATOM      4  H   UNL     1       4.314   2.709  16.460  0.00  0.00    +0.000 HD
ENDROOT
BRANCH   2   5
ATOM      5  C   UNL     1       5.741   4.781  15.867  0.00  0.00    +0.000 A 
ATOM      6  C   UNL     1       6.987   5.241  16.277  0.00  0.00    +0.000 A 
ATOM      7  N   UNL     1       7.631   5.683  15.168  0.00  0.00    +0.000 N 
ATOM      8  C   UNL     1       7.177   4.959  14.098  0.00  0.00    +0.000 A 
ATOM      9  C   UNL     1       7.778   4.763  12.853  0.00  0.00    +0.000 A 
ATOM     10  C   UNL     1       7.119   3.921  11.955  0.00  0.00    +0.000 A 
ATOM     11  C   UNL     1       5.856   3.393  12.273  0.00  0.00    +0.000 A 
ATOM     12 CL   UNL     1       5.109   2.338  11.138  0.00  0.00    +0.000 Cl
ATOM     13  C   UNL     1       5.246   3.658  13.505  0.00  0.00    +0.000 A 
ATOM     14  C   UNL     1       5.939   4.416  14.481  0.00  0.00    +0.000 A 
ATOM     15  H   UNL     1       8.403   6.337  15.168  0.00  0.00    +0.000 HD
ENDBRANCH   2   5
BRANCH   3  16
ATOM     16  C   UNL     1       2.939   3.251  17.941  0.00  0.00    +0.000 A 
ATOM     17  C   UNL     1       1.594   3.463  17.628  0.00  0.00    +0.000 A 
ATOM     18  C   UNL     1       0.588   3.314  18.582  0.00  0.00    +0.000 A 
ATOM     19  C   UNL     1       0.915   2.937  19.880  0.00  0.00    +0.000 A 
ATOM     20  C   UNL     1       2.247   2.682  20.223  0.00  0.00    +0.000 A 
ATOM     21  C   UNL     1       3.248   2.826  19.245  0.00  0.00    +0.000 A 
BRANCH  20  22
ATOM     22  C   UNL     1       2.560   2.335  21.658  0.00  0.00    +0.000 C 
BRANCH  22  23
ATOM     23  O   UNL     1       2.349   3.444  22.519  0.00  0.00    +0.000 OA
ATOM     24  H   UNL     1       1.458   3.779  22.317  0.00  0.00    +0.000 HD
ENDBRANCH  22  23
ENDBRANCH  20  22
ENDBRANCH   3  16
TORSDOF 4
ENDMDL
MODEL 3
REMARK VINA RESULT:      -7.9      1.383      1.999
REMARK  Name = 
REMARK  4 active torsions:
REMARK  status: ('A' for Active; 'I' for Inactive)
REMARK    1  A    between atoms: C_2  and  C_12
REMARK    2  A    between atoms: N_3  and  C_4
REMARK    3  A    between atoms: C_8  and  C_9
REMARK    4  A    between atoms: C_9  and  O_10
REMARK                            x       y       z     vdW  Elec       q    Type
REMARK                         _______ _______ _______ _____ _____    ______ ____
ROOT
ATOM      1  O   UNL     1       5.642   3.893  18.134  0.00  0.00    +0.000 OA
ATOM      2  C   UNL     1       5.227   4.578  17.198  0.00  0.00    +0.000 C 
ATOM      3  N   UNL     1       3.998   5.222  17.205  0.00  0.00    +0.000 N 
ATOM      4  H   UNL     1       3.763   5.792  16.407  0.00  0.00    +0.000 HD
ENDROOT
BRANCH   2   5
ATOM      5  C   UNL     1       6.121   4.793  16.057  0.00  0.00    +0.000 A 
ATOM      6  C   UNL     1       7.344   5.411  16.290  0.00  0.00    +0.000 A 
ATOM      7  N   UNL     1       7.760   5.927  15.106  0.00  0.00    +0.000 N 
ATOM      8  C   UNL     1       7.252   5.145  14.102  0.00  0.00    +0.000 A 
ATOM      9  C   UNL     1       7.688   5.022  12.782  0.00  0.00    +0.000 A 
ATOM     10  C   UNL     1       7.019   4.099  11.976  0.00  0.00    +0.000 A 
ATOM     11  C   UNL     1       5.892   3.416  12.464  0.00  0.00    +0.000 A 
ATOM     12 CL   UNL     1       5.129   2.268  11.434  0.00  0.00    +0.000 Cl
ATOM     13  C   UNL     1       5.437   3.606  13.775  0.00  0.00    +0.000 A 
ATOM     14  C   UNL     1       6.162   4.451  14.652  0.00  0.00    +0.000 A 
ATOM     15  H   UNL     1       8.434   6.674  15.005  0.00  0.00    +0.000 HD
ENDBRANCH   2   5
BRANCH   3  16
ATOM     16  C   UNL     1       3.027   5.127  18.250  0.00  0.00    +0.000 A 
ATOM     17  C   UNL     1       2.861   6.099  19.240  0.00  0.00    +0.000 A 
ATOM     18  C   UNL     1       1.969   5.921  20.297  0.00  0.00    +0.000 A 
ATOM     19  C   UNL     1       1.212   4.758  20.377  0.00  0.00    +0.000 A 
ATOM     20  C   UNL     1       1.324   3.777  19.386  0.00  0.00    +0.000 A 
ATOM     21  C   UNL     1       2.221   3.978  18.320  0.00  0.00    +0.000 A 
BRANCH  20  22
ATOM     22  C   UNL     1       0.529   2.506  19.547  0.00  0.00    +0.000 C 
BRANCH  22  23
ATOM     23  O   UNL     1       0.942   1.512  18.619  0.00  0.00    +0.000 OA
ATOM     24  H   UNL     1       0.937   0.669  19.105  0.00  0.00    +0.000 HD
ENDBRANCH  22  23
ENDBRANCH  20  22
ENDBRANCH   3  16
TORSDOF 4
ENDMDL
MODEL 4
REMARK VINA RESULT:      -7.9      1.401      1.402
REMARK  Name = 
REMARK  4 active torsions:
REMARK  status: ('A' for Active; 'I' for Inactive)
REMARK    1  A    between atoms: C_2  and  C_12
REMARK    2  A    between atoms: N_3  and  C_4
REMARK    3  A    between atoms: C_8  and  C_9
REMARK    4  A    between atoms: C_9  and  O_10
REMARK                            x       y       z     vdW  Elec       q    Type
REMARK                         _______ _______ _______ _____ _____    ______ ____
ROOT
ATOM      1  O   UNL     1       3.594   3.763  16.525  0.00  0.00    +0.000 OA
ATOM      2  C   UNL     1       4.650   4.258  16.921  0.00  0.00    +0.000 C 
ATOM      3  N   UNL     1       4.922   4.515  18.258  0.00  0.00    +0.000 N 
ATOM      4  H   UNL     1       5.831   4.887  18.488  0.00  0.00    +0.000 HD
ENDROOT
BRANCH   2   5
ATOM      5  C   UNL     1       5.706   4.504  15.935  0.00  0.00    +0.000 A 
ATOM      6  C   UNL     1       6.900   5.060  16.378  0.00  0.00    +0.000 A 
ATOM      7  N   UNL     1       7.498   5.626  15.300  0.00  0.00    +0.000 N 
ATOM      8  C   UNL     1       7.118   4.923  14.187  0.00  0.00    +0.000 A 
ATOM      9  C   UNL     1       7.737   4.858  12.938  0.00  0.00    +0.000 A 
ATOM     10  C   UNL     1       7.164   4.009  11.989  0.00  0.00    +0.000 A 
ATOM     11  C   UNL     1       5.959   3.342  12.268  0.00  0.00    +0.000 A 
ATOM     12 CL   UNL     1       5.320   2.285  11.071  0.00  0.00    +0.000 Cl
ATOM     13  C   UNL     1       5.325   3.475  13.510  0.00  0.00    +0.000 A 
ATOM     14  C   UNL     1       5.939   4.241  14.532  0.00  0.00    +0.000 A 
ATOM     15  H   UNL     1       8.201   6.352  15.342  0.00  0.00    +0.000 HD
ENDBRANCH   2   5
BRANCH   3  16
ATOM     16  C   UNL     1       4.006   4.310  19.336  0.00  0.00    +0.000 A 
ATOM     17  C   UNL     1       3.853   3.090  19.998  0.00  0.00    +0.000 A 
ATOM     18  C   UNL     1       2.880   2.906  20.979  0.00  0.00    +0.000 A 
ATOM     19  C   UNL     1       2.038   3.958  21.326  0.00  0.00    +0.000 A 
ATOM     20  C   UNL     1       2.184   5.206  20.711  0.00  0.00    +0.000 A 
ATOM     21  C   UNL     1       3.179   5.376  19.730  0.00  0.00    +0.000 A 
BRANCH  20  22
ATOM     22  C   UNL     1       1.210   6.298  21.075  0.00  0.00    +0.000 C 
BRANCH  22  23
ATOM     23  O   UNL     1       1.858   7.557  21.189  0.00  0.00    +0.000 OA
ATOM     24  H   UNL     1       2.603   7.537  20.563  0.00  0.00    +0.000 HD
ENDBRANCH  22  23
ENDBRANCH  20  22
ENDBRANCH   3  16
TORSDOF 4
ENDMDL
MODEL 5
REMARK VINA RESULT:      -7.8      1.419      2.005
REMARK  Name = 
REMARK  4 active torsions:
REMARK  status: ('A' for Active; 'I' for Inactive)
REMARK    1  A    between atoms: C_2  and  C_12
REMARK    2  A    between atoms: N_3  and  C_4
REMARK    3  A    between atoms: C_8  and  C_9
REMARK    4  A    between atoms: C_9  and  O_10
REMARK                            x       y       z     vdW  Elec       q    Type
REMARK                         _______ _______ _______ _____ _____    ______ ____
ROOT
ATOM      1  O   UNL     1       4.208   3.225  17.056  0.00  0.00    +0.000 OA
ATOM      2  C   UNL     1       4.647   4.369  16.931  0.00  0.00    +0.000 C 
ATOM      3  N   UNL     1       4.258   5.432  17.735  0.00  0.00    +0.000 N 
ATOM      4  H   UNL     1       4.703   6.323  17.580  0.00  0.00    +0.000 HD
ENDROOT
BRANCH   2   5
ATOM      5  C   UNL     1       5.702   4.595  15.939  0.00  0.00    +0.000 A 
ATOM      6  C   UNL     1       6.894   5.167  16.368  0.00  0.00    +0.000 A 
ATOM      7  N   UNL     1       7.490   5.708  15.276  0.00  0.00    +0.000 N 
ATOM      8  C   UNL     1       7.113   4.976  14.182  0.00  0.00    +0.000 A 
ATOM      9  C   UNL     1       7.732   4.883  12.934  0.00  0.00    +0.000 A 
ATOM     10  C   UNL     1       7.163   4.008  12.007  0.00  0.00    +0.000 A 
ATOM     11  C   UNL     1       5.961   3.343  12.302  0.00  0.00    +0.000 A 
ATOM     12 CL   UNL     1       5.326   2.254  11.131  0.00  0.00    +0.000 Cl
ATOM     13  C   UNL     1       5.326   3.505  13.540  0.00  0.00    +0.000 A 
ATOM     14  C   UNL     1       5.937   4.298  14.543  0.00  0.00    +0.000 A 
ATOM     15  H   UNL     1       8.190   6.438  15.301  0.00  0.00    +0.000 HD
ENDBRANCH   2   5
BRANCH   3  16
ATOM     16  C   UNL     1       3.260   5.366  18.756  0.00  0.00    +0.000 A 
ATOM     17  C   UNL     1       2.736   6.492  19.397  0.00  0.00    +0.000 A 
ATOM     18  C   UNL     1       1.836   6.378  20.455  0.00  0.00    +0.000 A 
ATOM     19  C   UNL     1       1.433   5.120  20.890  0.00  0.00    +0.000 A 
ATOM     20  C   UNL     1       1.908   3.970  20.251  0.00  0.00    +0.000 A 
ATOM     21  C   UNL     1       2.808   4.104  19.177  0.00  0.00    +0.000 A 
BRANCH  20  22
ATOM     22  C   UNL     1       1.491   2.627  20.796  0.00  0.00    +0.000 C 
BRANCH  22  23
ATOM     23  O   UNL     1       1.653   2.565  22.206  0.00  0.00    +0.000 OA
ATOM     24  H   UNL     1       0.855   2.970  22.588  0.00  0.00    +0.000 HD
ENDBRANCH  22  23
ENDBRANCH  20  22
ENDBRANCH   3  16
TORSDOF 4
ENDMDL
MODEL 6
REMARK VINA RESULT:      -7.7      3.705      7.714
REMARK  Name = 
REMARK  4 active torsions:
REMARK  status: ('A' for Active; 'I' for Inactive)
REMARK    1  A    between atoms: C_2  and  C_12
REMARK    2  A    between atoms: N_3  and  C_4
REMARK    3  A    between atoms: C_8  and  C_9
REMARK    4  A    between atoms: C_9  and  O_10
REMARK                            x       y       z     vdW  Elec       q    Type
REMARK                         _______ _______ _______ _____ _____    ______ ____
ROOT
ATOM      1  O   UNL     1       4.985   7.082  15.490  0.00  0.00    +0.000 OA
ATOM      2  C   UNL     1       4.859   6.064  16.173  0.00  0.00    +0.000 C 
ATOM      3  N   UNL     1       5.368   4.827  15.805  0.00  0.00    +0.000 N 
ATOM      4  H   UNL     1       5.248   4.061  16.450  0.00  0.00    +0.000 HD
ENDROOT
BRANCH   2   5
ATOM      5  C   UNL     1       4.216   6.193  17.483  0.00  0.00    +0.000 A 
ATOM      6  C   UNL     1       4.680   5.395  18.522  0.00  0.00    +0.000 A 
ATOM      7  N   UNL     1       3.683   5.320  19.440  0.00  0.00    +0.000 N 
ATOM      8  C   UNL     1       2.953   6.476  19.367  0.00  0.00    +0.000 A 
ATOM      9  C   UNL     1       2.103   7.038  20.322  0.00  0.00    +0.000 A 
ATOM     10  C   UNL     1       1.523   8.268  20.009  0.00  0.00    +0.000 A 
ATOM     11  C   UNL     1       1.716   8.844  18.742  0.00  0.00    +0.000 A 
ATOM     12 CL   UNL     1       1.000  10.377  18.428  0.00  0.00    +0.000 Cl
ATOM     13  C   UNL     1       2.524   8.226  17.778  0.00  0.00    +0.000 A 
ATOM     14  C   UNL     1       3.216   7.034  18.105  0.00  0.00    +0.000 A 
ATOM     15  H   UNL     1       3.591   4.593  20.137  0.00  0.00    +0.000 HD
ENDBRANCH   2   5
BRANCH   3  16
ATOM     16  C   UNL     1       6.036   4.546  14.573  0.00  0.00    +0.000 A 
ATOM     17  C   UNL     1       7.202   5.196  14.162  0.00  0.00    +0.000 A 
ATOM     18  C   UNL     1       7.768   4.961  12.909  0.00  0.00    +0.000 A 
ATOM     19  C   UNL     1       7.172   4.055  12.039  0.00  0.00    +0.000 A 
ATOM     20  C   UNL     1       6.023   3.358  12.428  0.00  0.00    +0.000 A 
ATOM     21  C   UNL     1       5.473   3.599  13.701  0.00  0.00    +0.000 A 
BRANCH  20  22
ATOM     22  C   UNL     1       5.379   2.431  11.429  0.00  0.00    +0.000 C 
BRANCH  22  23
ATOM     23  O   UNL     1       5.984   1.146  11.445  0.00  0.00    +0.000 OA
ATOM     24  H   UNL     1       6.113   0.919  12.382  0.00  0.00    +0.000 HD
ENDBRANCH  22  23
ENDBRANCH  20  22
ENDBRANCH   3  16
TORSDOF 4
ENDMDL
MODEL 7
REMARK VINA RESULT:      -7.7      3.314      7.473
REMARK  Name = 
REMARK  4 active torsions:
REMARK  status: ('A' for Active; 'I' for Inactive)
REMARK    1  A    between atoms: C_2  and  C_12
REMARK    2  A    between atoms: N_3  and  C_4
REMARK    3  A    between atoms: C_8  and  C_9
REMARK    4  A    between atoms: C_9  and  O_10
REMARK                            x       y       z     vdW  Elec       q    Type
REMARK                         _______ _______ _______ _____ _____    ______ ____
ROOT
ATOM      1  O   UNL     1       6.876   4.415  17.138  0.00  0.00    +0.000 OA
ATOM      2  C   UNL     1       5.743   4.814  16.866  0.00  0.00    +0.000 C 
ATOM      3  N   UNL     1       5.245   4.882  15.572  0.00  0.00    +0.000 N 
ATOM      4  H   UNL     1       4.291   5.186  15.453  0.00  0.00    +0.000 HD
ENDROOT
BRANCH   2   5
ATOM      5  C   UNL     1       4.846   5.146  17.977  0.00  0.00    +0.000 A 
ATOM      6  C   UNL     1       4.983   4.436  19.164  0.00  0.00    +0.000 A 
ATOM      7  N   UNL     1       3.808   4.553  19.833  0.00  0.00    +0.000 N 
ATOM      8  C   UNL     1       3.241   5.751  19.487  0.00  0.00    +0.000 A 
ATOM      9  C   UNL     1       2.269   6.489  20.166  0.00  0.00    +0.000 A 
ATOM     10  C   UNL     1       1.908   7.720  19.615  0.00  0.00    +0.000 A 
ATOM     11  C   UNL     1       2.435   8.127  18.378  0.00  0.00    +0.000 A 
ATOM     12 CL   UNL     1       1.976   9.669  17.767  0.00  0.00    +0.000 Cl
ATOM     13  C   UNL     1       3.362   7.337  17.686  0.00  0.00    +0.000 A 
ATOM     14  C   UNL     1       3.833   6.135  18.272  0.00  0.00    +0.000 A 
ATOM     15  H   UNL     1       3.487   3.921  20.555  0.00  0.00    +0.000 HD
ENDBRANCH   2   5
BRANCH   3  16
ATOM     16  C   UNL     1       5.986   4.572  14.389  0.00  0.00    +0.000 A 
ATOM     17  C   UNL     1       7.117   5.281  13.979  0.00  0.00    +0.000 A 
ATOM     18  C   UNL     1       7.752   5.008  12.768  0.00  0.00    +0.000 A 
ATOM     19  C   UNL     1       7.264   4.002  11.941  0.00  0.00    +0.000 A 
ATOM     20  C   UNL     1       6.154   3.246  12.334  0.00  0.00    +0.000 A 
ATOM     21  C   UNL     1       5.533   3.528  13.565  0.00  0.00    +0.000 A 
BRANCH  20  22
ATOM     22  C   UNL     1       5.625   2.206  11.378  0.00  0.00    +0.000 C 
BRANCH  22  23
ATOM     23  O   UNL     1       6.538   1.131  11.221  0.00  0.00    +0.000 OA
ATOM     24  H   UNL     1       6.708   1.056  10.266  0.00  0.00    +0.000 HD
ENDBRANCH  22  23
ENDBRANCH  20  22
ENDBRANCH   3  16
TORSDOF 4
ENDMDL
MODEL 8
REMARK VINA RESULT:      -7.6      1.343      1.682
REMARK  Name = 
REMARK  4 active torsions:
REMARK  status: ('A' for Active; 'I' for Inactive)
REMARK    1  A    between atoms: C_2  and  C_12
REMARK    2  A    between atoms: N_3  and  C_4
REMARK    3  A    between atoms: C_8  and  C_9
REMARK    4  A    between atoms: C_9  and  O_10
REMARK                            x       y       z     vdW  Elec       q    Type
REMARK                         _______ _______ _______ _____ _____    ______ ____
ROOT
ATOM      1  O   UNL     1       4.219   3.380  17.133  0.00  0.00    +0.000 OA
ATOM      2  C   UNL     1       4.746   4.488  17.023  0.00  0.00    +0.000 C 
ATOM      3  N   UNL     1       4.487   5.548  17.881  0.00  0.00    +0.000 N 
ATOM      4  H   UNL     1       4.997   6.405  17.734  0.00  0.00    +0.000 HD
ENDROOT
BRANCH   2   5
ATOM      5  C   UNL     1       5.766   4.664  15.986  0.00  0.00    +0.000 A 
ATOM      6  C   UNL     1       6.995   5.196  16.358  0.00  0.00    +0.000 A 
ATOM      7  N   UNL     1       7.564   5.703  15.235  0.00  0.00    +0.000 N 
ATOM      8  C   UNL     1       7.115   4.973  14.167  0.00  0.00    +0.000 A 
ATOM      9  C   UNL     1       7.678   4.842  12.896  0.00  0.00    +0.000 A 
ATOM     10  C   UNL     1       7.040   3.978  12.004  0.00  0.00    +0.000 A 
ATOM     11  C   UNL     1       5.828   3.362  12.358  0.00  0.00    +0.000 A 
ATOM     12 CL   UNL     1       5.105   2.283  11.229  0.00  0.00    +0.000 Cl
ATOM     13  C   UNL     1       5.251   3.560  13.619  0.00  0.00    +0.000 A 
ATOM     14  C   UNL     1       5.932   4.342  14.585  0.00  0.00    +0.000 A 
ATOM     15  H   UNL     1       8.291   6.407  15.221  0.00  0.00    +0.000 HD
ENDBRANCH   2   5
BRANCH   3  16
ATOM     16  C   UNL     1       3.539   5.527  18.950  0.00  0.00    +0.000 A 
ATOM     17  C   UNL     1       3.101   4.355  19.571  0.00  0.00    +0.000 A 
ATOM     18  C   UNL     1       2.102   4.371  20.544  0.00  0.00    +0.000 A 
ATOM     19  C   UNL     1       1.524   5.577  20.923  0.00  0.00    +0.000 A 
ATOM     20  C   UNL     1       1.960   6.776  20.349  0.00  0.00    +0.000 A 
ATOM     21  C   UNL     1       2.977   6.742  19.377  0.00  0.00    +0.000 A 
BRANCH  20  22
ATOM     22  C   UNL     1       1.261   8.053  20.747  0.00  0.00    +0.000 C 
BRANCH  22  23
ATOM     23  O   UNL     1       1.702   8.513  22.016  0.00  0.00    +0.000 OA
ATOM     24  H   UNL     1       2.178   9.346  21.852  0.00  0.00    +0.000 HD
ENDBRANCH  22  23
ENDBRANCH  20  22
ENDBRANCH   3  16
TORSDOF 4
ENDMDL
MODEL 9
REMARK VINA RESULT:      -7.6      4.706      6.547
REMARK  Name = 
REMARK  4 active torsions:
REMARK  status: ('A' for Active; 'I' for Inactive)
REMARK    1  A    between atoms: C_2  and  C_12
REMARK    2  A    between atoms: N_3  and  C_4
REMARK    3  A    between atoms: C_8  and  C_9
REMARK    4  A    between atoms: C_9  and  O_10
REMARK                            x       y       z     vdW  Elec       q    Type
REMARK                         _______ _______ _______ _____ _____    ______ ____
ROOT
ATOM      1  O   UNL     1       2.439   9.164  17.332  0.00  0.00    +0.000 OA
ATOM      2  C   UNL     1       2.384   8.258  18.164  0.00  0.00    +0.000 C 
ATOM      3  N   UNL     1       1.624   8.326  19.322  0.00  0.00    +0.000 N 
ATOM      4  H   UNL     1       1.613   7.516  19.924  0.00  0.00    +0.000 HD
ENDROOT
BRANCH   2   5
ATOM      5  C   UNL     1       3.090   7.008  17.865  0.00  0.00    +0.000 A 
ATOM      6  C   UNL     1       4.455   7.072  17.610  0.00  0.00    +0.000 A 
ATOM      7  N   UNL     1       4.781   5.954  16.913  0.00  0.00    +0.000 N 
ATOM      8  C   UNL     1       3.915   4.958  17.282  0.00  0.00    +0.000 A 
ATOM      9  C   UNL     1       4.065   3.576  17.156  0.00  0.00    +0.000 A 
ATOM     10  C   UNL     1       3.044   2.777  17.673  0.00  0.00    +0.000 A 
ATOM     11  C   UNL     1       1.879   3.364  18.195  0.00  0.00    +0.000 A 
ATOM     12 CL   UNL     1       0.669   2.328  18.845  0.00  0.00    +0.000 Cl
ATOM     13  C   UNL     1       1.726   4.755  18.250  0.00  0.00    +0.000 A 
ATOM     14  C   UNL     1       2.792   5.593  17.837  0.00  0.00    +0.000 A 
ATOM     15  H   UNL     1       5.602   5.853  16.331  0.00  0.00    +0.000 HD
ENDBRANCH   2   5
BRANCH   3  16
ATOM     16  C   UNL     1       0.866   9.463  19.742  0.00  0.00    +0.000 A 
ATOM     17  C   UNL     1       0.909   9.985  21.037  0.00  0.00    +0.000 A 
ATOM     18  C   UNL     1       0.081  11.035  21.431  0.00  0.00    +0.000 A 
ATOM     19  C   UNL     1      -0.811  11.593  20.521  0.00  0.00    +0.000 A 
ATOM     20  C   UNL     1      -0.859  11.120  19.205  0.00  0.00    +0.000 A 
ATOM     21  C   UNL     1      -0.007  10.068  18.822  0.00  0.00    +0.000 A 
BRANCH  20  22
ATOM     22  C   UNL     1      -1.884  11.715  18.271  0.00  0.00    +0.000 C 
BRANCH  22  23
ATOM     23  O   UNL     1      -1.288  12.619  17.352  0.00  0.00    +0.000 OA
ATOM     24  H   UNL     1      -0.327  12.553  17.491  0.00  0.00    +0.000 HD
ENDBRANCH  22  23
ENDBRANCH  20  22
ENDBRANCH   3  16
TORSDOF 4
ENDMDL
