MODEL 1
REMARK VINA RESULT:      -6.9      0.000      0.000
REMARK  Name = 
REMARK  6 active torsions:
REMARK  status: ('A' for Active; 'I' for Inactive)
REMARK    1  A    between atoms: N_1  and  C_2
REMARK    2  A    between atoms: C_2  and  C_3
REMARK    3  A    between atoms: C_3  and  C_4
REMARK    4  A    between atoms: C_4  and  N_5
REMARK    5  A    between atoms: C_4  and  C_12
REMARK    6  A    between atoms: N_5  and  C_6
REMARK                            x       y       z     vdW  Elec       q    Type
REMARK                         _______ _______ _______ _____ _____    ______ ____
ROOT
ATOM      1  C   UNL     1       3.453   6.873  18.439  0.00  0.00    +0.000 C 
ENDROOT
BRANCH   1   2
ATOM      2  C   UNL     1       2.504   6.067  19.424  0.00  0.00    +0.000 C 
ATOM      3  O   UNL     1       2.222   6.632  20.499  0.00  0.00    +0.000 OA
ATOM      4  N   UNL     1       1.939   4.815  19.183  0.00  0.00    +0.000 N 
ATOM      5  C   UNL     1       0.969   4.340  20.189  0.00  0.00    +0.000 C 
ATOM      6  C   UNL     1       1.076   2.837  20.428  0.00  0.00    +0.000 C 
ATOM      7  C   UNL     1       0.909   2.068  19.125  0.00  0.00    +0.000 C 
ATOM      8  C   UNL     1       1.896   2.580  18.083  0.00  0.00    +0.000 C 
ATOM      9  C   UNL     1       1.842   4.101  17.911  0.00  0.00    +0.000 C 
ENDBRANCH   1   2
BRANCH   1  10
ATOM     10  N   UNL     1       4.469   5.957  17.846  0.00  0.00    +0.000 NA
ATOM     11  H   UNL     1       4.721   5.193  18.461  0.00  0.00    +0.000 HD
BRANCH  10  12
ATOM     12  C   UNL     1       5.615   6.501  17.114  0.00  0.00    +0.000 C 
ATOM     13  C   UNL     1       5.743   5.737  15.777  0.00  0.00    +0.000 C 
ATOM     14  C   UNL     1       6.393   4.363  15.944  0.00  0.00    +0.000 C 
ATOM     15  N   UNL     1       7.719   4.468  16.555  0.00  0.00    +0.000 NA
ATOM     16  C   UNL     1       7.637   5.104  17.870  0.00  0.00    +0.000 C 
ATOM     17  C   UNL     1       6.979   6.485  17.815  0.00  0.00    +0.000 C 
ATOM     18  H   UNL     1       8.314   5.031  15.947  0.00  0.00    +0.000 HD
ENDBRANCH  10  12
ENDBRANCH   1  10
BRANCH   1  19
ATOM     19  C   UNL     1       2.964   7.931  17.435  0.00  0.00    +0.000 C 
BRANCH  19  20
ATOM     20  C   UNL     1       1.784   8.778  17.941  0.00  0.00    +0.000 C 
BRANCH  20  21
ATOM     21  N   UNL     1       1.897  10.167  17.506  0.00  0.00    +0.000 NA
ATOM     22  H   UNL     1       2.778  10.555  17.845  0.00  0.00    +0.000 HD
ATOM     23  H   UNL     1       1.161  10.725  17.932  0.00  0.00    +0.000 HD
ENDBRANCH  20  21
ENDBRANCH  19  20
ENDBRANCH   1  19
TORSDOF 6
ENDMDL
MODEL 2
REMARK VINA RESULT:      -6.9      1.588      4.181
REMARK  Name = 
REMARK  6 active torsions:
REMARK  status: ('A' for Active; 'I' for Inactive)
REMARK    1  A    between atoms: N_1  and  C_2
REMARK    2  A    between atoms: C_2  and  C_3
REMARK    3  A    between atoms: C_3  and  C_4
REMARK    4  A    between atoms: C_4  and  N_5
REMARK    5  A    between atoms: C_4  and  C_12
REMARK    6  A    between atoms: N_5  and  C_6
REMARK                            x       y       z     vdW  Elec       q    Type
REMARK                         _______ _______ _______ _____ _____    ______ ____
ROOT
ATOM      1  C   UNL     1       3.064   5.004  18.213  0.00  0.00    +0.000 C 
ENDROOT
BRANCH   1   2
ATOM      2  C   UNL     1       2.465   5.964  19.325  0.00  0.00    +0.000 C 
ATOM      3  O   UNL     1       2.263   5.451  20.443  0.00  0.00    +0.000 OA
ATOM      4  N   UNL     1       2.177   7.321  19.176  0.00  0.00    +0.000 N 
ATOM      5  C   UNL     1       1.767   8.034  20.401  0.00  0.00    +0.000 C 
ATOM      6  C   UNL     1       0.686   9.075  20.129  0.00  0.00    +0.000 C 
ATOM      7  C   UNL     1       1.142  10.065  19.066  0.00  0.00    +0.000 C 
ATOM      8  C   UNL     1       1.586   9.322  17.813  0.00  0.00    +0.000 C 
ATOM      9  C   UNL     1       2.609   8.220  18.107  0.00  0.00    +0.000 C 
ENDBRANCH   1   2
BRANCH   1  10
ATOM     10  N   UNL     1       4.520   4.790  18.455  0.00  0.00    +0.000 NA
ATOM     11  H   UNL     1       4.715   4.378  19.359  0.00  0.00    +0.000 HD
BRANCH  10  12
ATOM     12  C   UNL     1       5.491   5.819  18.076  0.00  0.00    +0.000 C 
ATOM     13  C   UNL     1       5.319   6.117  16.569  0.00  0.00    +0.000 C 
ATOM     14  C   UNL     1       5.968   5.056  15.680  0.00  0.00    +0.000 C 
ATOM     15  N   UNL     1       7.396   4.913  15.972  0.00  0.00    +0.000 NA
ATOM     16  C   UNL     1       7.607   4.538  17.371  0.00  0.00    +0.000 C 
ATOM     17  C   UNL     1       6.973   5.532  18.347  0.00  0.00    +0.000 C 
ATOM     18  H   UNL     1       7.855   5.806  15.791  0.00  0.00    +0.000 HD
ENDBRANCH  10  12
ENDBRANCH   1  10
BRANCH   1  19
ATOM     19  C   UNL     1       2.366   3.737  17.692  0.00  0.00    +0.000 C 
BRANCH  19  20
ATOM     20  C   UNL     1       2.728   2.458  18.466  0.00  0.00    +0.000 C 
BRANCH  20  21
ATOM     21  N   UNL     1       3.946   1.845  17.946  0.00  0.00    +0.000 NA
ATOM     22  H   UNL     1       4.713   2.514  18.010  0.00  0.00    +0.000 HD
ATOM     23  H   UNL     1       3.835   1.638  16.956  0.00  0.00    +0.000 HD
ENDBRANCH  20  21
ENDBRANCH  19  20
ENDBRANCH   1  19
TORSDOF 6
ENDMDL
MODEL 3
REMARK VINA RESULT:      -6.8      1.644      4.307
REMARK  Name = 
REMARK  6 active torsions:
REMARK  status: ('A' for Active; 'I' for Inactive)
REMARK    1  A    between atoms: N_1  and  C_2
REMARK    2  A    between atoms: C_2  and  C_3
REMARK    3  A    between atoms: C_3  and  C_4
REMARK    4  A    between atoms: C_4  and  N_5
REMARK    5  A    between atoms: C_4  and  C_12
REMARK    6  A    between atoms: N_5  and  C_6
REMARK                            x       y       z     vdW  Elec       q    Type
REMARK                         _______ _______ _______ _____ _____    ______ ____
ROOT
ATOM      1  C   UNL     1       2.702   4.782  18.175  0.00  0.00    +0.000 C 
ENDROOT
BRANCH   1   2
ATOM      2  C   UNL     1       2.310   5.788  19.338  0.00  0.00    +0.000 C 
ATOM      3  O   UNL     1       2.235   5.302  20.483  0.00  0.00    +0.000 OA
ATOM      4  N   UNL     1       2.077   7.157  19.200  0.00  0.00    +0.000 N 
ATOM      5  C   UNL     1       1.876   7.907  20.455  0.00  0.00    +0.000 C 
ATOM      6  C   UNL     1       0.824   9.003  20.309  0.00  0.00    +0.000 C 
ATOM      7  C   UNL     1       1.185   9.952  19.174  0.00  0.00    +0.000 C 
ATOM      8  C   UNL     1       1.415   9.169  17.888  0.00  0.00    +0.000 C 
ATOM      9  C   UNL     1       2.409   8.016  18.065  0.00  0.00    +0.000 C 
ENDBRANCH   1   2
BRANCH   1  10
ATOM     10  N   UNL     1       4.175   4.816  17.946  0.00  0.00    +0.000 NA
ATOM     11  H   UNL     1       4.680   5.292  18.683  0.00  0.00    +0.000 HD
BRANCH  10  12
ATOM     12  C   UNL     1       4.708   5.103  16.613  0.00  0.00    +0.000 C 
ATOM     13  C   UNL     1       5.941   4.201  16.378  0.00  0.00    +0.000 C 
ATOM     14  C   UNL     1       7.194   4.720  17.085  0.00  0.00    +0.000 C 
ATOM     15  N   UNL     1       7.521   6.083  16.663  0.00  0.00    +0.000 NA
ATOM     16  C   UNL     1       6.415   6.997  16.950  0.00  0.00    +0.000 C 
ATOM     17  C   UNL     1       5.102   6.553  16.301  0.00  0.00    +0.000 C 
ATOM     18  H   UNL     1       7.700   6.078  15.658  0.00  0.00    +0.000 HD
ENDBRANCH  10  12
ENDBRANCH   1  10
BRANCH   1  19
ATOM     19  C   UNL     1       2.119   3.368  18.018  0.00  0.00    +0.000 C 
BRANCH  19  20
ATOM     20  C   UNL     1       2.870   2.287  18.815  0.00  0.00    +0.000 C 
BRANCH  20  21
ATOM     21  N   UNL     1       3.879   1.622  17.996  0.00  0.00    +0.000 NA
ATOM     22  H   UNL     1       3.938   0.641  18.267  0.00  0.00    +0.000 HD
ATOM     23  H   UNL     1       4.795   2.022  18.183  0.00  0.00    +0.000 HD
ENDBRANCH  20  21
ENDBRANCH  19  20
ENDBRANCH   1  19
TORSDOF 6
ENDMDL
MODEL 4
REMARK VINA RESULT:      -6.8      1.713      5.029
REMARK  Name = 
REMARK  6 active torsions:
REMARK  status: ('A' for Active; 'I' for Inactive)
REMARK    1  A    between atoms: N_1  and  C_2
REMARK    2  A    between atoms: C_2  and  C_3
REMARK    3  A    between atoms: C_3  and  C_4
REMARK    4  A    between atoms: C_4  and  N_5
REMARK    5  A    between atoms: C_4  and  C_12
REMARK    6  A    between atoms: N_5  and  C_6
REMARK                            x       y       z     vdW  Elec       q    Type
REMARK                         _______ _______ _______ _____ _____    ______ ____
ROOT
ATOM      1  C   UNL     1       3.189   5.515  19.162  0.00  0.00    +0.000 C 
ENDROOT
BRANCH   1   2
ATOM      2  C   UNL     1       4.721   5.288  18.820  0.00  0.00    +0.000 C 
ATOM      3  O   UNL     1       5.531   5.538  19.734  0.00  0.00    +0.000 OA
ATOM      4  N   UNL     1       5.235   4.808  17.615  0.00  0.00    +0.000 N 
ATOM      5  C   UNL     1       6.686   4.539  17.592  0.00  0.00    +0.000 C 
ATOM      6  C   UNL     1       7.318   4.904  16.252  0.00  0.00    +0.000 C 
ATOM      7  C   UNL     1       6.625   4.174  15.110  0.00  0.00    +0.000 C 
ATOM      8  C   UNL     1       5.125   4.435  15.154  0.00  0.00    +0.000 C 
ATOM      9  C   UNL     1       4.512   4.149  16.528  0.00  0.00    +0.000 C 
ENDBRANCH   1   2
BRANCH   1  10
ATOM     10  N   UNL     1       2.915   5.113  20.571  0.00  0.00    +0.000 NA
ATOM     11  H   UNL     1       3.745   5.110  21.151  0.00  0.00    +0.000 HD
BRANCH  10  12
ATOM     12  C   UNL     1       2.016   3.993  20.859  0.00  0.00    +0.000 C 
ATOM     13  C   UNL     1       2.870   2.716  21.029  0.00  0.00    +0.000 C 
ATOM     14  C   UNL     1       3.318   2.125  19.692  0.00  0.00    +0.000 C 
ATOM     15  N   UNL     1       2.174   1.815  18.832  0.00  0.00    +0.000 NA
ATOM     16  C   UNL     1       1.382   3.016  18.566  0.00  0.00    +0.000 C 
ATOM     17  C   UNL     1       0.900   3.699  19.848  0.00  0.00    +0.000 C 
ATOM     18  H   UNL     1       1.588   1.126  19.306  0.00  0.00    +0.000 HD
ENDBRANCH  10  12
ENDBRANCH   1  10
BRANCH   1  19
ATOM     19  C   UNL     1       2.380   6.754  18.741  0.00  0.00    +0.000 C 
BRANCH  19  20
ATOM     20  C   UNL     1       3.143   7.717  17.817  0.00  0.00    +0.000 C 
BRANCH  20  21
ATOM     21  N   UNL     1       2.331   8.877  17.464  0.00  0.00    +0.000 NA
ATOM     22  H   UNL     1       2.564   9.653  18.084  0.00  0.00    +0.000 HD
ATOM     23  H   UNL     1       1.347   8.674  17.627  0.00  0.00    +0.000 HD
ENDBRANCH  20  21
ENDBRANCH  19  20
ENDBRANCH   1  19
TORSDOF 6
ENDMDL
MODEL 5
REMARK VINA RESULT:      -6.6      1.900      5.569
REMARK  Name = 
REMARK  6 active torsions:
REMARK  status: ('A' for Active; 'I' for Inactive)
REMARK    1  A    between atoms: N_1  and  C_2
REMARK    2  A    between atoms: C_2  and  C_3
REMARK    3  A    between atoms: C_3  and  C_4
REMARK    4  A    between atoms: C_4  and  N_5
REMARK    5  A    between atoms: C_4  and  C_12
REMARK    6  A    between atoms: N_5  and  C_6
REMARK                            x       y       z     vdW  Elec       q    Type
REMARK                         _______ _______ _______ _____ _____    ______ ____
ROOT
ATOM      1  C   UNL     1       4.308   5.220  19.061  0.00  0.00    +0.000 C 
ENDROOT
BRANCH   1   2
ATOM      2  C   UNL     1       3.652   6.407  18.238  0.00  0.00    +0.000 C 
ATOM      3  O   UNL     1       4.015   6.518  17.050  0.00  0.00    +0.000 OA
ATOM      4  N   UNL     1       2.693   7.304  18.708  0.00  0.00    +0.000 N 
ATOM      5  C   UNL     1       2.124   8.227  17.705  0.00  0.00    +0.000 C 
ATOM      6  C   UNL     1       1.867   9.616  18.281  0.00  0.00    +0.000 C 
ATOM      7  C   UNL     1       0.963   9.537  19.503  0.00  0.00    +0.000 C 
ATOM      8  C   UNL     1       1.542   8.565  20.523  0.00  0.00    +0.000 C 
ATOM      9  C   UNL     1       1.878   7.199  19.917  0.00  0.00    +0.000 C 
ENDBRANCH   1   2
BRANCH   1  10
ATOM     10  N   UNL     1       3.755   3.914  18.603  0.00  0.00    +0.000 NA
ATOM     11  H   UNL     1       3.114   4.006  17.824  0.00  0.00    +0.000 HD
BRANCH  10  12
ATOM     12  C   UNL     1       3.325   2.911  19.579  0.00  0.00    +0.000 C 
ATOM     13  C   UNL     1       2.368   1.923  18.872  0.00  0.00    +0.000 C 
ATOM     14  C   UNL     1       0.958   2.488  18.704  0.00  0.00    +0.000 C 
ATOM     15  N   UNL     1       0.375   2.867  19.992  0.00  0.00    +0.000 NA
ATOM     16  C   UNL     1       1.200   3.874  20.662  0.00  0.00    +0.000 C 
ATOM     17  C   UNL     1       2.645   3.411  20.861  0.00  0.00    +0.000 C 
ATOM     18  H   UNL     1       0.317   2.035  20.580  0.00  0.00    +0.000 HD
ENDBRANCH  10  12
ENDBRANCH   1  10
BRANCH   1  19
ATOM     19  C   UNL     1       5.803   5.130  19.411  0.00  0.00    +0.000 C 
BRANCH  19  20
ATOM     20  C   UNL     1       6.736   5.137  18.188  0.00  0.00    +0.000 C 
BRANCH  20  21
ATOM     21  N   UNL     1       6.298   4.182  17.176  0.00  0.00    +0.000 NA
ATOM     22  H   UNL     1       6.672   3.259  17.399  0.00  0.00    +0.000 HD
ATOM     23  H   UNL     1       6.690   4.431  16.271  0.00  0.00    +0.000 HD
ENDBRANCH  20  21
ENDBRANCH  19  20
ENDBRANCH   1  19
TORSDOF 6
ENDMDL
MODEL 6
REMARK VINA RESULT:      -6.5      1.787      4.272
REMARK  Name = 
REMARK  6 active torsions:
REMARK  status: ('A' for Active; 'I' for Inactive)
REMARK    1  A    between atoms: N_1  and  C_2
REMARK    2  A    between atoms: C_2  and  C_3
REMARK    3  A    between atoms: C_3  and  C_4
REMARK    4  A    between atoms: C_4  and  N_5
REMARK    5  A    between atoms: C_4  and  C_12
REMARK    6  A    between atoms: N_5  and  C_6
REMARK                            x       y       z     vdW  Elec       q    Type
REMARK                         _______ _______ _______ _____ _____    ______ ____
ROOT
ATOM      1  C   UNL     1       3.403   4.589  17.862  0.00  0.00    +0.000 C 
ENDROOT
BRANCH   1   2
ATOM      2  C   UNL     1       2.810   5.445  19.059  0.00  0.00    +0.000 C 
ATOM      3  O   UNL     1       2.669   4.849  20.144  0.00  0.00    +0.000 OA
ATOM      4  N   UNL     1       2.468   6.797  19.015  0.00  0.00    +0.000 N 
ATOM      5  C   UNL     1       2.079   7.407  20.301  0.00  0.00    +0.000 C 
ATOM      6  C   UNL     1       0.951   8.422  20.140  0.00  0.00    +0.000 C 
ATOM      7  C   UNL     1       1.332   9.500  19.134  0.00  0.00    +0.000 C 
ATOM      8  C   UNL     1       1.756   8.863  17.817  0.00  0.00    +0.000 C 
ATOM      9  C   UNL     1       2.828   7.784  17.998  0.00  0.00    +0.000 C 
ENDBRANCH   1   2
BRANCH   1  10
ATOM     10  N   UNL     1       4.846   4.302  18.105  0.00  0.00    +0.000 NA
ATOM     11  H   UNL     1       5.186   4.691  18.976  0.00  0.00    +0.000 HD
BRANCH  10  12
ATOM     12  C   UNL     1       5.815   4.416  17.014  0.00  0.00    +0.000 C 
ATOM     13  C   UNL     1       7.222   4.594  17.630  0.00  0.00    +0.000 C 
ATOM     14  C   UNL     1       7.475   6.021  18.117  0.00  0.00    +0.000 C 
ATOM     15  N   UNL     1       7.307   6.994  17.036  0.00  0.00    +0.000 NA
ATOM     16  C   UNL     1       5.956   6.927  16.479  0.00  0.00    +0.000 C 
ATOM     17  C   UNL     1       5.595   5.527  15.979  0.00  0.00    +0.000 C 
ATOM     18  H   UNL     1       7.984   6.783  16.301  0.00  0.00    +0.000 HD
ENDBRANCH  10  12
ENDBRANCH   1  10
BRANCH   1  19
ATOM     19  C   UNL     1       2.677   3.407  17.198  0.00  0.00    +0.000 C 
BRANCH  19  20
ATOM     20  C   UNL     1       2.824   2.075  17.953  0.00  0.00    +0.000 C 
BRANCH  20  21
ATOM     21  N   UNL     1       1.731   1.873  18.899  0.00  0.00    +0.000 NA
ATOM     22  H   UNL     1       2.108   1.513  19.777  0.00  0.00    +0.000 HD
ATOM     23  H   UNL     1       1.099   1.156  18.551  0.00  0.00    +0.000 HD
ENDBRANCH  20  21
ENDBRANCH  19  20
ENDBRANCH   1  19
TORSDOF 6
ENDMDL
MODEL 7
REMARK VINA RESULT:      -6.5      2.659      6.289
REMARK  Name = 
REMARK  6 active torsions:
REMARK  status: ('A' for Active; 'I' for Inactive)
REMARK    1  A    between atoms: N_1  and  C_2
REMARK    2  A    between atoms: C_2  and  C_3
REMARK    3  A    between atoms: C_3  and  C_4
REMARK    4  A    between atoms: C_4  and  N_5
REMARK    5  A    between atoms: C_4  and  C_12
REMARK    6  A    between atoms: N_5  and  C_6
REMARK                            x       y       z     vdW  Elec       q    Type
REMARK                         _______ _______ _______ _____ _____    ______ ____
ROOT
ATOM      1  C   UNL     1       6.126   4.473  17.513  0.00  0.00    +0.000 C 
ENDROOT
BRANCH   1   2
ATOM      2  C   UNL     1       5.588   3.968  16.108  0.00  0.00    +0.000 C 
ATOM      3  O   UNL     1       4.594   3.216  16.137  0.00  0.00    +0.000 OA
ATOM      4  N   UNL     1       6.101   4.312  14.857  0.00  0.00    +0.000 N 
ATOM      5  C   UNL     1       5.335   3.834  13.690  0.00  0.00    +0.000 C 
ATOM      6  C   UNL     1       6.242   3.416  12.536  0.00  0.00    +0.000 C 
ATOM      7  C   UNL     1       7.166   4.557  12.133  0.00  0.00    +0.000 C 
ATOM      8  C   UNL     1       7.936   5.062  13.347  0.00  0.00    +0.000 C 
ATOM      9  C   UNL     1       7.024   5.398  14.531  0.00  0.00    +0.000 C 
ENDBRANCH   1   2
BRANCH   1  10
ATOM     10  N   UNL     1       5.476   3.705  18.613  0.00  0.00    +0.000 NA
ATOM     11  H   UNL     1       5.163   2.786  18.325  0.00  0.00    +0.000 HD
BRANCH  10  12
ATOM     12  C   UNL     1       4.537   4.367  19.521  0.00  0.00    +0.000 C 
ATOM     13  C   UNL     1       3.457   3.341  19.936  0.00  0.00    +0.000 C 
ATOM     14  C   UNL     1       2.397   3.133  18.854  0.00  0.00    +0.000 C 
ATOM     15  N   UNL     1       1.739   4.392  18.498  0.00  0.00    +0.000 NA
ATOM     16  C   UNL     1       2.713   5.369  18.011  0.00  0.00    +0.000 C 
ATOM     17  C   UNL     1       3.834   5.635  19.018  0.00  0.00    +0.000 C 
ATOM     18  H   UNL     1       1.278   4.764  19.330  0.00  0.00    +0.000 HD
ENDBRANCH  10  12
ENDBRANCH   1  10
BRANCH   1  19
ATOM     19  C   UNL     1       7.600   4.791  17.815  0.00  0.00    +0.000 C 
BRANCH  19  20
ATOM     20  C   UNL     1       7.801   5.941  18.816  0.00  0.00    +0.000 C 
BRANCH  20  21
ATOM     21  N   UNL     1       7.870   5.450  20.188  0.00  0.00    +0.000 NA
ATOM     22  H   UNL     1       7.298   4.610  20.274  0.00  0.00    +0.000 HD
ATOM     23  H   UNL     1       7.462   6.134  20.822  0.00  0.00    +0.000 HD
ENDBRANCH  20  21
ENDBRANCH  19  20
ENDBRANCH   1  19
TORSDOF 6
ENDMDL
MODEL 8
REMARK VINA RESULT:      -6.5      0.729      1.261
REMARK  Name = 
REMARK  6 active torsions:
REMARK  status: ('A' for Active; 'I' for Inactive)
REMARK    1  A    between atoms: N_1  and  C_2
REMARK    2  A    between atoms: C_2  and  C_3
REMARK    3  A    between atoms: C_3  and  C_4
REMARK    4  A    between atoms: C_4  and  N_5
REMARK    5  A    between atoms: C_4  and  C_12
REMARK    6  A    between atoms: N_5  and  C_6
REMARK                            x       y       z     vdW  Elec       q    Type
REMARK                         _______ _______ _______ _____ _____    ______ ____
ROOT
ATOM      1  C   UNL     1       3.183   7.093  18.272  0.00  0.00    +0.000 C 
ENDROOT
BRANCH   1   2
ATOM      2  C   UNL     1       2.442   6.191  19.347  0.00  0.00    +0.000 C 
ATOM      3  O   UNL     1       2.299   6.692  20.479  0.00  0.00    +0.000 OA
ATOM      4  N   UNL     1       1.914   4.918  19.132  0.00  0.00    +0.000 N 
ATOM      5  C   UNL     1       1.138   4.343  20.248  0.00  0.00    +0.000 C 
ATOM      6  C   UNL     1       1.360   2.840  20.391  0.00  0.00    +0.000 C 
ATOM      7  C   UNL     1       1.036   2.118  19.091  0.00  0.00    +0.000 C 
ATOM      8  C   UNL     1       1.822   2.732  17.940  0.00  0.00    +0.000 C 
ATOM      9  C   UNL     1       1.661   4.253  17.855  0.00  0.00    +0.000 C 
ENDBRANCH   1   2
BRANCH   1  10
ATOM     10  N   UNL     1       4.105   6.257  17.453  0.00  0.00    +0.000 NA
ATOM     11  H   UNL     1       3.643   5.801  16.675  0.00  0.00    +0.000 HD
BRANCH  10  12
ATOM     12  C   UNL     1       5.101   5.402  18.103  0.00  0.00    +0.000 C 
ATOM     13  C   UNL     1       6.432   6.183  18.185  0.00  0.00    +0.000 C 
ATOM     14  C   UNL     1       7.189   6.199  16.856  0.00  0.00    +0.000 C 
ATOM     15  N   UNL     1       7.467   4.842  16.382  0.00  0.00    +0.000 NA
ATOM     16  C   UNL     1       6.226   4.088  16.199  0.00  0.00    +0.000 C 
ATOM     17  C   UNL     1       5.381   4.030  17.474  0.00  0.00    +0.000 C 
ATOM     18  H   UNL     1       8.048   4.368  17.075  0.00  0.00    +0.000 HD
ENDBRANCH  10  12
ENDBRANCH   1  10
BRANCH   1  19
ATOM     19  C   UNL     1       2.498   8.192  17.442  0.00  0.00    +0.000 C 
BRANCH  19  20
ATOM     20  C   UNL     1       1.853   9.305  18.284  0.00  0.00    +0.000 C 
BRANCH  20  21
ATOM     21  N   UNL     1       1.887  10.589  17.590  0.00  0.00    +0.000 NA
ATOM     22  H   UNL     1       2.789  11.037  17.754  0.00  0.00    +0.000 HD
ATOM     23  H   UNL     1       1.187  11.214  17.982  0.00  0.00    +0.000 HD
ENDBRANCH  20  21
ENDBRANCH  19  20
ENDBRANCH   1  19
TORSDOF 6
ENDMDL
MODEL 9
REMARK VINA RESULT:      -6.5      1.558      4.295
REMARK  Name = 
REMARK  6 active torsions:
REMARK  status: ('A' for Active; 'I' for Inactive)
REMARK    1  A    between atoms: N_1  and  C_2
REMARK    2  A    between atoms: C_2  and  C_3
REMARK    3  A    between atoms: C_3  and  C_4
REMARK    4  A    between atoms: C_4  and  N_5
REMARK    5  A    between atoms: C_4  and  C_12
REMARK    6  A    between atoms: N_5  and  C_6
REMARK                            x       y       z     vdW  Elec       q    Type
REMARK                         _______ _______ _______ _____ _____    ______ ____
ROOT
ATOM      1  C   UNL     1       2.738   5.029  18.300  0.00  0.00    +0.000 C 
ENDROOT
BRANCH   1   2
ATOM      2  C   UNL     1       2.310   6.046  19.441  0.00  0.00    +0.000 C 
ATOM      3  O   UNL     1       2.254   5.582  20.596  0.00  0.00    +0.000 OA
ATOM      4  N   UNL     1       2.028   7.402  19.273  0.00  0.00    +0.000 N 
ATOM      5  C   UNL     1       1.799   8.172  20.512  0.00  0.00    +0.000 C 
ATOM      6  C   UNL     1       0.709   9.225  20.343  0.00  0.00    +0.000 C 
ATOM      7  C   UNL     1       1.034  10.161  19.187  0.00  0.00    +0.000 C 
ATOM      8  C   UNL     1       1.292   9.359  17.918  0.00  0.00    +0.000 C 
ATOM      9  C   UNL     1       2.326   8.247  18.119  0.00  0.00    +0.000 C 
ENDBRANCH   1   2
BRANCH   1  10
ATOM     10  N   UNL     1       4.042   5.445  17.709  0.00  0.00    +0.000 NA
ATOM     11  H   UNL     1       3.945   6.164  17.002  0.00  0.00    +0.000 HD
BRANCH  10  12
ATOM     12  C   UNL     1       5.051   4.441  17.366  0.00  0.00    +0.000 C 
ATOM     13  C   UNL     1       6.398   4.873  17.989  0.00  0.00    +0.000 C 
ATOM     14  C   UNL     1       7.094   5.971  17.185  0.00  0.00    +0.000 C 
ATOM     15  N   UNL     1       7.328   5.555  15.801  0.00  0.00    +0.000 NA
ATOM     16  C   UNL     1       6.067   5.223  15.136  0.00  0.00    +0.000 C 
ATOM     17  C   UNL     1       5.279   4.140  15.878  0.00  0.00    +0.000 C 
ATOM     18  H   UNL     1       7.932   4.732  15.806  0.00  0.00    +0.000 HD
ENDBRANCH  10  12
ENDBRANCH   1  10
BRANCH   1  19
ATOM     19  C   UNL     1       2.606   3.501  18.406  0.00  0.00    +0.000 C 
BRANCH  19  20
ATOM     20  C   UNL     1       1.154   3.000  18.491  0.00  0.00    +0.000 C 
BRANCH  20  21
ATOM     21  N   UNL     1       0.668   3.002  19.867  0.00  0.00    +0.000 NA
ATOM     22  H   UNL     1      -0.317   3.269  19.876  0.00  0.00    +0.000 HD
ATOM     23  H   UNL     1       1.157   3.712  20.407  0.00  0.00    +0.000 HD
ENDBRANCH  20  21
ENDBRANCH  19  20
ENDBRANCH   1  19
TORSDOF 6
ENDMDL
