MODEL 1
REMARK VINA RESULT:      -7.0      0.000      0.000
REMARK  Name = 
REMARK  12 active torsions:
REMARK  status: ('A' for Active; 'I' for Inactive)
REMARK    1  A    between atoms: C_1  and  C_2
REMARK    2  A    between atoms: C_2  and  N_3
REMARK    3  A    between atoms: N_3  and  C_4
REMARK    4  A    between atoms: N_3  and  C_6
REMARK    5  A    between atoms: C_4  and  C_5
REMARK    6  A    between atoms: C_10  and  C_12
REMARK    7  A    between atoms: C_14  and  C_15
REMARK    8  A    between atoms: C_15  and  C_16
REMARK    9  A    between atoms: C_16  and  C_17
REMARK   10  A    between atoms: C_16  and  C_18
REMARK   11  A    between atoms: N_20  and  C_21
REMARK   12  A    between atoms: C_21  and  C_22
REMARK                            x       y       z     vdW  Elec       q    Type
REMARK                         _______ _______ _______ _____ _____    ______ ____
ROOT
ATOM      1  C   UNL     1       2.259   6.523  18.330  0.00  0.00    +0.000 C 
ATOM      2  C   UNL     1       1.915   5.250  19.135  0.00  0.00    +0.000 C 
ATOM      3  C   UNL     1       3.263   4.740  19.622  0.00  0.00    +0.000 C 
ATOM      4  N   UNL     1       4.133   4.989  18.492  0.00  0.00    +0.000 N 
ATOM      5  C   UNL     1       5.348   4.325  18.311  0.00  0.00    +0.000 C 
ATOM      6  O   UNL     1       5.759   3.526  19.150  0.00  0.00    +0.000 OA
ATOM      7  C   UNL     1       3.595   6.084  17.693  0.00  0.00    +0.000 C 
ENDROOT
BRANCH   5   8
ATOM      8  C   UNL     1       6.100   4.651  17.110  0.00  0.00    +0.000 A 
ATOM      9  C   UNL     1       6.098   4.056  15.858  0.00  0.00    +0.000 A 
ATOM     10  C   UNL     1       6.764   4.943  14.999  0.00  0.00    +0.000 A 
ATOM     11  N   UNL     1       7.385   5.900  15.692  0.00  0.00    +0.000 NA
ATOM     12  N   UNL     1       7.056   5.636  16.984  0.00  0.00    +0.000 N 
BRANCH  12  13
ATOM     13  C   UNL     1       7.679   6.432  18.028  0.00  0.00    +0.000 C 
ATOM     14  C   UNL     1       7.750   7.908  17.666  0.00  0.00    +0.000 C 
ENDBRANCH  12  13
BRANCH  10  15
ATOM     15  C   UNL     1       6.771   4.884  13.504  0.00  0.00    +0.000 C 
BRANCH  15  16
ATOM     16  C   UNL     1       6.269   3.526  12.950  0.00  0.00    +0.000 C 
ATOM     17  C   UNL     1       4.825   3.595  12.448  0.00  0.00    +0.000 C 
ATOM     18  C   UNL     1       7.183   3.043  11.821  0.00  0.00    +0.000 C 
ENDBRANCH  15  16
ENDBRANCH  10  15
ENDBRANCH   5   8
BRANCH   1  19
ATOM     19  N   UNL     1       2.275   7.788  19.111  0.00  0.00    +0.000 NA
BRANCH  19  21
ATOM     20  C   UNL     1       2.209  10.013  17.890  0.00  0.00    +0.000 C 
ATOM     21  C   UNL     1       1.434   8.833  18.479  0.00  0.00    +0.000 C 
ENDBRANCH  19  21
BRANCH  19  22
ATOM     22  C   UNL     1       1.890   7.559  20.523  0.00  0.00    +0.000 C 
ATOM     23  C   UNL     1       0.835   8.505  21.098  0.00  0.00    +0.000 C 
ENDBRANCH  19  22
ENDBRANCH   1  19
TORSDOF 7
ENDMDL
MODEL 2
REMARK VINA RESULT:      -6.8      0.447      1.369
REMARK  Name = 
REMARK  12 active torsions:
REMARK  status: ('A' for Active; 'I' for Inactive)
REMARK    1  A    between atoms: C_1  and  C_2
REMARK    2  A    between atoms: C_2  and  N_3
REMARK    3  A    between atoms: N_3  and  C_4
REMARK    4  A    between atoms: N_3  and  C_6
REMARK    5  A    between atoms: C_4  and  C_5
REMARK    6  A    between atoms: C_10  and  C_12
REMARK    7  A    between atoms: C_14  and  C_15
REMARK    8  A    between atoms: C_15  and  C_16
REMARK    9  A    between atoms: C_16  and  C_17
REMARK   10  A    between atoms: C_16  and  C_18
REMARK   11  A    between atoms: N_20  and  C_21
REMARK   12  A    between atoms: C_21  and  C_22
REMARK                            x       y       z     vdW  Elec       q    Type
REMARK                         _______ _______ _______ _____ _____    ______ ____
ROOT
ATOM      1  C   UNL     1       2.087   5.985  18.105  0.00  0.00    +0.000 C 
ATOM      2  C   UNL     1       1.918   4.746  19.013  0.00  0.00    +0.000 C 
ATOM      3  C   UNL     1       3.306   4.517  19.594  0.00  0.00    +0.000 C 
ATOM      4  N   UNL     1       4.179   4.811  18.478  0.00  0.00    +0.000 N 
ATOM      5  C   UNL     1       5.494   4.350  18.403  0.00  0.00    +0.000 C 
ATOM      6  O   UNL     1       5.989   3.708  19.327  0.00  0.00    +0.000 OA
ATOM      7  C   UNL     1       3.508   5.726  17.561  0.00  0.00    +0.000 C 
ENDROOT
BRANCH   5   8
ATOM      8  C   UNL     1       6.242   4.694  17.205  0.00  0.00    +0.000 A 
ATOM      9  C   UNL     1       6.333   4.046  15.983  0.00  0.00    +0.000 A 
ATOM     10  C   UNL     1       6.931   4.955  15.097  0.00  0.00    +0.000 A 
ATOM     11  N   UNL     1       7.436   5.999  15.756  0.00  0.00    +0.000 NA
ATOM     12  N   UNL     1       7.100   5.763  17.053  0.00  0.00    +0.000 N 
BRANCH  12  13
ATOM     13  C   UNL     1       7.613   6.664  18.071  0.00  0.00    +0.000 C 
ATOM     14  C   UNL     1       7.827   8.074  17.541  0.00  0.00    +0.000 C 
ENDBRANCH  12  13
BRANCH  10  15
ATOM     15  C   UNL     1       6.983   4.828  13.607  0.00  0.00    +0.000 C 
BRANCH  15  16
ATOM     16  C   UNL     1       6.286   3.547  13.084  0.00  0.00    +0.000 C 
ATOM     17  C   UNL     1       4.818   3.785  12.721  0.00  0.00    +0.000 C 
ATOM     18  C   UNL     1       7.032   2.996  11.866  0.00  0.00    +0.000 C 
ENDBRANCH  15  16
ENDBRANCH  10  15
ENDBRANCH   5   8
BRANCH   1  19
ATOM     19  N   UNL     1       1.852   7.296  18.765  0.00  0.00    +0.000 NA
BRANCH  19  21
ATOM     20  C   UNL     1       1.149   8.072  21.078  0.00  0.00    +0.000 C 
ATOM     21  C   UNL     1       2.095   7.225  20.227  0.00  0.00    +0.000 C 
ENDBRANCH  19  21
BRANCH  19  22
ATOM     22  C   UNL     1       2.647   8.373  18.132  0.00  0.00    +0.000 C 
ATOM     23  C   UNL     1       1.917   9.694  17.882  0.00  0.00    +0.000 C 
ENDBRANCH  19  22
ENDBRANCH   1  19
TORSDOF 7
ENDMDL
MODEL 3
REMARK VINA RESULT:      -6.6      4.232      7.313
REMARK  Name = 
REMARK  12 active torsions:
REMARK  status: ('A' for Active; 'I' for Inactive)
REMARK    1  A    between atoms: C_1  and  C_2
REMARK    2  A    between atoms: C_2  and  N_3
REMARK    3  A    between atoms: N_3  and  C_4
REMARK    4  A    between atoms: N_3  and  C_6
REMARK    5  A    between atoms: C_4  and  C_5
REMARK    6  A    between atoms: C_10  and  C_12
REMARK    7  A    between atoms: C_14  and  C_15
REMARK    8  A    between atoms: C_15  and  C_16
REMARK    9  A    between atoms: C_16  and  C_17
REMARK   10  A    between atoms: C_16  and  C_18
REMARK   11  A    between atoms: N_20  and  C_21
REMARK   12  A    between atoms: C_21  and  C_22
REMARK                            x       y       z     vdW  Elec       q    Type
REMARK                         _______ _______ _______ _____ _____    ______ ____
ROOT
ATOM      1  C   UNL     1      -2.752  11.078  18.354  0.00  0.00    +0.000 C 
ATOM      2  C   UNL     1      -2.448  12.302  19.246  0.00  0.00    +0.000 C 
ATOM      3  C   UNL     1      -0.967  12.571  19.021  0.00  0.00    +0.000 C 
ATOM      4  N   UNL     1      -0.403  11.240  18.945  0.00  0.00    +0.000 N 
ATOM      5  C   UNL     1       0.952  10.979  19.158  0.00  0.00    +0.000 C 
ATOM      6  O   UNL     1       1.744  11.896  19.369  0.00  0.00    +0.000 OA
ATOM      7  C   UNL     1      -1.428  10.299  18.510  0.00  0.00    +0.000 C 
ENDROOT
BRANCH   5   8
ATOM      8  C   UNL     1       1.371   9.589  19.084  0.00  0.00    +0.000 A 
ATOM      9  C   UNL     1       1.698   8.804  17.989  0.00  0.00    +0.000 A 
ATOM     10  C   UNL     1       2.318   7.654  18.498  0.00  0.00    +0.000 A 
ATOM     11  N   UNL     1       2.158   7.573  19.820  0.00  0.00    +0.000 NA
ATOM     12  N   UNL     1       1.482   8.709  20.140  0.00  0.00    +0.000 N 
BRANCH  12  13
ATOM     13  C   UNL     1       1.031   8.878  21.511  0.00  0.00    +0.000 C 
ATOM     14  C   UNL     1      -0.445   8.550  21.679  0.00  0.00    +0.000 C 
ENDBRANCH  12  13
BRANCH  10  15
ATOM     15  C   UNL     1       3.096   6.649  17.708  0.00  0.00    +0.000 C 
BRANCH  15  16
ATOM     16  C   UNL     1       2.919   5.201  18.229  0.00  0.00    +0.000 C 
ATOM     17  C   UNL     1       1.613   4.561  17.750  0.00  0.00    +0.000 C 
ATOM     18  C   UNL     1       4.104   4.333  17.798  0.00  0.00    +0.000 C 
ENDBRANCH  15  16
ENDBRANCH  10  15
ENDBRANCH   5   8
BRANCH   1  19
ATOM     19  N   UNL     1      -3.184  11.391  16.966  0.00  0.00    +0.000 NA
BRANCH  19  21
ATOM     20  C   UNL     1      -3.420  10.190  14.742  0.00  0.00    +0.000 C 
ATOM     21  C   UNL     1      -2.568  10.471  15.980  0.00  0.00    +0.000 C 
ENDBRANCH  19  21
BRANCH  19  22
ATOM     22  C   UNL     1      -4.659  11.411  16.847  0.00  0.00    +0.000 C 
ATOM     23  C   UNL     1      -5.440  10.815  18.020  0.00  0.00    +0.000 C 
ENDBRANCH  19  22
ENDBRANCH   1  19
TORSDOF 7
ENDMDL
MODEL 4
REMARK VINA RESULT:      -6.5      1.928      2.909
REMARK  Name = 
REMARK  12 active torsions:
REMARK  status: ('A' for Active; 'I' for Inactive)
REMARK    1  A    between atoms: C_1  and  C_2
REMARK    2  A    between atoms: C_2  and  N_3
REMARK    3  A    between atoms: N_3  and  C_4
REMARK    4  A    between atoms: N_3  and  C_6
REMARK    5  A    between atoms: C_4  and  C_5
REMARK    6  A    between atoms: C_10  and  C_12
REMARK    7  A    between atoms: C_14  and  C_15
REMARK    8  A    between atoms: C_15  and  C_16
REMARK    9  A    between atoms: C_16  and  C_17
REMARK   10  A    between atoms: C_16  and  C_18
REMARK   11  A    between atoms: N_20  and  C_21
REMARK   12  A    between atoms: C_21  and  C_22
REMARK                            x       y       z     vdW  Elec       q    Type
REMARK                         _______ _______ _______ _____ _____    ______ ____
ROOT
ATOM      1  C   UNL     1       2.751   2.778  17.935  0.00  0.00    +0.000 C 
ATOM      2  C   UNL     1       3.564   2.030  19.015  0.00  0.00    +0.000 C 
ATOM      3  C   UNL     1       4.692   2.988  19.366  0.00  0.00    +0.000 C 
ATOM      4  N   UNL     1       5.045   3.559  18.084  0.00  0.00    +0.000 N 
ATOM      5  C   UNL     1       6.278   4.167  17.840  0.00  0.00    +0.000 C 
ATOM      6  O   UNL     1       7.107   4.292  18.739  0.00  0.00    +0.000 OA
ATOM      7  C   UNL     1       3.897   3.493  17.187  0.00  0.00    +0.000 C 
ENDROOT
BRANCH   5   8
ATOM      8  C   UNL     1       6.508   4.665  16.493  0.00  0.00    +0.000 A 
ATOM      9  C   UNL     1       6.920   4.002  15.347  0.00  0.00    +0.000 A 
ATOM     10  C   UNL     1       6.683   4.878  14.277  0.00  0.00    +0.000 A 
ATOM     11  N   UNL     1       6.400   6.105  14.721  0.00  0.00    +0.000 NA
ATOM     12  N   UNL     1       6.408   5.975  16.075  0.00  0.00    +0.000 N 
BRANCH  12  13
ATOM     13  C   UNL     1       6.255   7.174  16.881  0.00  0.00    +0.000 C 
ATOM     14  C   UNL     1       7.573   7.636  17.486  0.00  0.00    +0.000 C 
ENDBRANCH  12  13
BRANCH  10  15
ATOM     15  C   UNL     1       6.696   4.520  12.825  0.00  0.00    +0.000 C 
BRANCH  15  16
ATOM     16  C   UNL     1       5.942   3.201  12.521  0.00  0.00    +0.000 C 
ATOM     17  C   UNL     1       4.571   3.441  11.885  0.00  0.00    +0.000 C 
ATOM     18  C   UNL     1       6.783   2.308  11.604  0.00  0.00    +0.000 C 
ENDBRANCH  15  16
ENDBRANCH  10  15
ENDBRANCH   5   8
BRANCH   1  19
ATOM     19  N   UNL     1       1.649   3.635  18.445  0.00  0.00    +0.000 NA
BRANCH  19  21
ATOM     20  C   UNL     1       1.018   3.240  20.872  0.00  0.00    +0.000 C 
ATOM     21  C   UNL     1       0.783   2.903  19.400  0.00  0.00    +0.000 C 
ENDBRANCH  19  21
BRANCH  19  22
ATOM     22  C   UNL     1       2.165   4.893  19.031  0.00  0.00    +0.000 C 
ATOM     23  C   UNL     1       2.197   6.108  18.102  0.00  0.00    +0.000 C 
ENDBRANCH  19  22
ENDBRANCH   1  19
TORSDOF 7
ENDMDL
MODEL 5
REMARK VINA RESULT:      -6.4      1.995      3.261
REMARK  Name = 
REMARK  12 active torsions:
REMARK  status: ('A' for Active; 'I' for Inactive)
REMARK    1  A    between atoms: C_1  and  C_2
REMARK    2  A    between atoms: C_2  and  N_3
REMARK    3  A    between atoms: N_3  and  C_4
REMARK    4  A    between atoms: N_3  and  C_6
REMARK    5  A    between atoms: C_4  and  C_5
REMARK    6  A    between atoms: C_10  and  C_12
REMARK    7  A    between atoms: C_14  and  C_15
REMARK    8  A    between atoms: C_15  and  C_16
REMARK    9  A    between atoms: C_16  and  C_17
REMARK   10  A    between atoms: C_16  and  C_18
REMARK   11  A    between atoms: N_20  and  C_21
REMARK   12  A    between atoms: C_21  and  C_22
REMARK                            x       y       z     vdW  Elec       q    Type
REMARK                         _______ _______ _______ _____ _____    ______ ____
ROOT
ATOM      1  C   UNL     1       3.542   4.496  19.833  0.00  0.00    +0.000 C 
ATOM      2  C   UNL     1       3.222   5.969  20.173  0.00  0.00    +0.000 C 
ATOM      3  C   UNL     1       2.951   6.615  18.823  0.00  0.00    +0.000 C 
ATOM      4  N   UNL     1       3.933   5.992  17.961  0.00  0.00    +0.000 N 
ATOM      5  C   UNL     1       4.341   6.552  16.749  0.00  0.00    +0.000 C 
ATOM      6  O   UNL     1       3.831   7.590  16.333  0.00  0.00    +0.000 OA
ATOM      7  C   UNL     1       4.302   4.689  18.502  0.00  0.00    +0.000 C 
ENDROOT
BRANCH   5   8
ATOM      8  C   UNL     1       5.361   5.832  16.005  0.00  0.00    +0.000 A 
ATOM      9  C   UNL     1       5.254   5.012  14.892  0.00  0.00    +0.000 A 
ATOM     10  C   UNL     1       6.557   4.831  14.407  0.00  0.00    +0.000 A 
ATOM     11  N   UNL     1       7.458   5.268  15.289  0.00  0.00    +0.000 NA
ATOM     12  N   UNL     1       6.706   5.773  16.304  0.00  0.00    +0.000 N 
BRANCH  12  13
ATOM     13  C   UNL     1       7.388   6.229  17.504  0.00  0.00    +0.000 C 
ATOM     14  C   UNL     1       7.641   7.729  17.491  0.00  0.00    +0.000 C 
ENDBRANCH  12  13
BRANCH  10  15
ATOM     15  C   UNL     1       6.930   4.266  13.073  0.00  0.00    +0.000 C 
BRANCH  15  16
ATOM     16  C   UNL     1       5.966   3.150  12.598  0.00  0.00    +0.000 C 
ATOM     17  C   UNL     1       4.743   3.704  11.864  0.00  0.00    +0.000 C 
ATOM     18  C   UNL     1       6.704   2.161  11.691  0.00  0.00    +0.000 C 
ENDBRANCH  15  16
ENDBRANCH  10  15
ENDBRANCH   5   8
BRANCH   1  19
ATOM     19  N   UNL     1       2.373   3.578  19.809  0.00  0.00    +0.000 NA
BRANCH  19  21
ATOM     20  C   UNL     1       0.891   2.159  18.314  0.00  0.00    +0.000 C 
ATOM     21  C   UNL     1       2.162   2.996  18.461  0.00  0.00    +0.000 C 
ENDBRANCH  19  21
BRANCH  19  22
ATOM     22  C   UNL     1       2.486   2.528  20.846  0.00  0.00    +0.000 C 
ATOM     23  C   UNL     1       1.519   2.636  22.026  0.00  0.00    +0.000 C 
ENDBRANCH  19  22
ENDBRANCH   1  19
TORSDOF 7
ENDMDL
MODEL 6
REMARK VINA RESULT:      -6.3      1.945      2.743
REMARK  Name = 
REMARK  12 active torsions:
REMARK  status: ('A' for Active; 'I' for Inactive)
REMARK    1  A    between atoms: C_1  and  C_2
REMARK    2  A    between atoms: C_2  and  N_3
REMARK    3  A    between atoms: N_3  and  C_4
REMARK    4  A    between atoms: N_3  and  C_6
REMARK    5  A    between atoms: C_4  and  C_5
REMARK    6  A    between atoms: C_10  and  C_12
REMARK    7  A    between atoms: C_14  and  C_15
REMARK    8  A    between atoms: C_15  and  C_16
REMARK    9  A    between atoms: C_16  and  C_17
REMARK   10  A    between atoms: C_16  and  C_18
REMARK   11  A    between atoms: N_20  and  C_21
REMARK   12  A    between atoms: C_21  and  C_22
REMARK                            x       y       z     vdW  Elec       q    Type
REMARK                         _______ _______ _______ _____ _____    ______ ____
ROOT
ATOM      1  C   UNL     1       3.094   3.085  18.616  0.00  0.00    +0.000 C 
ATOM      2  C   UNL     1       4.114   2.443  19.583  0.00  0.00    +0.000 C 
ATOM      3  C   UNL     1       5.309   3.384  19.546  0.00  0.00    +0.000 C 
ATOM      4  N   UNL     1       5.377   3.769  18.152  0.00  0.00    +0.000 N 
ATOM      5  C   UNL     1       6.534   4.282  17.563  0.00  0.00    +0.000 C 
ATOM      6  O   UNL     1       7.545   4.482  18.234  0.00  0.00    +0.000 OA
ATOM      7  C   UNL     1       4.056   3.643  17.545  0.00  0.00    +0.000 C 
ENDROOT
BRANCH   5   8
ATOM      8  C   UNL     1       6.466   4.591  16.145  0.00  0.00    +0.000 A 
ATOM      9  C   UNL     1       7.072   3.978  15.059  0.00  0.00    +0.000 A 
ATOM     10  C   UNL     1       6.432   4.477  13.915  0.00  0.00    +0.000 A 
ATOM     11  N   UNL     1       5.668   5.528  14.218  0.00  0.00    +0.000 NA
ATOM     12  N   UNL     1       5.791   5.647  15.567  0.00  0.00    +0.000 N 
BRANCH  12  13
ATOM     13  C   UNL     1       5.172   6.789  16.216  0.00  0.00    +0.000 C 
ATOM     14  C   UNL     1       6.125   7.503  17.164  0.00  0.00    +0.000 C 
ENDBRANCH  12  13
BRANCH  10  15
ATOM     15  C   UNL     1       6.533   3.914  12.532  0.00  0.00    +0.000 C 
BRANCH  15  16
ATOM     16  C   UNL     1       5.442   2.858  12.227  0.00  0.00    +0.000 C 
ATOM     17  C   UNL     1       4.244   3.451  11.480  0.00  0.00    +0.000 C 
ATOM     18  C   UNL     1       6.033   1.703  11.415  0.00  0.00    +0.000 C 
ENDBRANCH  15  16
ENDBRANCH  10  15
ENDBRANCH   5   8
BRANCH   1  19
ATOM     19  N   UNL     1       2.149   4.051  19.235  0.00  0.00    +0.000 NA
BRANCH  19  21
ATOM     20  C   UNL     1       2.315   6.503  18.599  0.00  0.00    +0.000 C 
ATOM     21  C   UNL     1       1.754   5.117  18.282  0.00  0.00    +0.000 C 
ENDBRANCH  19  21
BRANCH  19  22
ATOM     22  C   UNL     1       0.969   3.365  19.807  0.00  0.00    +0.000 C 
ATOM     23  C   UNL     1       1.095   2.897  21.258  0.00  0.00    +0.000 C 
ENDBRANCH  19  22
ENDBRANCH   1  19
TORSDOF 7
ENDMDL
MODEL 7
REMARK VINA RESULT:      -6.3      2.036      3.308
REMARK  Name = 
REMARK  12 active torsions:
REMARK  status: ('A' for Active; 'I' for Inactive)
REMARK    1  A    between atoms: C_1  and  C_2
REMARK    2  A    between atoms: C_2  and  N_3
REMARK    3  A    between atoms: N_3  and  C_4
REMARK    4  A    between atoms: N_3  and  C_6
REMARK    5  A    between atoms: C_4  and  C_5
REMARK    6  A    between atoms: C_10  and  C_12
REMARK    7  A    between atoms: C_14  and  C_15
REMARK    8  A    between atoms: C_15  and  C_16
REMARK    9  A    between atoms: C_16  and  C_17
REMARK   10  A    between atoms: C_16  and  C_18
REMARK   11  A    between atoms: N_20  and  C_21
REMARK   12  A    between atoms: C_21  and  C_22
REMARK                            x       y       z     vdW  Elec       q    Type
REMARK                         _______ _______ _______ _____ _____    ______ ____
ROOT
ATOM      1  C   UNL     1       2.922   4.469  19.949  0.00  0.00    +0.000 C 
ATOM      2  C   UNL     1       2.583   5.921  20.352  0.00  0.00    +0.000 C 
ATOM      3  C   UNL     1       2.526   6.672  19.030  0.00  0.00    +0.000 C 
ATOM      4  N   UNL     1       3.612   6.085  18.275  0.00  0.00    +0.000 N 
ATOM      5  C   UNL     1       4.204   6.720  17.182  0.00  0.00    +0.000 C 
ATOM      6  O   UNL     1       3.781   7.801  16.778  0.00  0.00    +0.000 OA
ATOM      7  C   UNL     1       3.872   4.735  18.762  0.00  0.00    +0.000 C 
ENDROOT
BRANCH   5   8
ATOM      8  C   UNL     1       5.309   6.027  16.541  0.00  0.00    +0.000 A 
ATOM      9  C   UNL     1       5.330   4.848  15.811  0.00  0.00    +0.000 A 
ATOM     10  C   UNL     1       6.579   4.800  15.173  0.00  0.00    +0.000 A 
ATOM     11  N   UNL     1       7.400   5.729  15.666  0.00  0.00    +0.000 NA
ATOM     12  N   UNL     1       6.639   6.392  16.577  0.00  0.00    +0.000 N 
BRANCH  12  13
ATOM     13  C   UNL     1       7.277   7.406  17.399  0.00  0.00    +0.000 C 
ATOM     14  C   UNL     1       7.917   6.819  18.649  0.00  0.00    +0.000 C 
ENDBRANCH  12  13
BRANCH  10  15
ATOM     15  C   UNL     1       6.965   3.878  14.061  0.00  0.00    +0.000 C 
BRANCH  15  16
ATOM     16  C   UNL     1       6.318   4.259  12.706  0.00  0.00    +0.000 C 
ATOM     17  C   UNL     1       7.321   4.876  11.729  0.00  0.00    +0.000 C 
ATOM     18  C   UNL     1       5.667   3.031  12.064  0.00  0.00    +0.000 C 
ENDBRANCH  15  16
ENDBRANCH  10  15
ENDBRANCH   5   8
BRANCH   1  19
ATOM     19  N   UNL     1       1.752   3.590  19.685  0.00  0.00    +0.000 NA
BRANCH  19  21
ATOM     20  C   UNL     1       2.368   2.409  17.524  0.00  0.00    +0.000 C 
ATOM     21  C   UNL     1       2.156   2.320  19.035  0.00  0.00    +0.000 C 
ENDBRANCH  19  21
BRANCH  19  22
ATOM     22  C   UNL     1       0.966   3.348  20.915  0.00  0.00    +0.000 C 
ATOM     23  C   UNL     1       1.665   2.554  22.020  0.00  0.00    +0.000 C 
ENDBRANCH  19  22
ENDBRANCH   1  19
TORSDOF 7
ENDMDL
MODEL 8
REMARK VINA RESULT:      -6.3      2.112      3.594
REMARK  Name = 
REMARK  12 active torsions:
REMARK  status: ('A' for Active; 'I' for Inactive)
REMARK    1  A    between atoms: C_1  and  C_2
REMARK    2  A    between atoms: C_2  and  N_3
REMARK    3  A    between atoms: N_3  and  C_4
REMARK    4  A    between atoms: N_3  and  C_6
REMARK    5  A    between atoms: C_4  and  C_5
REMARK    6  A    between atoms: C_10  and  C_12
REMARK    7  A    between atoms: C_14  and  C_15
REMARK    8  A    between atoms: C_15  and  C_16
REMARK    9  A    between atoms: C_16  and  C_17
REMARK   10  A    between atoms: C_16  and  C_18
REMARK   11  A    between atoms: N_20  and  C_21
REMARK   12  A    between atoms: C_21  and  C_22
REMARK                            x       y       z     vdW  Elec       q    Type
REMARK                         _______ _______ _______ _____ _____    ______ ____
ROOT
ATOM      1  C   UNL     1       3.898   3.655  19.843  0.00  0.00    +0.000 C 
ATOM      2  C   UNL     1       3.409   5.022  20.372  0.00  0.00    +0.000 C 
ATOM      3  C   UNL     1       3.014   5.789  19.118  0.00  0.00    +0.000 C 
ATOM      4  N   UNL     1       4.035   5.406  18.167  0.00  0.00    +0.000 N 
ATOM      5  C   UNL     1       4.329   6.158  17.028  0.00  0.00    +0.000 C 
ATOM      6  O   UNL     1       3.681   7.166  16.755  0.00  0.00    +0.000 OA
ATOM      7  C   UNL     1       4.581   4.104  18.533  0.00  0.00    +0.000 C 
ENDROOT
BRANCH   5   8
ATOM      8  C   UNL     1       5.405   5.670  16.180  0.00  0.00    +0.000 A 
ATOM      9  C   UNL     1       5.376   4.804  15.099  0.00  0.00    +0.000 A 
ATOM     10  C   UNL     1       6.624   4.917  14.468  0.00  0.00    +0.000 A 
ATOM     11  N   UNL     1       7.485   5.590  15.235  0.00  0.00    +0.000 NA
ATOM     12  N   UNL     1       6.749   5.944  16.322  0.00  0.00    +0.000 N 
BRANCH  12  13
ATOM     13  C   UNL     1       7.428   6.595  17.429  0.00  0.00    +0.000 C 
ATOM     14  C   UNL     1       7.730   5.634  18.570  0.00  0.00    +0.000 C 
ENDBRANCH  12  13
BRANCH  10  15
ATOM     15  C   UNL     1       6.974   4.402  13.108  0.00  0.00    +0.000 C 
BRANCH  15  16
ATOM     16  C   UNL     1       6.058   3.242  12.646  0.00  0.00    +0.000 C 
ATOM     17  C   UNL     1       4.786   3.738  11.954  0.00  0.00    +0.000 C 
ATOM     18  C   UNL     1       6.821   2.305  11.706  0.00  0.00    +0.000 C 
ENDBRANCH  15  16
ENDBRANCH  10  15
ENDBRANCH   5   8
BRANCH   1  19
ATOM     19  N   UNL     1       2.851   2.606  19.725  0.00  0.00    +0.000 NA
BRANCH  19  21
ATOM     20  C   UNL     1       0.423   2.891  19.042  0.00  0.00    +0.000 C 
ATOM     21  C   UNL     1       1.511   3.125  20.090  0.00  0.00    +0.000 C 
ENDBRANCH  19  21
BRANCH  19  22
ATOM     22  C   UNL     1       2.850   1.989  18.379  0.00  0.00    +0.000 C 
ATOM     23  C   UNL     1       3.951   0.963  18.104  0.00  0.00    +0.000 C 
ENDBRANCH  19  22
ENDBRANCH   1  19
TORSDOF 7
ENDMDL
MODEL 9
REMARK VINA RESULT:      -6.1      1.981      3.123
REMARK  Name = 
REMARK  12 active torsions:
REMARK  status: ('A' for Active; 'I' for Inactive)
REMARK    1  A    between atoms: C_1  and  C_2
REMARK    2  A    between atoms: C_2  and  N_3
REMARK    3  A    between atoms: N_3  and  C_4
REMARK    4  A    between atoms: N_3  and  C_6
REMARK    5  A    between atoms: C_4  and  C_5
REMARK    6  A    between atoms: C_10  and  C_12
REMARK    7  A    between atoms: C_14  and  C_15
REMARK    8  A    between atoms: C_15  and  C_16
REMARK    9  A    between atoms: C_16  and  C_17
REMARK   10  A    between atoms: C_16  and  C_18
REMARK   11  A    between atoms: N_20  and  C_21
REMARK   12  A    between atoms: C_21  and  C_22
REMARK                            x       y       z     vdW  Elec       q    Type
REMARK                         _______ _______ _______ _____ _____    ______ ____
ROOT
ATOM      1  C   UNL     1       3.179   2.751  18.629  0.00  0.00    +0.000 C 
ATOM      2  C   UNL     1       4.193   2.148  19.627  0.00  0.00    +0.000 C 
ATOM      3  C   UNL     1       5.265   3.219  19.765  0.00  0.00    +0.000 C 
ATOM      4  N   UNL     1       5.392   3.728  18.416  0.00  0.00    +0.000 N 
ATOM      5  C   UNL     1       6.520   4.419  17.970  0.00  0.00    +0.000 C 
ATOM      6  O   UNL     1       7.445   4.674  18.737  0.00  0.00    +0.000 OA
ATOM      7  C   UNL     1       4.146   3.506  17.690  0.00  0.00    +0.000 C 
ENDROOT
BRANCH   5   8
ATOM      8  C   UNL     1       6.523   4.840  16.578  0.00  0.00    +0.000 A 
ATOM      9  C   UNL     1       7.096   4.253  15.461  0.00  0.00    +0.000 A 
ATOM     10  C   UNL     1       6.541   4.898  14.346  0.00  0.00    +0.000 A 
ATOM     11  N   UNL     1       5.875   5.995  14.715  0.00  0.00    +0.000 NA
ATOM     12  N   UNL     1       5.972   5.998  16.071  0.00  0.00    +0.000 N 
BRANCH  12  13
ATOM     13  C   UNL     1       5.449   7.144  16.795  0.00  0.00    +0.000 C 
ATOM     14  C   UNL     1       3.929   7.139  16.867  0.00  0.00    +0.000 C 
ENDBRANCH  12  13
BRANCH  10  15
ATOM     15  C   UNL     1       6.626   4.435  12.926  0.00  0.00    +0.000 C 
BRANCH  15  16
ATOM     16  C   UNL     1       5.667   3.258  12.616  0.00  0.00    +0.000 C 
ATOM     17  C   UNL     1       4.418   3.705  11.853  0.00  0.00    +0.000 C 
ATOM     18  C   UNL     1       6.397   2.176  11.816  0.00  0.00    +0.000 C 
ENDBRANCH  15  16
ENDBRANCH  10  15
ENDBRANCH   5   8
BRANCH   1  19
ATOM     19  N   UNL     1       2.080   3.546  19.237  0.00  0.00    +0.000 NA
BRANCH  19  21
ATOM     20  C   UNL     1       1.125   2.742  21.447  0.00  0.00    +0.000 C 
ATOM     21  C   UNL     1       2.178   3.575  20.716  0.00  0.00    +0.000 C 
ENDBRANCH  19  21
BRANCH  19  22
ATOM     22  C   UNL     1       2.018   4.911  18.668  0.00  0.00    +0.000 C 
ATOM     23  C   UNL     1       2.226   6.064  19.651  0.00  0.00    +0.000 C 
ENDBRANCH  19  22
ENDBRANCH   1  19
TORSDOF 7
ENDMDL
