MODEL 1
REMARK VINA RESULT:      -7.1      0.000      0.000
REMARK  Name = 
REMARK  10 active torsions:
REMARK  status: ('A' for Active; 'I' for Inactive)
REMARK    1  A    between atoms: C_1  and  C_2
REMARK    2  A    between atoms: C_2  and  O_3
REMARK    3  A    between atoms: O_3  and  C_4
REMARK    4  A    between atoms: C_4  and  C_5
REMARK    5  A    between atoms: C_4  and  C_9
REMARK    6  A    between atoms: C_5  and  C_6
REMARK    7  A    between atoms: C_6  and  O_8
REMARK    8  A    between atoms: C_12  and  O_13
REMARK    9  A    between atoms: O_13  and  C_14
REMARK   10  A    between atoms: C_14  and  C_15
REMARK                            x       y       z     vdW  Elec       q    Type
REMARK                         _______ _______ _______ _____ _____    ______ ____
ROOT
ATOM      1  C   UNL     1       5.904   5.638  17.287  0.00  0.00    +0.000 A 
ATOM      2  C   UNL     1       6.841   5.282  18.265  0.00  0.00    +0.000 A 
ATOM      3  C   UNL     1       7.780   6.214  18.710  0.00  0.00    +0.000 A 
ATOM      4  C   UNL     1       7.755   7.485  18.167  0.00  0.00    +0.000 A 
ATOM      5  N   UNL     1       6.898   7.860  17.196  0.00  0.00    +0.000 NA
ATOM      6  C   UNL     1       6.005   6.934  16.778  0.00  0.00    +0.000 A 
ENDROOT
BRANCH   1   7
ATOM      7  C   UNL     1       4.805   4.697  16.810  0.00  0.00    +0.000 C 
BRANCH   7   8
ATOM      8  O   UNL     1       5.402   3.503  16.258  0.00  0.00    +0.000 OA
BRANCH   8  10
ATOM      9  C   UNL     1       5.503   3.979  13.920  0.00  0.00    +0.000 C 
ATOM     10  C   UNL     1       6.314   3.729  15.178  0.00  0.00    +0.000 C 
ENDBRANCH   8  10
ENDBRANCH   7   8
BRANCH   7  11
ATOM     11  C   UNL     1       3.853   4.323  17.951  0.00  0.00    +0.000 C 
BRANCH  11  12
ATOM     12  C   UNL     1       3.894   2.860  18.336  0.00  0.00    +0.000 C 
ATOM     13  O   UNL     1       3.071   2.058  17.916  0.00  0.00    +0.000 OA
BRANCH  12  14
ATOM     14  O   UNL     1       4.949   2.469  19.080  0.00  0.00    +0.000 OA
ATOM     15  H   UNL     1       4.736   2.295  20.025  0.00  0.00    +0.000 HD
ENDBRANCH  12  14
ENDBRANCH  11  12
ENDBRANCH   7  11
ENDBRANCH   1   7
BRANCH   4  16
ATOM     16  O   UNL     1       8.698   8.379  18.627  0.00  0.00    +0.000 OA
BRANCH  16  17
ATOM     17  C   UNL     1       8.512   9.689  18.084  0.00  0.00    +0.000 C 
BRANCH  17  18
ATOM     18  C   UNL     1       9.467  10.671  18.732  0.00  0.00    +0.000 A 
ATOM     19  C   UNL     1       9.522  10.826  20.124  0.00  0.00    +0.000 A 
ATOM     20  C   UNL     1      10.445  11.696  20.708  0.00  0.00    +0.000 A 
ATOM     21  C   UNL     1      11.334  12.411  19.908  0.00  0.00    +0.000 A 
ATOM     22  C   UNL     1      11.307  12.248  18.524  0.00  0.00    +0.000 A 
ATOM     23  C   UNL     1      10.383  11.379  17.939  0.00  0.00    +0.000 A 
ENDBRANCH  17  18
ENDBRANCH  16  17
ENDBRANCH   4  16
TORSDOF 9
ENDMDL
MODEL 2
REMARK VINA RESULT:      -6.9      1.508      2.646
REMARK  Name = 
REMARK  10 active torsions:
REMARK  status: ('A' for Active; 'I' for Inactive)
REMARK    1  A    between atoms: C_1  and  C_2
REMARK    2  A    between atoms: C_2  and  O_3
REMARK    3  A    between atoms: O_3  and  C_4
REMARK    4  A    between atoms: C_4  and  C_5
REMARK    5  A    between atoms: C_4  and  C_9
REMARK    6  A    between atoms: C_5  and  C_6
REMARK    7  A    between atoms: C_6  and  O_8
REMARK    8  A    between atoms: C_12  and  O_13
REMARK    9  A    between atoms: O_13  and  C_14
REMARK   10  A    between atoms: C_14  and  C_15
REMARK                            x       y       z     vdW  Elec       q    Type
REMARK                         _______ _______ _______ _____ _____    ______ ____
ROOT
ATOM      1  C   UNL     1       5.628   5.581  18.302  0.00  0.00    +0.000 A 
ATOM      2  C   UNL     1       6.868   5.542  18.953  0.00  0.00    +0.000 A 
ATOM      3  C   UNL     1       7.832   6.515  18.688  0.00  0.00    +0.000 A 
ATOM      4  C   UNL     1       7.529   7.511  17.778  0.00  0.00    +0.000 A 
ATOM      5  N   UNL     1       6.366   7.567  17.099  0.00  0.00    +0.000 NA
ATOM      6  C   UNL     1       5.454   6.605  17.370  0.00  0.00    +0.000 A 
ENDROOT
BRANCH   1   7
ATOM      7  C   UNL     1       4.505   4.597  18.599  0.00  0.00    +0.000 C 
BRANCH   7   8
ATOM      8  O   UNL     1       3.240   5.296  18.590  0.00  0.00    +0.000 OA
BRANCH   8  10
ATOM      9  C   UNL     1       2.407   4.441  20.658  0.00  0.00    +0.000 C 
ATOM     10  C   UNL     1       2.763   5.693  19.880  0.00  0.00    +0.000 C 
ENDBRANCH   8  10
ENDBRANCH   7   8
BRANCH   7  11
ATOM     11  C   UNL     1       4.475   3.455  17.578  0.00  0.00    +0.000 C 
BRANCH  11  12
ATOM     12  C   UNL     1       3.235   2.591  17.652  0.00  0.00    +0.000 C 
ATOM     13  O   UNL     1       3.222   1.530  18.260  0.00  0.00    +0.000 OA
BRANCH  12  14
ATOM     14  O   UNL     1       2.116   3.108  17.102  0.00  0.00    +0.000 OA
ATOM     15  H   UNL     1       1.979   4.066  17.287  0.00  0.00    +0.000 HD
ENDBRANCH  12  14
ENDBRANCH  11  12
ENDBRANCH   7  11
ENDBRANCH   1   7
BRANCH   4  16
ATOM     16  O   UNL     1       8.505   8.456  17.538  0.00  0.00    +0.000 OA
BRANCH  16  17
ATOM     17  C   UNL     1       8.081   9.774  17.894  0.00  0.00    +0.000 C 
BRANCH  17  18
ATOM     18  C   UNL     1       9.215  10.536  18.549  0.00  0.00    +0.000 A 
ATOM     19  C   UNL     1      10.167  11.226  17.786  0.00  0.00    +0.000 A 
ATOM     20  C   UNL     1      11.176  11.966  18.408  0.00  0.00    +0.000 A 
ATOM     21  C   UNL     1      11.235  12.037  19.798  0.00  0.00    +0.000 A 
ATOM     22  C   UNL     1      10.281  11.375  20.568  0.00  0.00    +0.000 A 
ATOM     23  C   UNL     1       9.273  10.634  19.948  0.00  0.00    +0.000 A 
ENDBRANCH  17  18
ENDBRANCH  16  17
ENDBRANCH   4  16
TORSDOF 9
ENDMDL
MODEL 3
REMARK VINA RESULT:      -6.8      6.310      8.744
REMARK  Name = 
REMARK  10 active torsions:
REMARK  status: ('A' for Active; 'I' for Inactive)
REMARK    1  A    between atoms: C_1  and  C_2
REMARK    2  A    between atoms: C_2  and  O_3
REMARK    3  A    between atoms: O_3  and  C_4
REMARK    4  A    between atoms: C_4  and  C_5
REMARK    5  A    between atoms: C_4  and  C_9
REMARK    6  A    between atoms: C_5  and  C_6
REMARK    7  A    between atoms: C_6  and  O_8
REMARK    8  A    between atoms: C_12  and  O_13
REMARK    9  A    between atoms: O_13  and  C_14
REMARK   10  A    between atoms: C_14  and  C_15
REMARK                            x       y       z     vdW  Elec       q    Type
REMARK                         _______ _______ _______ _____ _____    ______ ____
ROOT
ATOM      1  C   UNL     1       2.558   7.115  19.250  0.00  0.00    +0.000 A 
ATOM      2  C   UNL     1       2.479   7.672  17.968  0.00  0.00    +0.000 A 
ATOM      3  C   UNL     1       1.741   8.837  17.752  0.00  0.00    +0.000 A 
ATOM      4  C   UNL     1       1.102   9.420  18.831  0.00  0.00    +0.000 A 
ATOM      5  N   UNL     1       1.117   8.898  20.073  0.00  0.00    +0.000 NA
ATOM      6  C   UNL     1       1.833   7.764  20.251  0.00  0.00    +0.000 A 
ENDROOT
BRANCH   1   7
ATOM      7  C   UNL     1       3.405   5.890  19.571  0.00  0.00    +0.000 C 
BRANCH   7   8
ATOM      8  O   UNL     1       2.556   4.723  19.639  0.00  0.00    +0.000 OA
BRANCH   8  10
ATOM      9  C   UNL     1       1.178   3.227  20.890  0.00  0.00    +0.000 C 
ATOM     10  C   UNL     1       2.313   4.231  20.962  0.00  0.00    +0.000 C 
ENDBRANCH   8  10
ENDBRANCH   7   8
BRANCH   7  11
ATOM     11  C   UNL     1       4.501   5.675  18.523  0.00  0.00    +0.000 C 
BRANCH  11  12
ATOM     12  C   UNL     1       5.373   4.466  18.778  0.00  0.00    +0.000 C 
ATOM     13  O   UNL     1       6.492   4.566  19.263  0.00  0.00    +0.000 OA
BRANCH  12  14
ATOM     14  O   UNL     1       4.807   3.264  18.542  0.00  0.00    +0.000 OA
ATOM     15  H   UNL     1       5.176   2.789  17.761  0.00  0.00    +0.000 HD
ENDBRANCH  12  14
ENDBRANCH  11  12
ENDBRANCH   7  11
ENDBRANCH   1   7
BRANCH   4  16
ATOM     16  O   UNL     1       0.380  10.569  18.582  0.00  0.00    +0.000 OA
BRANCH  16  17
ATOM     17  C   UNL     1      -0.914  10.536  19.189  0.00  0.00    +0.000 C 
BRANCH  17  18
ATOM     18  C   UNL     1      -1.996  10.609  18.130  0.00  0.00    +0.000 A 
ATOM     19  C   UNL     1      -3.085  11.483  18.258  0.00  0.00    +0.000 A 
ATOM     20  C   UNL     1      -4.045  11.576  17.248  0.00  0.00    +0.000 A 
ATOM     21  C   UNL     1      -3.920  10.808  16.092  0.00  0.00    +0.000 A 
ATOM     22  C   UNL     1      -2.830   9.953  15.942  0.00  0.00    +0.000 A 
ATOM     23  C   UNL     1      -1.870   9.858  16.951  0.00  0.00    +0.000 A 
ENDBRANCH  17  18
ENDBRANCH  16  17
ENDBRANCH   4  16
TORSDOF 9
ENDMDL
MODEL 4
REMARK VINA RESULT:      -6.8      1.561      2.510
REMARK  Name = 
REMARK  10 active torsions:
REMARK  status: ('A' for Active; 'I' for Inactive)
REMARK    1  A    between atoms: C_1  and  C_2
REMARK    2  A    between atoms: C_2  and  O_3
REMARK    3  A    between atoms: O_3  and  C_4
REMARK    4  A    between atoms: C_4  and  C_5
REMARK    5  A    between atoms: C_4  and  C_9
REMARK    6  A    between atoms: C_5  and  C_6
REMARK    7  A    between atoms: C_6  and  O_8
REMARK    8  A    between atoms: C_12  and  O_13
REMARK    9  A    between atoms: O_13  and  C_14
REMARK   10  A    between atoms: C_14  and  C_15
REMARK                            x       y       z     vdW  Elec       q    Type
REMARK                         _______ _______ _______ _____ _____    ______ ____
ROOT
ATOM      1  C   UNL     1       5.644   5.600  17.656  0.00  0.00    +0.000 A 
ATOM      2  C   UNL     1       6.639   5.292  18.592  0.00  0.00    +0.000 A 
ATOM      3  C   UNL     1       7.683   6.187  18.827  0.00  0.00    +0.000 A 
ATOM      4  C   UNL     1       7.704   7.375  18.120  0.00  0.00    +0.000 A 
ATOM      5  N   UNL     1       6.791   7.696  17.181  0.00  0.00    +0.000 NA
ATOM      6  C   UNL     1       5.795   6.805  16.969  0.00  0.00    +0.000 A 
ENDROOT
BRANCH   1   7
ATOM      7  C   UNL     1       4.437   4.706  17.404  0.00  0.00    +0.000 C 
BRANCH   7   8
ATOM      8  O   UNL     1       4.537   3.521  18.225  0.00  0.00    +0.000 OA
BRANCH   8  10
ATOM      9  C   UNL     1       2.926   2.032  19.167  0.00  0.00    +0.000 C 
ATOM     10  C   UNL     1       3.616   2.477  17.892  0.00  0.00    +0.000 C 
ENDBRANCH   8  10
ENDBRANCH   7   8
BRANCH   7  11
ATOM     11  C   UNL     1       3.124   5.436  17.706  0.00  0.00    +0.000 C 
BRANCH  11  12
ATOM     12  C   UNL     1       3.113   6.167  19.030  0.00  0.00    +0.000 C 
ATOM     13  O   UNL     1       2.743   7.330  19.125  0.00  0.00    +0.000 OA
BRANCH  12  14
ATOM     14  O   UNL     1       3.431   5.434  20.118  0.00  0.00    +0.000 OA
ATOM     15  H   UNL     1       2.712   4.835  20.426  0.00  0.00    +0.000 HD
ENDBRANCH  12  14
ENDBRANCH  11  12
ENDBRANCH   7  11
ENDBRANCH   1   7
BRANCH   4  16
ATOM     16  O   UNL     1       8.751   8.235  18.375  0.00  0.00    +0.000 OA
BRANCH  16  17
ATOM     17  C   UNL     1       8.408   9.599  18.113  0.00  0.00    +0.000 C 
BRANCH  17  18
ATOM     18  C   UNL     1       9.438  10.529  18.720  0.00  0.00    +0.000 A 
ATOM     19  C   UNL     1      10.381  11.194  17.924  0.00  0.00    +0.000 A 
ATOM     20  C   UNL     1      11.289  12.088  18.495  0.00  0.00    +0.000 A 
ATOM     21  C   UNL     1      11.255  12.341  19.864  0.00  0.00    +0.000 A 
ATOM     22  C   UNL     1      10.307  11.706  20.664  0.00  0.00    +0.000 A 
ATOM     23  C   UNL     1       9.399  10.810  20.095  0.00  0.00    +0.000 A 
ENDBRANCH  17  18
ENDBRANCH  16  17
ENDBRANCH   4  16
TORSDOF 9
ENDMDL
MODEL 5
REMARK VINA RESULT:      -6.7      1.120      1.561
REMARK  Name = 
REMARK  10 active torsions:
REMARK  status: ('A' for Active; 'I' for Inactive)
REMARK    1  A    between atoms: C_1  and  C_2
REMARK    2  A    between atoms: C_2  and  O_3
REMARK    3  A    between atoms: O_3  and  C_4
REMARK    4  A    between atoms: C_4  and  C_5
REMARK    5  A    between atoms: C_4  and  C_9
REMARK    6  A    between atoms: C_5  and  C_6
REMARK    7  A    between atoms: C_6  and  O_8
REMARK    8  A    between atoms: C_12  and  O_13
REMARK    9  A    between atoms: O_13  and  C_14
REMARK   10  A    between atoms: C_14  and  C_15
REMARK                            x       y       z     vdW  Elec       q    Type
REMARK                         _______ _______ _______ _____ _____    ______ ____
ROOT
ATOM      1  C   UNL     1       5.931   5.396  16.820  0.00  0.00    +0.000 A 
ATOM      2  C   UNL     1       5.699   6.773  16.712  0.00  0.00    +0.000 A 
ATOM      3  C   UNL     1       6.584   7.682  17.293  0.00  0.00    +0.000 A 
ATOM      4  C   UNL     1       7.685   7.189  17.968  0.00  0.00    +0.000 A 
ATOM      5  N   UNL     1       7.927   5.873  18.132  0.00  0.00    +0.000 NA
ATOM      6  C   UNL     1       7.048   5.015  17.565  0.00  0.00    +0.000 A 
ENDROOT
BRANCH   1   7
ATOM      7  C   UNL     1       5.050   4.352  16.146  0.00  0.00    +0.000 C 
BRANCH   7   8
ATOM      8  O   UNL     1       5.841   3.589  15.208  0.00  0.00    +0.000 OA
BRANCH   8  10
ATOM      9  C   UNL     1       6.082   3.468  12.836  0.00  0.00    +0.000 C 
ATOM     10  C   UNL     1       6.300   4.324  14.069  0.00  0.00    +0.000 C 
ENDBRANCH   8  10
ENDBRANCH   7   8
BRANCH   7  11
ATOM     11  C   UNL     1       4.409   3.412  17.172  0.00  0.00    +0.000 C 
BRANCH  11  12
ATOM     12  C   UNL     1       3.462   4.097  18.133  0.00  0.00    +0.000 C 
ATOM     13  O   UNL     1       3.709   4.191  19.328  0.00  0.00    +0.000 OA
BRANCH  12  14
ATOM     14  O   UNL     1       2.383   4.691  17.583  0.00  0.00    +0.000 OA
ATOM     15  H   UNL     1       2.546   5.081  16.693  0.00  0.00    +0.000 HD
ENDBRANCH  12  14
ENDBRANCH  11  12
ENDBRANCH   7  11
ENDBRANCH   1   7
BRANCH   4  16
ATOM     16  O   UNL     1       8.538   8.114  18.533  0.00  0.00    +0.000 OA
BRANCH  16  17
ATOM     17  C   UNL     1       8.272   9.443  18.078  0.00  0.00    +0.000 C 
BRANCH  17  18
ATOM     18  C   UNL     1       9.257  10.418  18.691  0.00  0.00    +0.000 A 
ATOM     19  C   UNL     1       9.324  10.613  20.078  0.00  0.00    +0.000 A 
ATOM     20  C   UNL     1      10.273  11.477  20.630  0.00  0.00    +0.000 A 
ATOM     21  C   UNL     1      11.176  12.143  19.804  0.00  0.00    +0.000 A 
ATOM     22  C   UNL     1      11.135  11.940  18.426  0.00  0.00    +0.000 A 
ATOM     23  C   UNL     1      10.186  11.078  17.872  0.00  0.00    +0.000 A 
ENDBRANCH  17  18
ENDBRANCH  16  17
ENDBRANCH   4  16
TORSDOF 9
ENDMDL
MODEL 6
REMARK VINA RESULT:      -6.6      5.233      7.309
REMARK  Name = 
REMARK  10 active torsions:
REMARK  status: ('A' for Active; 'I' for Inactive)
REMARK    1  A    between atoms: C_1  and  C_2
REMARK    2  A    between atoms: C_2  and  O_3
REMARK    3  A    between atoms: O_3  and  C_4
REMARK    4  A    between atoms: C_4  and  C_5
REMARK    5  A    between atoms: C_4  and  C_9
REMARK    6  A    between atoms: C_5  and  C_6
REMARK    7  A    between atoms: C_6  and  O_8
REMARK    8  A    between atoms: C_12  and  O_13
REMARK    9  A    between atoms: O_13  and  C_14
REMARK   10  A    between atoms: C_14  and  C_15
REMARK                            x       y       z     vdW  Elec       q    Type
REMARK                         _______ _______ _______ _____ _____    ______ ____
ROOT
ATOM      1  C   UNL     1       3.767   5.549  18.558  0.00  0.00    +0.000 A 
ATOM      2  C   UNL     1       2.982   5.684  19.710  0.00  0.00    +0.000 A 
ATOM      3  C   UNL     1       2.225   6.838  19.913  0.00  0.00    +0.000 A 
ATOM      4  C   UNL     1       2.269   7.832  18.952  0.00  0.00    +0.000 A 
ATOM      5  N   UNL     1       3.041   7.763  17.849  0.00  0.00    +0.000 NA
ATOM      6  C   UNL     1       3.770   6.636  17.683  0.00  0.00    +0.000 A 
ENDROOT
BRANCH   1   7
ATOM      7  C   UNL     1       4.557   4.287  18.236  0.00  0.00    +0.000 C 
BRANCH   7   8
ATOM      8  O   UNL     1       5.796   4.293  18.980  0.00  0.00    +0.000 OA
BRANCH   8  10
ATOM      9  C   UNL     1       7.617   5.838  18.992  0.00  0.00    +0.000 C 
ATOM     10  C   UNL     1       6.944   4.711  18.233  0.00  0.00    +0.000 C 
ENDBRANCH   8  10
ENDBRANCH   7   8
BRANCH   7  11
ATOM     11  C   UNL     1       3.757   3.024  18.571  0.00  0.00    +0.000 C 
BRANCH  11  12
ATOM     12  C   UNL     1       4.128   2.388  19.893  0.00  0.00    +0.000 C 
ATOM     13  O   UNL     1       3.422   2.503  20.885  0.00  0.00    +0.000 OA
BRANCH  12  14
ATOM     14  O   UNL     1       5.223   1.600  19.888  0.00  0.00    +0.000 OA
ATOM     15  H   UNL     1       5.992   1.978  19.403  0.00  0.00    +0.000 HD
ENDBRANCH  12  14
ENDBRANCH  11  12
ENDBRANCH   7  11
ENDBRANCH   1   7
BRANCH   4  16
ATOM     16  O   UNL     1       1.511   8.960  19.185  0.00  0.00    +0.000 OA
BRANCH  16  17
ATOM     17  C   UNL     1       0.996   9.525  17.977  0.00  0.00    +0.000 C 
BRANCH  17  18
ATOM     18  C   UNL     1      -0.332  10.208  18.237  0.00  0.00    +0.000 A 
ATOM     19  C   UNL     1      -0.465  11.194  19.224  0.00  0.00    +0.000 A 
ATOM     20  C   UNL     1      -1.682  11.850  19.415  0.00  0.00    +0.000 A 
ATOM     21  C   UNL     1      -2.777  11.540  18.611  0.00  0.00    +0.000 A 
ATOM     22  C   UNL     1      -2.653  10.578  17.610  0.00  0.00    +0.000 A 
ATOM     23  C   UNL     1      -1.436   9.920  17.419  0.00  0.00    +0.000 A 
ENDBRANCH  17  18
ENDBRANCH  16  17
ENDBRANCH   4  16
TORSDOF 9
ENDMDL
MODEL 7
REMARK VINA RESULT:      -6.6      5.140      7.141
REMARK  Name = 
REMARK  10 active torsions:
REMARK  status: ('A' for Active; 'I' for Inactive)
REMARK    1  A    between atoms: C_1  and  C_2
REMARK    2  A    between atoms: C_2  and  O_3
REMARK    3  A    between atoms: O_3  and  C_4
REMARK    4  A    between atoms: C_4  and  C_5
REMARK    5  A    between atoms: C_4  and  C_9
REMARK    6  A    between atoms: C_5  and  C_6
REMARK    7  A    between atoms: C_6  and  O_8
REMARK    8  A    between atoms: C_12  and  O_13
REMARK    9  A    between atoms: O_13  and  C_14
REMARK   10  A    between atoms: C_14  and  C_15
REMARK                            x       y       z     vdW  Elec       q    Type
REMARK                         _______ _______ _______ _____ _____    ______ ____
ROOT
ATOM      1  C   UNL     1       4.558   6.257  17.718  0.00  0.00    +0.000 A 
ATOM      2  C   UNL     1       3.834   7.398  17.350  0.00  0.00    +0.000 A 
ATOM      3  C   UNL     1       2.793   7.861  18.156  0.00  0.00    +0.000 A 
ATOM      4  C   UNL     1       2.504   7.169  19.318  0.00  0.00    +0.000 A 
ATOM      5  N   UNL     1       3.146   6.045  19.692  0.00  0.00    +0.000 NA
ATOM      6  C   UNL     1       4.145   5.615  18.887  0.00  0.00    +0.000 A 
ENDROOT
BRANCH   1   7
ATOM      7  C   UNL     1       5.753   5.742  16.926  0.00  0.00    +0.000 C 
BRANCH   7   8
ATOM      8  O   UNL     1       6.369   4.649  17.643  0.00  0.00    +0.000 OA
BRANCH   8  10
ATOM      9  C   UNL     1       7.779   6.436  18.364  0.00  0.00    +0.000 C 
ATOM     10  C   UNL     1       7.667   4.935  18.177  0.00  0.00    +0.000 C 
ENDBRANCH   8  10
ENDBRANCH   7   8
BRANCH   7  11
ATOM     11  C   UNL     1       5.340   5.278  15.526  0.00  0.00    +0.000 C 
BRANCH  11  12
ATOM     12  C   UNL     1       6.470   4.687  14.712  0.00  0.00    +0.000 C 
ATOM     13  O   UNL     1       6.298   3.737  13.960  0.00  0.00    +0.000 OA
BRANCH  12  14
ATOM     14  O   UNL     1       7.653   5.334  14.778  0.00  0.00    +0.000 OA
ATOM     15  H   UNL     1       7.627   6.260  14.445  0.00  0.00    +0.000 HD
ENDBRANCH  12  14
ENDBRANCH  11  12
ENDBRANCH   7  11
ENDBRANCH   1   7
BRANCH   4  16
ATOM     16  O   UNL     1       1.468   7.651  20.090  0.00  0.00    +0.000 OA
BRANCH  16  17
ATOM     17  C   UNL     1       1.160   9.016  19.792  0.00  0.00    +0.000 C 
BRANCH  17  18
ATOM     18  C   UNL     1       0.357   9.635  20.918  0.00  0.00    +0.000 A 
ATOM     19  C   UNL     1       0.336   9.065  22.199  0.00  0.00    +0.000 A 
ATOM     20  C   UNL     1      -0.367   9.678  23.238  0.00  0.00    +0.000 A 
ATOM     21  C   UNL     1      -1.043  10.875  23.015  0.00  0.00    +0.000 A 
ATOM     22  C   UNL     1      -1.010  11.465  21.753  0.00  0.00    +0.000 A 
ATOM     23  C   UNL     1      -0.309  10.853  20.712  0.00  0.00    +0.000 A 
ENDBRANCH  17  18
ENDBRANCH  16  17
ENDBRANCH   4  16
TORSDOF 9
ENDMDL
MODEL 8
REMARK VINA RESULT:      -6.6      1.700      2.789
REMARK  Name = 
REMARK  10 active torsions:
REMARK  status: ('A' for Active; 'I' for Inactive)
REMARK    1  A    between atoms: C_1  and  C_2
REMARK    2  A    between atoms: C_2  and  O_3
REMARK    3  A    between atoms: O_3  and  C_4
REMARK    4  A    between atoms: C_4  and  C_5
REMARK    5  A    between atoms: C_4  and  C_9
REMARK    6  A    between atoms: C_5  and  C_6
REMARK    7  A    between atoms: C_6  and  O_8
REMARK    8  A    between atoms: C_12  and  O_13
REMARK    9  A    between atoms: O_13  and  C_14
REMARK   10  A    between atoms: C_14  and  C_15
REMARK                            x       y       z     vdW  Elec       q    Type
REMARK                         _______ _______ _______ _____ _____    ______ ____
ROOT
ATOM      1  C   UNL     1       5.770   5.010  18.244  0.00  0.00    +0.000 A 
ATOM      2  C   UNL     1       6.896   4.950  19.074  0.00  0.00    +0.000 A 
ATOM      3  C   UNL     1       7.827   5.990  19.071  0.00  0.00    +0.000 A 
ATOM      4  C   UNL     1       7.604   7.070  18.238  0.00  0.00    +0.000 A 
ATOM      5  N   UNL     1       6.557   7.152  17.393  0.00  0.00    +0.000 NA
ATOM      6  C   UNL     1       5.675   6.126  17.412  0.00  0.00    +0.000 A 
ENDROOT
BRANCH   1   7
ATOM      7  C   UNL     1       4.677   3.949  18.252  0.00  0.00    +0.000 C 
BRANCH   7   8
ATOM      8  O   UNL     1       4.023   3.942  19.540  0.00  0.00    +0.000 OA
BRANCH   8  10
ATOM      9  C   UNL     1       2.667   2.701  21.064  0.00  0.00    +0.000 C 
ATOM     10  C   UNL     1       3.855   2.645  20.123  0.00  0.00    +0.000 C 
ENDBRANCH   8  10
ENDBRANCH   7   8
BRANCH   7  11
ATOM     11  C   UNL     1       3.645   4.198  17.147  0.00  0.00    +0.000 C 
BRANCH  11  12
ATOM     12  C   UNL     1       2.279   4.603  17.656  0.00  0.00    +0.000 C 
ATOM     13  O   UNL     1       1.303   3.876  17.538  0.00  0.00    +0.000 OA
BRANCH  12  14
ATOM     14  O   UNL     1       2.220   5.763  18.343  0.00  0.00    +0.000 OA
ATOM     15  H   UNL     1       2.355   6.568  17.791  0.00  0.00    +0.000 HD
ENDBRANCH  12  14
ENDBRANCH  11  12
ENDBRANCH   7  11
ENDBRANCH   1   7
BRANCH   4  16
ATOM     16  O   UNL     1       8.545   8.078  18.258  0.00  0.00    +0.000 OA
BRANCH  16  17
ATOM     17  C   UNL     1       8.003   9.333  17.836  0.00  0.00    +0.000 C 
BRANCH  17  18
ATOM     18  C   UNL     1       8.815  10.478  18.405  0.00  0.00    +0.000 A 
ATOM     19  C   UNL     1       8.861  11.727  17.771  0.00  0.00    +0.000 A 
ATOM     20  C   UNL     1       9.572  12.787  18.337  0.00  0.00    +0.000 A 
ATOM     21  C   UNL     1      10.232  12.616  19.552  0.00  0.00    +0.000 A 
ATOM     22  C   UNL     1      10.174  11.387  20.206  0.00  0.00    +0.000 A 
ATOM     23  C   UNL     1       9.465  10.325  19.640  0.00  0.00    +0.000 A 
ENDBRANCH  17  18
ENDBRANCH  16  17
ENDBRANCH   4  16
TORSDOF 9
ENDMDL
MODEL 9
REMARK VINA RESULT:      -6.6      1.720      2.793
REMARK  Name = 
REMARK  10 active torsions:
REMARK  status: ('A' for Active; 'I' for Inactive)
REMARK    1  A    between atoms: C_1  and  C_2
REMARK    2  A    between atoms: C_2  and  O_3
REMARK    3  A    between atoms: O_3  and  C_4
REMARK    4  A    between atoms: C_4  and  C_5
REMARK    5  A    between atoms: C_4  and  C_9
REMARK    6  A    between atoms: C_5  and  C_6
REMARK    7  A    between atoms: C_6  and  O_8
REMARK    8  A    between atoms: C_12  and  O_13
REMARK    9  A    between atoms: O_13  and  C_14
REMARK   10  A    between atoms: C_14  and  C_15
REMARK                            x       y       z     vdW  Elec       q    Type
REMARK                         _______ _______ _______ _____ _____    ______ ____
ROOT
ATOM      1  C   UNL     1       5.474   5.326  18.482  0.00  0.00    +0.000 A 
ATOM      2  C   UNL     1       5.381   6.353  17.534  0.00  0.00    +0.000 A 
ATOM      3  C   UNL     1       6.432   7.257  17.374  0.00  0.00    +0.000 A 
ATOM      4  C   UNL     1       7.555   7.108  18.166  0.00  0.00    +0.000 A 
ATOM      5  N   UNL     1       7.672   6.160  19.117  0.00  0.00    +0.000 NA
ATOM      6  C   UNL     1       6.635   5.303  19.256  0.00  0.00    +0.000 A 
ENDROOT
BRANCH   1   7
ATOM      7  C   UNL     1       4.399   4.260  18.657  0.00  0.00    +0.000 C 
BRANCH   7   8
ATOM      8  O   UNL     1       3.327   4.788  19.469  0.00  0.00    +0.000 OA
BRANCH   8  10
ATOM      9  C   UNL     1       1.454   4.117  20.790  0.00  0.00    +0.000 C 
ATOM     10  C   UNL     1       2.948   3.963  20.576  0.00  0.00    +0.000 C 
ENDBRANCH   8  10
ENDBRANCH   7   8
BRANCH   7  11
ATOM     11  C   UNL     1       3.846   3.794  17.306  0.00  0.00    +0.000 C 
BRANCH  11  12
ATOM     12  C   UNL     1       2.492   3.124  17.390  0.00  0.00    +0.000 C 
ATOM     13  O   UNL     1       1.458   3.720  17.123  0.00  0.00    +0.000 OA
BRANCH  12  14
ATOM     14  O   UNL     1       2.498   1.804  17.670  0.00  0.00    +0.000 OA
ATOM     15  H   UNL     1       2.523   1.222  16.876  0.00  0.00    +0.000 HD
ENDBRANCH  12  14
ENDBRANCH  11  12
ENDBRANCH   7  11
ENDBRANCH   1   7
BRANCH   4  16
ATOM     16  O   UNL     1       8.573   8.020  17.983  0.00  0.00    +0.000 OA
BRANCH  16  17
ATOM     17  C   UNL     1       8.095   9.367  17.951  0.00  0.00    +0.000 C 
BRANCH  17  18
ATOM     18  C   UNL     1       9.105  10.303  18.583  0.00  0.00    +0.000 A 
ATOM     19  C   UNL     1       9.187  10.459  19.973  0.00  0.00    +0.000 A 
ATOM     20  C   UNL     1      10.159  11.286  20.541  0.00  0.00    +0.000 A 
ATOM     21  C   UNL     1      11.070  11.953  19.726  0.00  0.00    +0.000 A 
ATOM     22  C   UNL     1      11.016  11.788  18.344  0.00  0.00    +0.000 A 
ATOM     23  C   UNL     1      10.044  10.963  17.775  0.00  0.00    +0.000 A 
ENDBRANCH  17  18
ENDBRANCH  16  17
ENDBRANCH   4  16
TORSDOF 9
ENDMDL
