MODEL 1
REMARK VINA RESULT:      -8.2      0.000      0.000
REMARK  Name = 
REMARK  10 active torsions:
REMARK  status: ('A' for Active; 'I' for Inactive)
REMARK    1  A    between atoms: C_1  and  C_2
REMARK    2  A    between atoms: C_5  and  C_6
REMARK    3  A    between atoms: N_8  and  C_9
REMARK    4  A    between atoms: C_12  and  C_13
REMARK    5  A    between atoms: C_13  and  N_14
REMARK    6  A    between atoms: C_16  and  C_17
REMARK    7  A    between atoms: C_18  and  C_19
REMARK    8  A    between atoms: C_19  and  C_20
REMARK    9  A    between atoms: C_20  and  O_22
REMARK   10  A    between atoms: C_23  and  C_24
REMARK                            x       y       z     vdW  Elec       q    Type
REMARK                         _______ _______ _______ _____ _____    ______ ____
ROOT
ATOM      1  C   UNL     1       0.629   9.545  19.575  0.00  0.00    +0.000 A 
ATOM      2  C   UNL     1       1.040   9.714  18.252  0.00  0.00    +0.000 A 
ATOM      3  C   UNL     1       1.984   8.858  17.675  0.00  0.00    +0.000 A 
ATOM      4  C   UNL     1       2.543   7.808  18.410  0.00  0.00    +0.000 A 
ATOM      5  C   UNL     1       2.163   7.662  19.751  0.00  0.00    +0.000 A 
ATOM      6  C   UNL     1       1.218   8.523  20.328  0.00  0.00    +0.000 A 
ENDROOT
BRANCH   1   9
ATOM      7  C   UNL     1      -0.116  11.381  21.098  0.00  0.00    +0.000 C 
ATOM      8  O   UNL     1       0.992  11.791  21.436  0.00  0.00    +0.000 OA
ATOM      9  N   UNL     1      -0.350  10.355  20.197  0.00  0.00    +0.000 N 
ATOM     10  H   UNL     1      -1.309  10.191  19.911  0.00  0.00    +0.000 HD
BRANCH   7  15
ATOM     11  C   UNL     1      -4.679  14.245  23.295  0.00  0.00    +0.000 C 
ATOM     12  C   UNL     1      -3.517  13.488  22.722  0.00  0.00    +0.000 A 
ATOM     13  C   UNL     1      -2.928  13.879  21.516  0.00  0.00    +0.000 A 
ATOM     14  C   UNL     1      -1.834  13.176  21.003  0.00  0.00    +0.000 A 
ATOM     15  C   UNL     1      -1.307  12.067  21.684  0.00  0.00    +0.000 A 
ATOM     16  C   UNL     1      -1.908  11.678  22.882  0.00  0.00    +0.000 A 
ATOM     17  F   UNL     1      -1.454  10.619  23.570  0.00  0.00    +0.000 F 
ATOM     18  C   UNL     1      -2.999  12.379  23.401  0.00  0.00    +0.000 A 
ENDBRANCH   7  15
ENDBRANCH   1   9
BRANCH   4  19
ATOM     19  C   UNL     1       3.482   6.824  17.758  0.00  0.00    +0.000 C 
BRANCH  19  20
ATOM     20  N   UNL     1       3.318   5.450  18.231  0.00  0.00    +0.000 N 
ATOM     21  N   UNL     1       2.131   4.840  18.018  0.00  0.00    +0.000 NA
ATOM     22  C   UNL     1       2.301   3.593  18.459  0.00  0.00    +0.000 A 
ATOM     23  C   UNL     1       1.183   2.617  18.393  0.00  0.00    +0.000 C 
ATOM     24  C   UNL     1       3.632   3.368  18.895  0.00  0.00    +0.000 A 
ATOM     25  C   UNL     1       4.278   4.582  18.705  0.00  0.00    +0.000 A 
ATOM     26  C   UNL     1       5.699   4.947  18.952  0.00  0.00    +0.000 C 
BRANCH  24  27
ATOM     27  C   UNL     1       4.205   2.083  19.406  0.00  0.00    +0.000 C 
BRANCH  27  28
ATOM     28  C   UNL     1       4.279   1.954  20.915  0.00  0.00    +0.000 C 
ATOM     29  O   UNL     1       3.359   2.314  21.643  0.00  0.00    +0.000 OA
BRANCH  28  30
ATOM     30  O   UNL     1       5.401   1.410  21.435  0.00  0.00    +0.000 OA
ATOM     31  H   UNL     1       5.924   2.008  22.003  0.00  0.00    +0.000 HD
ENDBRANCH  28  30
ENDBRANCH  27  28
ENDBRANCH  24  27
ENDBRANCH  19  20
ENDBRANCH   4  19
TORSDOF 7
ENDMDL
MODEL 2
REMARK VINA RESULT:      -8.0      0.470      1.166
REMARK  Name = 
REMARK  10 active torsions:
REMARK  status: ('A' for Active; 'I' for Inactive)
REMARK    1  A    between atoms: C_1  and  C_2
REMARK    2  A    between atoms: C_5  and  C_6
REMARK    3  A    between atoms: N_8  and  C_9
REMARK    4  A    between atoms: C_12  and  C_13
REMARK    5  A    between atoms: C_13  and  N_14
REMARK    6  A    between atoms: C_16  and  C_17
REMARK    7  A    between atoms: C_18  and  C_19
REMARK    8  A    between atoms: C_19  and  C_20
REMARK    9  A    between atoms: C_20  and  O_22
REMARK   10  A    between atoms: C_23  and  C_24
REMARK                            x       y       z     vdW  Elec       q    Type
REMARK                         _______ _______ _______ _____ _____    ______ ____
ROOT
ATOM      1  C   UNL     1       0.482   9.654  19.964  0.00  0.00    +0.000 A 
ATOM      2  C   UNL     1       1.109   8.612  20.647  0.00  0.00    +0.000 A 
ATOM      3  C   UNL     1       2.002   7.756  19.993  0.00  0.00    +0.000 A 
ATOM      4  C   UNL     1       2.289   7.921  18.634  0.00  0.00    +0.000 A 
ATOM      5  C   UNL     1       1.627   8.942  17.937  0.00  0.00    +0.000 A 
ATOM      6  C   UNL     1       0.731   9.798  18.594  0.00  0.00    +0.000 A 
ENDROOT
BRANCH   1   9
ATOM      7  C   UNL     1      -0.035  11.681  21.333  0.00  0.00    +0.000 C 
ATOM      8  O   UNL     1       1.115  12.072  21.510  0.00  0.00    +0.000 OA
ATOM      9  N   UNL     1      -0.398  10.574  20.583  0.00  0.00    +0.000 N 
ATOM     10  H   UNL     1      -1.387  10.425  20.414  0.00  0.00    +0.000 HD
BRANCH   7  15
ATOM     11  C   UNL     1      -4.195  14.989  23.699  0.00  0.00    +0.000 C 
ATOM     12  C   UNL     1      -3.139  14.123  23.078  0.00  0.00    +0.000 A 
ATOM     13  C   UNL     1      -2.360  14.589  22.016  0.00  0.00    +0.000 A 
ATOM     14  C   UNL     1      -1.367  13.777  21.459  0.00  0.00    +0.000 A 
ATOM     15  C   UNL     1      -1.134  12.483  21.951  0.00  0.00    +0.000 A 
ATOM     16  C   UNL     1      -1.923  12.023  23.006  0.00  0.00    +0.000 A 
ATOM     17  F   UNL     1      -1.754  10.791  23.510  0.00  0.00    +0.000 F 
ATOM     18  C   UNL     1      -2.914  12.831  23.569  0.00  0.00    +0.000 A 
ENDBRANCH   7  15
ENDBRANCH   1   9
BRANCH   4  19
ATOM     19  C   UNL     1       3.327   7.064  17.954  0.00  0.00    +0.000 C 
BRANCH  19  20
ATOM     20  N   UNL     1       3.277   5.656  18.345  0.00  0.00    +0.000 N 
ATOM     21  N   UNL     1       2.143   4.965  18.097  0.00  0.00    +0.000 NA
ATOM     22  C   UNL     1       2.416   3.712  18.463  0.00  0.00    +0.000 A 
ATOM     23  C   UNL     1       1.381   2.654  18.339  0.00  0.00    +0.000 C 
ATOM     24  C   UNL     1       3.763   3.572  18.886  0.00  0.00    +0.000 A 
ATOM     25  C   UNL     1       4.307   4.843  18.767  0.00  0.00    +0.000 A 
ATOM     26  C   UNL     1       5.695   5.307  19.035  0.00  0.00    +0.000 C 
BRANCH  24  27
ATOM     27  C   UNL     1       4.441   2.310  19.320  0.00  0.00    +0.000 C 
BRANCH  27  28
ATOM     28  C   UNL     1       4.396   2.021  20.808  0.00  0.00    +0.000 C 
ATOM     29  O   UNL     1       5.302   1.425  21.381  0.00  0.00    +0.000 OA
BRANCH  28  30
ATOM     30  O   UNL     1       3.315   2.459  21.490  0.00  0.00    +0.000 OA
ATOM     31  H   UNL     1       3.379   2.373  22.461  0.00  0.00    +0.000 HD
ENDBRANCH  28  30
ENDBRANCH  27  28
ENDBRANCH  24  27
ENDBRANCH  19  20
ENDBRANCH   4  19
TORSDOF 7
ENDMDL
MODEL 3
REMARK VINA RESULT:      -7.9      2.960      4.064
REMARK  Name = 
REMARK  10 active torsions:
REMARK  status: ('A' for Active; 'I' for Inactive)
REMARK    1  A    between atoms: C_1  and  C_2
REMARK    2  A    between atoms: C_5  and  C_6
REMARK    3  A    between atoms: N_8  and  C_9
REMARK    4  A    between atoms: C_12  and  C_13
REMARK    5  A    between atoms: C_13  and  N_14
REMARK    6  A    between atoms: C_16  and  C_17
REMARK    7  A    between atoms: C_18  and  C_19
REMARK    8  A    between atoms: C_19  and  C_20
REMARK    9  A    between atoms: C_20  and  O_22
REMARK   10  A    between atoms: C_23  and  C_24
REMARK                            x       y       z     vdW  Elec       q    Type
REMARK                         _______ _______ _______ _____ _____    ______ ____
ROOT
ATOM      1  C   UNL     1       1.251   9.081  19.957  0.00  0.00    +0.000 A 
ATOM      2  C   UNL     1       1.099   8.170  21.004  0.00  0.00    +0.000 A 
ATOM      3  C   UNL     1       1.628   6.878  20.918  0.00  0.00    +0.000 A 
ATOM      4  C   UNL     1       2.325   6.463  19.778  0.00  0.00    +0.000 A 
ATOM      5  C   UNL     1       2.443   7.362  18.709  0.00  0.00    +0.000 A 
ATOM      6  C   UNL     1       1.909   8.657  18.797  0.00  0.00    +0.000 A 
ENDROOT
BRANCH   1   9
ATOM      7  C   UNL     1      -0.418  10.876  19.469  0.00  0.00    +0.000 C 
ATOM      8  O   UNL     1      -1.275  10.179  18.933  0.00  0.00    +0.000 OA
ATOM      9  N   UNL     1       0.772  10.411  20.006  0.00  0.00    +0.000 N 
ATOM     10  H   UNL     1       1.340  11.069  20.528  0.00  0.00    +0.000 HD
BRANCH   7  15
ATOM     11  C   UNL     1      -1.293  16.616  19.846  0.00  0.00    +0.000 C 
ATOM     12  C   UNL     1      -1.089  15.133  19.738  0.00  0.00    +0.000 A 
ATOM     13  C   UNL     1      -0.195  14.596  18.807  0.00  0.00    +0.000 A 
ATOM     14  C   UNL     1      -0.001  13.214  18.730  0.00  0.00    +0.000 A 
ATOM     15  C   UNL     1      -0.697  12.340  19.581  0.00  0.00    +0.000 A 
ATOM     16  C   UNL     1      -1.594  12.884  20.501  0.00  0.00    +0.000 A 
ATOM     17  F   UNL     1      -2.295  12.098  21.331  0.00  0.00    +0.000 F 
ATOM     18  C   UNL     1      -1.789  14.265  20.585  0.00  0.00    +0.000 A 
ENDBRANCH   7  15
ENDBRANCH   1   9
BRANCH   4  19
ATOM     19  C   UNL     1       2.983   5.107  19.727  0.00  0.00    +0.000 C 
BRANCH  19  20
ATOM     20  N   UNL     1       4.231   5.086  18.967  0.00  0.00    +0.000 N 
ATOM     21  N   UNL     1       5.355   5.529  19.572  0.00  0.00    +0.000 NA
ATOM     22  C   UNL     1       6.332   5.306  18.693  0.00  0.00    +0.000 A 
ATOM     23  C   UNL     1       7.731   5.684  19.017  0.00  0.00    +0.000 C 
ATOM     24  C   UNL     1       5.851   4.646  17.532  0.00  0.00    +0.000 A 
ATOM     25  C   UNL     1       4.490   4.486  17.753  0.00  0.00    +0.000 A 
ATOM     26  C   UNL     1       3.464   3.830  16.898  0.00  0.00    +0.000 C 
BRANCH  24  27
ATOM     27  C   UNL     1       6.660   4.191  16.358  0.00  0.00    +0.000 C 
BRANCH  27  28
ATOM     28  C   UNL     1       6.801   5.196  15.232  0.00  0.00    +0.000 C 
ATOM     29  O   UNL     1       7.841   5.310  14.591  0.00  0.00    +0.000 OA
BRANCH  28  30
ATOM     30  O   UNL     1       5.725   5.962  14.948  0.00  0.00    +0.000 OA
ATOM     31  H   UNL     1       5.933   6.865  14.639  0.00  0.00    +0.000 HD
ENDBRANCH  28  30
ENDBRANCH  27  28
ENDBRANCH  24  27
ENDBRANCH  19  20
ENDBRANCH   4  19
TORSDOF 7
ENDMDL
MODEL 4
REMARK VINA RESULT:      -7.8      1.110      1.752
REMARK  Name = 
REMARK  10 active torsions:
REMARK  status: ('A' for Active; 'I' for Inactive)
REMARK    1  A    between atoms: C_1  and  C_2
REMARK    2  A    between atoms: C_5  and  C_6
REMARK    3  A    between atoms: N_8  and  C_9
REMARK    4  A    between atoms: C_12  and  C_13
REMARK    5  A    between atoms: C_13  and  N_14
REMARK    6  A    between atoms: C_16  and  C_17
REMARK    7  A    between atoms: C_18  and  C_19
REMARK    8  A    between atoms: C_19  and  C_20
REMARK    9  A    between atoms: C_20  and  O_22
REMARK   10  A    between atoms: C_23  and  C_24
REMARK                            x       y       z     vdW  Elec       q    Type
REMARK                         _______ _______ _______ _____ _____    ______ ____
ROOT
ATOM      1  C   UNL     1       0.609   9.725  20.035  0.00  0.00    +0.000 A 
ATOM      2  C   UNL     1       1.141   8.595  20.656  0.00  0.00    +0.000 A 
ATOM      3  C   UNL     1       1.981   7.718  19.961  0.00  0.00    +0.000 A 
ATOM      4  C   UNL     1       2.309   7.950  18.621  0.00  0.00    +0.000 A 
ATOM      5  C   UNL     1       1.742   9.062  17.984  0.00  0.00    +0.000 A 
ATOM      6  C   UNL     1       0.898   9.939  18.683  0.00  0.00    +0.000 A 
ENDROOT
BRANCH   1   9
ATOM      7  C   UNL     1       0.213  11.810  21.354  0.00  0.00    +0.000 C 
ATOM      8  O   UNL     1       1.371  12.219  21.390  0.00  0.00    +0.000 OA
ATOM      9  N   UNL     1      -0.212  10.665  20.700  0.00  0.00    +0.000 N 
ATOM     10  H   UNL     1      -1.211  10.501  20.644  0.00  0.00    +0.000 HD
BRANCH   7  15
ATOM     11  C   UNL     1      -3.966  14.837  24.043  0.00  0.00    +0.000 C 
ATOM     12  C   UNL     1      -2.872  14.066  23.365  0.00  0.00    +0.000 A 
ATOM     13  C   UNL     1      -2.739  12.688  23.555  0.00  0.00    +0.000 A 
ATOM     14  C   UNL     1      -1.726  11.979  22.902  0.00  0.00    +0.000 A 
ATOM     15  C   UNL     1      -0.824  12.632  22.047  0.00  0.00    +0.000 A 
ATOM     16  C   UNL     1      -0.959  14.010  21.870  0.00  0.00    +0.000 A 
ATOM     17  F   UNL     1      -0.120  14.690  21.074  0.00  0.00    +0.000 F 
ATOM     18  C   UNL     1      -1.972  14.723  22.517  0.00  0.00    +0.000 A 
ENDBRANCH   7  15
ENDBRANCH   1   9
BRANCH   4  19
ATOM     19  C   UNL     1       3.294   7.063  17.902  0.00  0.00    +0.000 C 
BRANCH  19  20
ATOM     20  N   UNL     1       3.222   5.659  18.300  0.00  0.00    +0.000 N 
ATOM     21  N   UNL     1       2.065   4.994  18.086  0.00  0.00    +0.000 NA
ATOM     22  C   UNL     1       2.318   3.736  18.450  0.00  0.00    +0.000 A 
ATOM     23  C   UNL     1       1.254   2.703  18.360  0.00  0.00    +0.000 C 
ATOM     24  C   UNL     1       3.673   3.564  18.834  0.00  0.00    +0.000 A 
ATOM     25  C   UNL     1       4.244   4.822  18.695  0.00  0.00    +0.000 A 
ATOM     26  C   UNL     1       5.650   5.253  18.921  0.00  0.00    +0.000 C 
BRANCH  24  27
ATOM     27  C   UNL     1       4.333   2.288  19.253  0.00  0.00    +0.000 C 
BRANCH  27  28
ATOM     28  C   UNL     1       4.397   2.045  20.748  0.00  0.00    +0.000 C 
ATOM     29  O   UNL     1       5.373   1.525  21.279  0.00  0.00    +0.000 OA
BRANCH  28  30
ATOM     30  O   UNL     1       3.335   2.436  21.485  0.00  0.00    +0.000 OA
ATOM     31  H   UNL     1       2.623   1.772  21.568  0.00  0.00    +0.000 HD
ENDBRANCH  28  30
ENDBRANCH  27  28
ENDBRANCH  24  27
ENDBRANCH  19  20
ENDBRANCH   4  19
TORSDOF 7
ENDMDL
MODEL 5
REMARK VINA RESULT:      -7.7      5.974      8.516
REMARK  Name = 
REMARK  10 active torsions:
REMARK  status: ('A' for Active; 'I' for Inactive)
REMARK    1  A    between atoms: C_1  and  C_2
REMARK    2  A    between atoms: C_5  and  C_6
REMARK    3  A    between atoms: N_8  and  C_9
REMARK    4  A    between atoms: C_12  and  C_13
REMARK    5  A    between atoms: C_13  and  N_14
REMARK    6  A    between atoms: C_16  and  C_17
REMARK    7  A    between atoms: C_18  and  C_19
REMARK    8  A    between atoms: C_19  and  C_20
REMARK    9  A    between atoms: C_20  and  O_22
REMARK   10  A    between atoms: C_23  and  C_24
REMARK                            x       y       z     vdW  Elec       q    Type
REMARK                         _______ _______ _______ _____ _____    ______ ____
ROOT
ATOM      1  C   UNL     1       8.067   8.468  17.896  0.00  0.00    +0.000 A 
ATOM      2  C   UNL     1       7.055   7.990  17.062  0.00  0.00    +0.000 A 
ATOM      3  C   UNL     1       6.510   6.716  17.248  0.00  0.00    +0.000 A 
ATOM      4  C   UNL     1       6.965   5.884  18.276  0.00  0.00    +0.000 A 
ATOM      5  C   UNL     1       8.010   6.346  19.088  0.00  0.00    +0.000 A 
ATOM      6  C   UNL     1       8.557   7.624  18.898  0.00  0.00    +0.000 A 
ENDROOT
BRANCH   1   9
ATOM      7  C   UNL     1       9.157  10.524  18.808  0.00  0.00    +0.000 C 
ATOM      8  O   UNL     1       9.288  10.154  19.971  0.00  0.00    +0.000 OA
ATOM      9  N   UNL     1       8.627   9.762  17.779  0.00  0.00    +0.000 N 
ATOM     10  H   UNL     1       8.684  10.138  16.839  0.00  0.00    +0.000 HD
BRANCH   7  15
ATOM     11  C   UNL     1      11.228  15.781  17.421  0.00  0.00    +0.000 C 
ATOM     12  C   UNL     1      10.673  14.432  17.769  0.00  0.00    +0.000 A 
ATOM     13  C   UNL     1      11.038  13.295  17.043  0.00  0.00    +0.000 A 
ATOM     14  C   UNL     1      10.527  12.040  17.390  0.00  0.00    +0.000 A 
ATOM     15  C   UNL     1       9.639  11.897  18.469  0.00  0.00    +0.000 A 
ATOM     16  C   UNL     1       9.273  13.039  19.182  0.00  0.00    +0.000 A 
ATOM     17  F   UNL     1       8.420  12.965  20.215  0.00  0.00    +0.000 F 
ATOM     18  C   UNL     1       9.784  14.295  18.842  0.00  0.00    +0.000 A 
ENDBRANCH   7  15
ENDBRANCH   1   9
BRANCH   4  19
ATOM     19  C   UNL     1       6.308   4.552  18.540  0.00  0.00    +0.000 C 
BRANCH  19  20
ATOM     20  N   UNL     1       4.867   4.642  18.770  0.00  0.00    +0.000 N 
ATOM     21  N   UNL     1       4.396   5.702  19.462  0.00  0.00    +0.000 NA
ATOM     22  C   UNL     1       3.069   5.571  19.434  0.00  0.00    +0.000 A 
ATOM     23  C   UNL     1       2.203   6.568  20.114  0.00  0.00    +0.000 C 
ATOM     24  C   UNL     1       2.670   4.455  18.654  0.00  0.00    +0.000 A 
ATOM     25  C   UNL     1       3.857   3.890  18.209  0.00  0.00    +0.000 A 
ATOM     26  C   UNL     1       4.072   2.713  17.324  0.00  0.00    +0.000 C 
BRANCH  24  27
ATOM     27  C   UNL     1       1.268   4.024  18.354  0.00  0.00    +0.000 C 
BRANCH  27  28
ATOM     28  C   UNL     1       0.787   2.796  19.103  0.00  0.00    +0.000 C 
ATOM     29  O   UNL     1       0.839   2.721  20.326  0.00  0.00    +0.000 OA
BRANCH  28  30
ATOM     30  O   UNL     1       0.282   1.781  18.368  0.00  0.00    +0.000 OA
ATOM     31  H   UNL     1      -0.642   1.903  18.077  0.00  0.00    +0.000 HD
ENDBRANCH  28  30
ENDBRANCH  27  28
ENDBRANCH  24  27
ENDBRANCH  19  20
ENDBRANCH   4  19
TORSDOF 7
ENDMDL
MODEL 6
REMARK VINA RESULT:      -7.6      3.199     10.192
REMARK  Name = 
REMARK  10 active torsions:
REMARK  status: ('A' for Active; 'I' for Inactive)
REMARK    1  A    between atoms: C_1  and  C_2
REMARK    2  A    between atoms: C_5  and  C_6
REMARK    3  A    between atoms: N_8  and  C_9
REMARK    4  A    between atoms: C_12  and  C_13
REMARK    5  A    between atoms: C_13  and  N_14
REMARK    6  A    between atoms: C_16  and  C_17
REMARK    7  A    between atoms: C_18  and  C_19
REMARK    8  A    between atoms: C_19  and  C_20
REMARK    9  A    between atoms: C_20  and  O_22
REMARK   10  A    between atoms: C_23  and  C_24
REMARK                            x       y       z     vdW  Elec       q    Type
REMARK                         _______ _______ _______ _____ _____    ______ ____
ROOT
ATOM      1  C   UNL     1       1.064   9.740  18.132  0.00  0.00    +0.000 A 
ATOM      2  C   UNL     1      -0.331   9.735  18.148  0.00  0.00    +0.000 A 
ATOM      3  C   UNL     1      -1.051  10.869  18.537  0.00  0.00    +0.000 A 
ATOM      4  C   UNL     1      -0.392  12.041  18.923  0.00  0.00    +0.000 A 
ATOM      5  C   UNL     1       1.010  12.034  18.947  0.00  0.00    +0.000 A 
ATOM      6  C   UNL     1       1.730  10.894  18.559  0.00  0.00    +0.000 A 
ENDROOT
BRANCH   1   9
ATOM      7  C   UNL     1       2.397   7.662  18.525  0.00  0.00    +0.000 C 
ATOM      8  O   UNL     1       2.229   7.571  19.738  0.00  0.00    +0.000 OA
ATOM      9  N   UNL     1       1.843   8.637  17.710  0.00  0.00    +0.000 N 
ATOM     10  H   UNL     1       1.960   8.532  16.708  0.00  0.00    +0.000 HD
BRANCH   7  15
ATOM     11  C   UNL     1       5.746   3.745  15.825  0.00  0.00    +0.000 C 
ATOM     12  C   UNL     1       4.891   4.747  16.542  0.00  0.00    +0.000 A 
ATOM     13  C   UNL     1       5.236   6.101  16.567  0.00  0.00    +0.000 A 
ATOM     14  C   UNL     1       4.419   7.026  17.224  0.00  0.00    +0.000 A 
ATOM     15  C   UNL     1       3.242   6.618  17.871  0.00  0.00    +0.000 A 
ATOM     16  C   UNL     1       2.910   5.262  17.849  0.00  0.00    +0.000 A 
ATOM     17  F   UNL     1       1.804   4.811  18.460  0.00  0.00    +0.000 F 
ATOM     18  C   UNL     1       3.721   4.333  17.191  0.00  0.00    +0.000 A 
ENDBRANCH   7  15
ENDBRANCH   1   9
BRANCH   4  19
ATOM     19  C   UNL     1      -1.167  13.294  19.243  0.00  0.00    +0.000 C 
BRANCH  19  20
ATOM     20  N   UNL     1      -2.142  13.125  20.319  0.00  0.00    +0.000 N 
ATOM     21  N   UNL     1      -3.434  12.919  19.983  0.00  0.00    +0.000 NA
ATOM     22  C   UNL     1      -4.062  12.707  21.140  0.00  0.00    +0.000 A 
ATOM     23  C   UNL     1      -5.525  12.451  21.162  0.00  0.00    +0.000 C 
ATOM     24  C   UNL     1      -3.158  12.703  22.234  0.00  0.00    +0.000 A 
ATOM     25  C   UNL     1      -1.914  12.944  21.667  0.00  0.00    +0.000 A 
ATOM     26  C   UNL     1      -0.577  13.020  22.315  0.00  0.00    +0.000 C 
BRANCH  24  27
ATOM     27  C   UNL     1      -3.488  12.450  23.671  0.00  0.00    +0.000 C 
BRANCH  27  28
ATOM     28  C   UNL     1      -3.948  13.661  24.460  0.00  0.00    +0.000 C 
ATOM     29  O   UNL     1      -3.169  14.339  25.121  0.00  0.00    +0.000 OA
BRANCH  28  30
ATOM     30  O   UNL     1      -5.260  13.978  24.398  0.00  0.00    +0.000 OA
ATOM     31  H   UNL     1      -5.477  14.889  24.674  0.00  0.00    +0.000 HD
ENDBRANCH  28  30
ENDBRANCH  27  28
ENDBRANCH  24  27
ENDBRANCH  19  20
ENDBRANCH   4  19
TORSDOF 7
ENDMDL
MODEL 7
REMARK VINA RESULT:      -7.6      6.287      8.535
REMARK  Name = 
REMARK  10 active torsions:
REMARK  status: ('A' for Active; 'I' for Inactive)
REMARK    1  A    between atoms: C_1  and  C_2
REMARK    2  A    between atoms: C_5  and  C_6
REMARK    3  A    between atoms: N_8  and  C_9
REMARK    4  A    between atoms: C_12  and  C_13
REMARK    5  A    between atoms: C_13  and  N_14
REMARK    6  A    between atoms: C_16  and  C_17
REMARK    7  A    between atoms: C_18  and  C_19
REMARK    8  A    between atoms: C_19  and  C_20
REMARK    9  A    between atoms: C_20  and  O_22
REMARK   10  A    between atoms: C_23  and  C_24
REMARK                            x       y       z     vdW  Elec       q    Type
REMARK                         _______ _______ _______ _____ _____    ______ ____
ROOT
ATOM      1  C   UNL     1       8.178   8.828  18.016  0.00  0.00    +0.000 A 
ATOM      2  C   UNL     1       8.625   7.965  19.018  0.00  0.00    +0.000 A 
ATOM      3  C   UNL     1       8.162   6.647  19.093  0.00  0.00    +0.000 A 
ATOM      4  C   UNL     1       7.237   6.157  18.165  0.00  0.00    +0.000 A 
ATOM      5  C   UNL     1       6.756   7.035  17.183  0.00  0.00    +0.000 A 
ATOM      6  C   UNL     1       7.220   8.357  17.112  0.00  0.00    +0.000 A 
ENDROOT
BRANCH   1   9
ATOM      7  C   UNL     1       9.391  10.873  18.788  0.00  0.00    +0.000 C 
ATOM      8  O   UNL     1       9.831  10.429  19.845  0.00  0.00    +0.000 OA
ATOM      9  N   UNL     1       8.641  10.156  17.869  0.00  0.00    +0.000 N 
ATOM     10  H   UNL     1       8.439  10.601  16.980  0.00  0.00    +0.000 HD
BRANCH   7  15
ATOM     11  C   UNL     1      10.867  16.331  17.417  0.00  0.00    +0.000 C 
ATOM     12  C   UNL     1      10.464  14.927  17.761  0.00  0.00    +0.000 A 
ATOM     13  C   UNL     1      10.966  13.839  17.042  0.00  0.00    +0.000 A 
ATOM     14  C   UNL     1      10.596  12.535  17.385  0.00  0.00    +0.000 A 
ATOM     15  C   UNL     1       9.718  12.292  18.452  0.00  0.00    +0.000 A 
ATOM     16  C   UNL     1       9.214  13.385  19.159  0.00  0.00    +0.000 A 
ATOM     17  F   UNL     1       8.362  13.215  20.181  0.00  0.00    +0.000 F 
ATOM     18  C   UNL     1       9.583  14.690  18.823  0.00  0.00    +0.000 A 
ENDBRANCH   7  15
ENDBRANCH   1   9
BRANCH   4  19
ATOM     19  C   UNL     1       6.817   4.709  18.184  0.00  0.00    +0.000 C 
BRANCH  19  20
ATOM     20  N   UNL     1       5.393   4.512  18.450  0.00  0.00    +0.000 N 
ATOM     21  N   UNL     1       4.880   5.026  19.589  0.00  0.00    +0.000 NA
ATOM     22  C   UNL     1       3.571   4.781  19.519  0.00  0.00    +0.000 A 
ATOM     23  C   UNL     1       2.670   5.203  20.622  0.00  0.00    +0.000 C 
ATOM     24  C   UNL     1       3.218   4.167  18.289  0.00  0.00    +0.000 A 
ATOM     25  C   UNL     1       4.417   4.034  17.602  0.00  0.00    +0.000 A 
ATOM     26  C   UNL     1       4.672   3.489  16.241  0.00  0.00    +0.000 C 
BRANCH  24  27
ATOM     27  C   UNL     1       1.843   3.791  17.835  0.00  0.00    +0.000 C 
BRANCH  27  28
ATOM     28  C   UNL     1       1.293   2.501  18.411  0.00  0.00    +0.000 C 
ATOM     29  O   UNL     1       0.088   2.291  18.499  0.00  0.00    +0.000 OA
BRANCH  28  30
ATOM     30  O   UNL     1       2.189   1.574  18.817  0.00  0.00    +0.000 OA
ATOM     31  H   UNL     1       2.592   1.048  18.099  0.00  0.00    +0.000 HD
ENDBRANCH  28  30
ENDBRANCH  27  28
ENDBRANCH  24  27
ENDBRANCH  19  20
ENDBRANCH   4  19
TORSDOF 7
ENDMDL
MODEL 8
REMARK VINA RESULT:      -7.6      3.172      4.216
REMARK  Name = 
REMARK  10 active torsions:
REMARK  status: ('A' for Active; 'I' for Inactive)
REMARK    1  A    between atoms: C_1  and  C_2
REMARK    2  A    between atoms: C_5  and  C_6
REMARK    3  A    between atoms: N_8  and  C_9
REMARK    4  A    between atoms: C_12  and  C_13
REMARK    5  A    between atoms: C_13  and  N_14
REMARK    6  A    between atoms: C_16  and  C_17
REMARK    7  A    between atoms: C_18  and  C_19
REMARK    8  A    between atoms: C_19  and  C_20
REMARK    9  A    between atoms: C_20  and  O_22
REMARK   10  A    between atoms: C_23  and  C_24
REMARK                            x       y       z     vdW  Elec       q    Type
REMARK                         _______ _______ _______ _____ _____    ______ ____
ROOT
ATOM      1  C   UNL     1       1.305   9.193  19.897  0.00  0.00    +0.000 A 
ATOM      2  C   UNL     1       1.156   8.310  20.967  0.00  0.00    +0.000 A 
ATOM      3  C   UNL     1       1.624   6.994  20.887  0.00  0.00    +0.000 A 
ATOM      4  C   UNL     1       2.254   6.526  19.730  0.00  0.00    +0.000 A 
ATOM      5  C   UNL     1       2.367   7.399  18.638  0.00  0.00    +0.000 A 
ATOM      6  C   UNL     1       1.895   8.717  18.720  0.00  0.00    +0.000 A 
ENDROOT
BRANCH   1   9
ATOM      7  C   UNL     1      -0.307  11.049  19.447  0.00  0.00    +0.000 C 
ATOM      8  O   UNL     1      -1.219  10.380  18.970  0.00  0.00    +0.000 OA
ATOM      9  N   UNL     1       0.887  10.543  19.936  0.00  0.00    +0.000 N 
ATOM     10  H   UNL     1       1.508  11.187  20.414  0.00  0.00    +0.000 HD
BRANCH   7  15
ATOM     11  C   UNL     1      -1.338  16.762  19.836  0.00  0.00    +0.000 C 
ATOM     12  C   UNL     1      -1.052  15.292  19.748  0.00  0.00    +0.000 A 
ATOM     13  C   UNL     1      -1.771  14.372  20.516  0.00  0.00    +0.000 A 
ATOM     14  C   UNL     1      -1.506  13.004  20.410  0.00  0.00    +0.000 A 
ATOM     15  C   UNL     1      -0.516  12.526  19.537  0.00  0.00    +0.000 A 
ATOM     16  C   UNL     1       0.204  13.453  18.781  0.00  0.00    +0.000 A 
ATOM     17  F   UNL     1       1.169  13.056  17.938  0.00  0.00    +0.000 F 
ATOM     18  C   UNL     1      -0.059  14.821  18.880  0.00  0.00    +0.000 A 
ENDBRANCH   7  15
ENDBRANCH   1   9
BRANCH   4  19
ATOM     19  C   UNL     1       2.849   5.141  19.680  0.00  0.00    +0.000 C 
BRANCH  19  20
ATOM     20  N   UNL     1       4.037   5.040  18.834  0.00  0.00    +0.000 N 
ATOM     21  N   UNL     1       5.204   5.525  19.312  0.00  0.00    +0.000 NA
ATOM     22  C   UNL     1       6.111   5.215  18.386  0.00  0.00    +0.000 A 
ATOM     23  C   UNL     1       7.533   5.606  18.570  0.00  0.00    +0.000 C 
ATOM     24  C   UNL     1       5.544   4.456  17.330  0.00  0.00    +0.000 A 
ATOM     25  C   UNL     1       4.202   4.331  17.664  0.00  0.00    +0.000 A 
ATOM     26  C   UNL     1       3.113   3.610  16.951  0.00  0.00    +0.000 C 
BRANCH  24  27
ATOM     27  C   UNL     1       6.261   3.890  16.144  0.00  0.00    +0.000 C 
BRANCH  27  28
ATOM     28  C   UNL     1       6.189   4.720  14.878  0.00  0.00    +0.000 C 
ATOM     29  O   UNL     1       6.001   5.932  14.907  0.00  0.00    +0.000 OA
BRANCH  28  30
ATOM     30  O   UNL     1       6.354   4.073  13.703  0.00  0.00    +0.000 OA
ATOM     31  H   UNL     1       5.527   3.869  13.226  0.00  0.00    +0.000 HD
ENDBRANCH  28  30
ENDBRANCH  27  28
ENDBRANCH  24  27
ENDBRANCH  19  20
ENDBRANCH   4  19
TORSDOF 7
ENDMDL
MODEL 9
REMARK VINA RESULT:      -7.6      3.284      4.326
REMARK  Name = 
REMARK  10 active torsions:
REMARK  status: ('A' for Active; 'I' for Inactive)
REMARK    1  A    between atoms: C_1  and  C_2
REMARK    2  A    between atoms: C_5  and  C_6
REMARK    3  A    between atoms: N_8  and  C_9
REMARK    4  A    between atoms: C_12  and  C_13
REMARK    5  A    between atoms: C_13  and  N_14
REMARK    6  A    between atoms: C_16  and  C_17
REMARK    7  A    between atoms: C_18  and  C_19
REMARK    8  A    between atoms: C_19  and  C_20
REMARK    9  A    between atoms: C_20  and  O_22
REMARK   10  A    between atoms: C_23  and  C_24
REMARK                            x       y       z     vdW  Elec       q    Type
REMARK                         _______ _______ _______ _____ _____    ______ ____
ROOT
ATOM      1  C   UNL     1       1.414   9.562  19.289  0.00  0.00    +0.000 A 
ATOM      2  C   UNL     1       1.182   8.818  20.446  0.00  0.00    +0.000 A 
ATOM      3  C   UNL     1       1.593   7.484  20.540  0.00  0.00    +0.000 A 
ATOM      4  C   UNL     1       2.248   6.858  19.475  0.00  0.00    +0.000 A 
ATOM      5  C   UNL     1       2.444   7.591  18.296  0.00  0.00    +0.000 A 
ATOM      6  C   UNL     1       2.029   8.928  18.203  0.00  0.00    +0.000 A 
ENDROOT
BRANCH   1   9
ATOM      7  C   UNL     1       1.098  11.887  20.147  0.00  0.00    +0.000 C 
ATOM      8  O   UNL     1       1.527  11.716  21.285  0.00  0.00    +0.000 OA
ATOM      9  N   UNL     1       1.056  10.923  19.153  0.00  0.00    +0.000 N 
ATOM     10  H   UNL     1       0.791  11.222  18.221  0.00  0.00    +0.000 HD
BRANCH   7  15
ATOM     11  C   UNL     1      -1.004  17.140  18.790  0.00  0.00    +0.000 C 
ATOM     12  C   UNL     1      -0.447  15.796  19.155  0.00  0.00    +0.000 A 
ATOM     13  C   UNL     1      -1.172  14.911  19.958  0.00  0.00    +0.000 A 
ATOM     14  C   UNL     1      -0.648  13.654  20.275  0.00  0.00    +0.000 A 
ATOM     15  C   UNL     1       0.612  13.257  19.799  0.00  0.00    +0.000 A 
ATOM     16  C   UNL     1       1.332  14.151  19.006  0.00  0.00    +0.000 A 
ATOM     17  F   UNL     1       2.546  13.831  18.531  0.00  0.00    +0.000 F 
ATOM     18  C   UNL     1       0.812  15.407  18.682  0.00  0.00    +0.000 A 
ENDBRANCH   7  15
ENDBRANCH   1   9
BRANCH   4  19
ATOM     19  C   UNL     1       2.781   5.454  19.613  0.00  0.00    +0.000 C 
BRANCH  19  20
ATOM     20  N   UNL     1       3.919   5.167  18.741  0.00  0.00    +0.000 N 
ATOM     21  N   UNL     1       5.139   5.607  19.119  0.00  0.00    +0.000 NA
ATOM     22  C   UNL     1       5.979   5.127  18.201  0.00  0.00    +0.000 A 
ATOM     23  C   UNL     1       7.432   5.422  18.288  0.00  0.00    +0.000 C 
ATOM     24  C   UNL     1       5.308   4.306  17.257  0.00  0.00    +0.000 A 
ATOM     25  C   UNL     1       3.978   4.324  17.652  0.00  0.00    +0.000 A 
ATOM     26  C   UNL     1       2.807   3.620  17.064  0.00  0.00    +0.000 C 
BRANCH  24  27
ATOM     27  C   UNL     1       5.927   3.559  16.117  0.00  0.00    +0.000 C 
BRANCH  27  28
ATOM     28  C   UNL     1       6.093   4.346  14.832  0.00  0.00    +0.000 C 
ATOM     29  O   UNL     1       6.042   5.571  14.811  0.00  0.00    +0.000 OA
BRANCH  28  30
ATOM     30  O   UNL     1       6.313   3.643  13.700  0.00  0.00    +0.000 OA
ATOM     31  H   UNL     1       5.513   3.445  13.175  0.00  0.00    +0.000 HD
ENDBRANCH  28  30
ENDBRANCH  27  28
ENDBRANCH  24  27
ENDBRANCH  19  20
ENDBRANCH   4  19
TORSDOF 7
ENDMDL
