MODEL 1
REMARK VINA RESULT:      -7.3      0.000      0.000
REMARK  Name = 
REMARK  9 active torsions:
REMARK  status: ('A' for Active; 'I' for Inactive)
REMARK    1  A    between atoms: C_1  and  C_2
REMARK    2  A    between atoms: C_2  and  C_3
REMARK    3  A    between atoms: C_2  and  C_4
REMARK    4  A    between atoms: C_4  and  N_5
REMARK    5  A    between atoms: N_5  and  N_6
REMARK    6  A    between atoms: N_5  and  C_17
REMARK    7  A    between atoms: C_7  and  C_9
REMARK    8  A    between atoms: C_9  and  C_10
REMARK    9  A    between atoms: C_19  and  C_20
REMARK                            x       y       z     vdW  Elec       q    Type
REMARK                         _______ _______ _______ _____ _____    ______ ____
ROOT
ATOM      1  N   UNL     1       3.302   4.586  18.102  0.00  0.00    +0.000 N 
ENDROOT
BRANCH   1   2
ATOM      2  C   UNL     1       2.724   5.630  18.868  0.00  0.00    +0.000 A 
ATOM      3  N   UNL     1       2.597   6.813  18.207  0.00  0.00    +0.000 NA
ATOM      4  C   UNL     1       2.125   7.885  18.862  0.00  0.00    +0.000 A 
ATOM      5  N   UNL     1       1.707   7.898  20.135  0.00  0.00    +0.000 NA
ATOM      6  C   UNL     1       1.801   6.719  20.768  0.00  0.00    +0.000 A 
ATOM      7  C   UNL     1       2.300   5.555  20.201  0.00  0.00    +0.000 A 
ATOM      8 BR   UNL     1       2.212   4.046  21.345  0.00  0.00    +0.000 Br
BRANCH   4   9
ATOM      9  C   UNL     1       2.072   9.142  18.164  0.00  0.00    +0.000 C 
ATOM     10  N   UNL     1       2.035  10.135  17.551  0.00  0.00    +0.000 NA
ENDBRANCH   4   9
ENDBRANCH   1   2
BRANCH   1  11
ATOM     11  N   UNL     1       4.487   5.012  17.437  0.00  0.00    +0.000 N 
ATOM     12  C   UNL     1       5.743   4.681  17.943  0.00  0.00    +0.000 C 
ATOM     13  O   UNL     1       5.953   4.003  18.946  0.00  0.00    +0.000 OA
ATOM     14  H   UNL     1       4.369   5.649  16.658  0.00  0.00    +0.000 HD
BRANCH  12  15
ATOM     15  C   UNL     1       6.893   5.223  17.097  0.00  0.00    +0.000 C 
BRANCH  15  16
ATOM     16  C   UNL     1       6.804   4.805  15.645  0.00  0.00    +0.000 A 
ATOM     17  C   UNL     1       5.909   3.802  15.236  0.00  0.00    +0.000 A 
ATOM     18  C   UNL     1       5.834   3.427  13.893  0.00  0.00    +0.000 A 
ATOM     19  C   UNL     1       6.648   4.054  12.956  0.00  0.00    +0.000 A 
ATOM     20  F   UNL     1       6.575   3.688  11.670  0.00  0.00    +0.000 F 
ATOM     21  C   UNL     1       7.531   5.054  13.336  0.00  0.00    +0.000 A 
ATOM     22  C   UNL     1       7.606   5.433  14.676  0.00  0.00    +0.000 A 
ENDBRANCH  15  16
ENDBRANCH  12  15
ENDBRANCH   1  11
BRANCH   1  23
ATOM     23  C   UNL     1       2.410   3.717  17.325  0.00  0.00    +0.000 C 
BRANCH  23  25
ATOM     24  C   UNL     1       3.433   1.726  18.588  0.00  0.00    +0.000 C 
ATOM     25  C   UNL     1       2.247   2.263  17.793  0.00  0.00    +0.000 C 
ATOM     26  C   UNL     1       0.983   2.201  18.671  0.00  0.00    +0.000 C 
ENDBRANCH  23  25
ENDBRANCH   1  23
TORSDOF 7
ENDMDL
MODEL 2
REMARK VINA RESULT:      -7.1      3.792      7.205
REMARK  Name = 
REMARK  9 active torsions:
REMARK  status: ('A' for Active; 'I' for Inactive)
REMARK    1  A    between atoms: C_1  and  C_2
REMARK    2  A    between atoms: C_2  and  C_3
REMARK    3  A    between atoms: C_2  and  C_4
REMARK    4  A    between atoms: C_4  and  N_5
REMARK    5  A    between atoms: N_5  and  N_6
REMARK    6  A    between atoms: N_5  and  C_17
REMARK    7  A    between atoms: C_7  and  C_9
REMARK    8  A    between atoms: C_9  and  C_10
REMARK    9  A    between atoms: C_19  and  C_20
REMARK                            x       y       z     vdW  Elec       q    Type
REMARK                         _______ _______ _______ _____ _____    ______ ____
ROOT
ATOM      1  N   UNL     1       4.219   5.073  18.221  0.00  0.00    +0.000 N 
ENDROOT
BRANCH   1   2
ATOM      2  C   UNL     1       5.396   4.880  17.455  0.00  0.00    +0.000 A 
ATOM      3  N   UNL     1       5.176   4.552  16.153  0.00  0.00    +0.000 NA
ATOM      4  C   UNL     1       6.221   4.281  15.356  0.00  0.00    +0.000 A 
ATOM      5  N   UNL     1       7.511   4.346  15.715  0.00  0.00    +0.000 NA
ATOM      6  C   UNL     1       7.720   4.706  16.990  0.00  0.00    +0.000 A 
ATOM      7  C   UNL     1       6.717   4.981  17.908  0.00  0.00    +0.000 A 
ATOM      8 BR   UNL     1       7.361   5.542  19.602  0.00  0.00    +0.000 Br
BRANCH   4   9
ATOM      9  C   UNL     1       5.959   3.863  14.005  0.00  0.00    +0.000 C 
ATOM     10  N   UNL     1       5.791   3.548  12.893  0.00  0.00    +0.000 NA
ENDBRANCH   4   9
ENDBRANCH   1   2
BRANCH   1  11
ATOM     11  N   UNL     1       3.877   6.452  18.328  0.00  0.00    +0.000 N 
ATOM     12  C   UNL     1       2.600   6.894  17.987  0.00  0.00    +0.000 C 
ATOM     13  O   UNL     1       1.676   6.181  17.604  0.00  0.00    +0.000 OA
ATOM     14  H   UNL     1       4.629   7.092  18.551  0.00  0.00    +0.000 HD
BRANCH  12  15
ATOM     15  C   UNL     1       2.419   8.400  18.166  0.00  0.00    +0.000 C 
BRANCH  15  16
ATOM     16  C   UNL     1       1.527   8.752  19.337  0.00  0.00    +0.000 A 
ATOM     17  C   UNL     1       1.623   8.053  20.552  0.00  0.00    +0.000 A 
ATOM     18  C   UNL     1       0.796   8.390  21.626  0.00  0.00    +0.000 A 
ATOM     19  C   UNL     1      -0.122   9.425  21.492  0.00  0.00    +0.000 A 
ATOM     20  F   UNL     1      -0.915   9.741  22.525  0.00  0.00    +0.000 F 
ATOM     21  C   UNL     1      -0.225  10.135  20.305  0.00  0.00    +0.000 A 
ATOM     22  C   UNL     1       0.601   9.804  19.232  0.00  0.00    +0.000 A 
ENDBRANCH  15  16
ENDBRANCH  12  15
ENDBRANCH   1  11
BRANCH   1  23
ATOM     23  C   UNL     1       4.043   4.274  19.440  0.00  0.00    +0.000 C 
BRANCH  23  25
ATOM     24  C   UNL     1       1.600   4.044  20.202  0.00  0.00    +0.000 C 
ATOM     25  C   UNL     1       2.798   3.380  19.532  0.00  0.00    +0.000 C 
ATOM     26  C   UNL     1       2.412   2.979  18.096  0.00  0.00    +0.000 C 
ENDBRANCH  23  25
ENDBRANCH   1  23
TORSDOF 7
ENDMDL
MODEL 3
REMARK VINA RESULT:      -7.1      2.549      3.334
REMARK  Name = 
REMARK  9 active torsions:
REMARK  status: ('A' for Active; 'I' for Inactive)
REMARK    1  A    between atoms: C_1  and  C_2
REMARK    2  A    between atoms: C_2  and  C_3
REMARK    3  A    between atoms: C_2  and  C_4
REMARK    4  A    between atoms: C_4  and  N_5
REMARK    5  A    between atoms: N_5  and  N_6
REMARK    6  A    between atoms: N_5  and  C_17
REMARK    7  A    between atoms: C_7  and  C_9
REMARK    8  A    between atoms: C_9  and  C_10
REMARK    9  A    between atoms: C_19  and  C_20
REMARK                            x       y       z     vdW  Elec       q    Type
REMARK                         _______ _______ _______ _____ _____    ______ ____
ROOT
ATOM      1  N   UNL     1       3.197   4.407  18.152  0.00  0.00    +0.000 N 
ENDROOT
BRANCH   1   2
ATOM      2  C   UNL     1       2.674   5.493  18.899  0.00  0.00    +0.000 A 
ATOM      3  N   UNL     1       2.581   6.662  18.207  0.00  0.00    +0.000 NA
ATOM      4  C   UNL     1       2.163   7.769  18.839  0.00  0.00    +0.000 A 
ATOM      5  N   UNL     1       1.770   7.833  20.119  0.00  0.00    +0.000 NA
ATOM      6  C   UNL     1       1.831   6.670  20.783  0.00  0.00    +0.000 A 
ATOM      7  C   UNL     1       2.273   5.472  20.240  0.00  0.00    +0.000 A 
ATOM      8 BR   UNL     1       2.150   4.000  21.428  0.00  0.00    +0.000 Br
BRANCH   4   9
ATOM      9  C   UNL     1       2.145   9.007  18.106  0.00  0.00    +0.000 C 
ATOM     10  N   UNL     1       2.180  10.002  17.497  0.00  0.00    +0.000 NA
ENDBRANCH   4   9
ENDBRANCH   1   2
BRANCH   1  11
ATOM     11  N   UNL     1       4.423   4.746  17.512  0.00  0.00    +0.000 N 
ATOM     12  C   UNL     1       5.644   4.418  18.099  0.00  0.00    +0.000 C 
ATOM     13  O   UNL     1       5.788   3.814  19.158  0.00  0.00    +0.000 OA
ATOM     14  H   UNL     1       4.360   5.325  16.683  0.00  0.00    +0.000 HD
BRANCH  12  15
ATOM     15  C   UNL     1       6.847   4.861  17.268  0.00  0.00    +0.000 C 
BRANCH  15  16
ATOM     16  C   UNL     1       7.384   6.213  17.684  0.00  0.00    +0.000 A 
ATOM     17  C   UNL     1       7.134   7.358  16.910  0.00  0.00    +0.000 A 
ATOM     18  C   UNL     1       7.633   8.601  17.307  0.00  0.00    +0.000 A 
ATOM     19  C   UNL     1       8.376   8.705  18.477  0.00  0.00    +0.000 A 
ATOM     20  F   UNL     1       8.855   9.898  18.851  0.00  0.00    +0.000 F 
ATOM     21  C   UNL     1       8.625   7.589  19.263  0.00  0.00    +0.000 A 
ATOM     22  C   UNL     1       8.126   6.347  18.872  0.00  0.00    +0.000 A 
ENDBRANCH  15  16
ENDBRANCH  12  15
ENDBRANCH   1  11
BRANCH   1  23
ATOM     23  C   UNL     1       2.265   3.595  17.360  0.00  0.00    +0.000 C 
BRANCH  23  25
ATOM     24  C   UNL     1       3.186   1.517  18.560  0.00  0.00    +0.000 C 
ATOM     25  C   UNL     1       2.014   2.150  17.816  0.00  0.00    +0.000 C 
ATOM     26  C   UNL     1       0.781   2.166  18.739  0.00  0.00    +0.000 C 
ENDBRANCH  23  25
ENDBRANCH   1  23
TORSDOF 7
ENDMDL
MODEL 4
REMARK VINA RESULT:      -7.1      4.896      8.370
REMARK  Name = 
REMARK  9 active torsions:
REMARK  status: ('A' for Active; 'I' for Inactive)
REMARK    1  A    between atoms: C_1  and  C_2
REMARK    2  A    between atoms: C_2  and  C_3
REMARK    3  A    between atoms: C_2  and  C_4
REMARK    4  A    between atoms: C_4  and  N_5
REMARK    5  A    between atoms: N_5  and  N_6
REMARK    6  A    between atoms: N_5  and  C_17
REMARK    7  A    between atoms: C_7  and  C_9
REMARK    8  A    between atoms: C_9  and  C_10
REMARK    9  A    between atoms: C_19  and  C_20
REMARK                            x       y       z     vdW  Elec       q    Type
REMARK                         _______ _______ _______ _____ _____    ______ ____
ROOT
ATOM      1  N   UNL     1       2.007   6.457  20.233  0.00  0.00    +0.000 N 
ENDROOT
BRANCH   1   2
ATOM      2  C   UNL     1       2.894   6.668  19.148  0.00  0.00    +0.000 A 
ATOM      3  N   UNL     1       3.945   5.805  19.100  0.00  0.00    +0.000 NA
ATOM      4  C   UNL     1       4.882   5.959  18.152  0.00  0.00    +0.000 A 
ATOM      5  N   UNL     1       4.863   6.886  17.184  0.00  0.00    +0.000 NA
ATOM      6  C   UNL     1       3.805   7.710  17.216  0.00  0.00    +0.000 A 
ATOM      7  C   UNL     1       2.794   7.660  18.165  0.00  0.00    +0.000 A 
ATOM      8 BR   UNL     1       1.404   8.916  17.869  0.00  0.00    +0.000 Br
BRANCH   4   9
ATOM      9  C   UNL     1       6.021   5.082  18.169  0.00  0.00    +0.000 C 
ATOM     10  N   UNL     1       6.967   4.399  18.222  0.00  0.00    +0.000 NA
ENDBRANCH   4   9
ENDBRANCH   1   2
BRANCH   1  11
ATOM     11  N   UNL     1       1.941   7.590  21.093  0.00  0.00    +0.000 N 
ATOM     12  C   UNL     1       0.712   8.074  21.535  0.00  0.00    +0.000 C 
ATOM     13  O   UNL     1      -0.385   7.590  21.269  0.00  0.00    +0.000 OA
ATOM     14  H   UNL     1       2.810   8.081  21.267  0.00  0.00    +0.000 HD
BRANCH  12  15
ATOM     15  C   UNL     1       0.840   9.293  22.447  0.00  0.00    +0.000 C 
BRANCH  15  16
ATOM     16  C   UNL     1      -0.179  10.369  22.139  0.00  0.00    +0.000 A 
ATOM     17  C   UNL     1      -1.103  10.787  23.111  0.00  0.00    +0.000 A 
ATOM     18  C   UNL     1      -2.037  11.783  22.816  0.00  0.00    +0.000 A 
ATOM     19  C   UNL     1      -2.047  12.366  21.555  0.00  0.00    +0.000 A 
ATOM     20  F   UNL     1      -2.947  13.318  21.276  0.00  0.00    +0.000 F 
ATOM     21  C   UNL     1      -1.137  11.977  20.583  0.00  0.00    +0.000 A 
ATOM     22  C   UNL     1      -0.201  10.985  20.875  0.00  0.00    +0.000 A 
ENDBRANCH  15  16
ENDBRANCH  12  15
ENDBRANCH   1  11
BRANCH   1  23
ATOM     23  C   UNL     1       2.022   5.148  20.899  0.00  0.00    +0.000 C 
BRANCH  23  25
ATOM     24  C   UNL     1       1.182   3.703  18.947  0.00  0.00    +0.000 C 
ATOM     25  C   UNL     1       1.021   4.090  20.414  0.00  0.00    +0.000 C 
ATOM     26  C   UNL     1       1.216   2.837  21.289  0.00  0.00    +0.000 C 
ENDBRANCH  23  25
ENDBRANCH   1  23
TORSDOF 7
ENDMDL
MODEL 5
REMARK VINA RESULT:      -7.1      3.983      7.160
REMARK  Name = 
REMARK  9 active torsions:
REMARK  status: ('A' for Active; 'I' for Inactive)
REMARK    1  A    between atoms: C_1  and  C_2
REMARK    2  A    between atoms: C_2  and  C_3
REMARK    3  A    between atoms: C_2  and  C_4
REMARK    4  A    between atoms: C_4  and  N_5
REMARK    5  A    between atoms: N_5  and  N_6
REMARK    6  A    between atoms: N_5  and  C_17
REMARK    7  A    between atoms: C_7  and  C_9
REMARK    8  A    between atoms: C_9  and  C_10
REMARK    9  A    between atoms: C_19  and  C_20
REMARK                            x       y       z     vdW  Elec       q    Type
REMARK                         _______ _______ _______ _____ _____    ______ ____
ROOT
ATOM      1  N   UNL     1       4.487   5.617  19.083  0.00  0.00    +0.000 N 
ENDROOT
BRANCH   1   2
ATOM      2  C   UNL     1       3.783   4.388  19.027  0.00  0.00    +0.000 A 
ATOM      3  N   UNL     1       3.079   4.089  20.152  0.00  0.00    +0.000 NA
ATOM      4  C   UNL     1       2.431   2.916  20.231  0.00  0.00    +0.000 A 
ATOM      5  N   UNL     1       2.369   1.995  19.259  0.00  0.00    +0.000 NA
ATOM      6  C   UNL     1       3.035   2.315  18.140  0.00  0.00    +0.000 A 
ATOM      7  C   UNL     1       3.761   3.483  17.959  0.00  0.00    +0.000 A 
ATOM      8 BR   UNL     1       4.511   3.659  16.226  0.00  0.00    +0.000 Br
BRANCH   4   9
ATOM      9  C   UNL     1       1.757   2.589  21.459  0.00  0.00    +0.000 C 
ATOM     10  N   UNL     1       1.189   2.282  22.432  0.00  0.00    +0.000 NA
ENDBRANCH   4   9
ENDBRANCH   1   2
BRANCH   1  11
ATOM     11  N   UNL     1       3.963   6.571  18.164  0.00  0.00    +0.000 N 
ATOM     12  C   UNL     1       2.905   7.401  18.530  0.00  0.00    +0.000 C 
ATOM     13  O   UNL     1       2.358   7.418  19.630  0.00  0.00    +0.000 OA
ATOM     14  H   UNL     1       4.318   6.534  17.217  0.00  0.00    +0.000 HD
BRANCH  12  15
ATOM     15  C   UNL     1       2.479   8.356  17.417  0.00  0.00    +0.000 C 
BRANCH  15  16
ATOM     16  C   UNL     1       1.640   9.511  17.920  0.00  0.00    +0.000 A 
ATOM     17  C   UNL     1       2.237  10.723  18.305  0.00  0.00    +0.000 A 
ATOM     18  C   UNL     1       1.452  11.782  18.764  0.00  0.00    +0.000 A 
ATOM     19  C   UNL     1       0.071  11.637  18.836  0.00  0.00    +0.000 A 
ATOM     20  F   UNL     1      -0.677  12.654  19.281  0.00  0.00    +0.000 F 
ATOM     21  C   UNL     1      -0.540  10.453  18.451  0.00  0.00    +0.000 A 
ATOM     22  C   UNL     1       0.241   9.394  17.988  0.00  0.00    +0.000 A 
ENDBRANCH  15  16
ENDBRANCH  12  15
ENDBRANCH   1  11
BRANCH   1  23
ATOM     23  C   UNL     1       5.951   5.577  19.197  0.00  0.00    +0.000 C 
BRANCH  23  25
ATOM     24  C   UNL     1       7.654   7.110  18.034  0.00  0.00    +0.000 C 
ATOM     25  C   UNL     1       6.772   5.870  17.933  0.00  0.00    +0.000 C 
ATOM     26  C   UNL     1       7.661   4.641  17.666  0.00  0.00    +0.000 C 
ENDBRANCH  23  25
ENDBRANCH   1  23
TORSDOF 7
ENDMDL
MODEL 6
REMARK VINA RESULT:      -7.0      3.294      6.583
REMARK  Name = 
REMARK  9 active torsions:
REMARK  status: ('A' for Active; 'I' for Inactive)
REMARK    1  A    between atoms: C_1  and  C_2
REMARK    2  A    between atoms: C_2  and  C_3
REMARK    3  A    between atoms: C_2  and  C_4
REMARK    4  A    between atoms: C_4  and  N_5
REMARK    5  A    between atoms: N_5  and  N_6
REMARK    6  A    between atoms: N_5  and  C_17
REMARK    7  A    between atoms: C_7  and  C_9
REMARK    8  A    between atoms: C_9  and  C_10
REMARK    9  A    between atoms: C_19  and  C_20
REMARK                            x       y       z     vdW  Elec       q    Type
REMARK                         _______ _______ _______ _____ _____    ______ ____
ROOT
ATOM      1  N   UNL     1       4.361   4.041  18.383  0.00  0.00    +0.000 N 
ENDROOT
BRANCH   1   2
ATOM      2  C   UNL     1       5.425   4.360  17.502  0.00  0.00    +0.000 A 
ATOM      3  N   UNL     1       5.177   4.083  16.193  0.00  0.00    +0.000 NA
ATOM      4  C   UNL     1       6.143   4.283  15.283  0.00  0.00    +0.000 A 
ATOM      5  N   UNL     1       7.358   4.789  15.536  0.00  0.00    +0.000 NA
ATOM      6  C   UNL     1       7.581   5.094  16.824  0.00  0.00    +0.000 A 
ATOM      7  C   UNL     1       6.668   4.902  17.850  0.00  0.00    +0.000 A 
ATOM      8 BR   UNL     1       7.273   5.519  19.539  0.00  0.00    +0.000 Br
BRANCH   4   9
ATOM      9  C   UNL     1       5.882   3.912  13.918  0.00  0.00    +0.000 C 
ATOM     10  N   UNL     1       5.697   3.566  12.818  0.00  0.00    +0.000 NA
ENDBRANCH   4   9
ENDBRANCH   1   2
BRANCH   1  11
ATOM     11  N   UNL     1       4.051   5.125  19.253  0.00  0.00    +0.000 N 
ATOM     12  C   UNL     1       2.786   5.709  19.236  0.00  0.00    +0.000 C 
ATOM     13  O   UNL     1       1.846   5.356  18.528  0.00  0.00    +0.000 OA
ATOM     14  H   UNL     1       4.818   5.512  19.790  0.00  0.00    +0.000 HD
BRANCH  12  15
ATOM     15  C   UNL     1       2.640   6.854  20.236  0.00  0.00    +0.000 C 
BRANCH  15  16
ATOM     16  C   UNL     1       1.870   8.030  19.676  0.00  0.00    +0.000 A 
ATOM     17  C   UNL     1       0.952   8.736  20.471  0.00  0.00    +0.000 A 
ATOM     18  C   UNL     1       0.250   9.822  19.944  0.00  0.00    +0.000 A 
ATOM     19  C   UNL     1       0.465  10.208  18.626  0.00  0.00    +0.000 A 
ATOM     20  F   UNL     1      -0.214  11.248  18.123  0.00  0.00    +0.000 F 
ATOM     21  C   UNL     1       1.375   9.532  17.826  0.00  0.00    +0.000 A 
ATOM     22  C   UNL     1       2.081   8.450  18.350  0.00  0.00    +0.000 A 
ENDBRANCH  15  16
ENDBRANCH  12  15
ENDBRANCH   1  11
BRANCH   1  23
ATOM     23  C   UNL     1       4.339   2.705  18.992  0.00  0.00    +0.000 C 
BRANCH  23  25
ATOM     24  C   UNL     1       2.009   2.211  19.959  0.00  0.00    +0.000 C 
ATOM     25  C   UNL     1       3.040   1.894  18.881  0.00  0.00    +0.000 C 
ATOM     26  C   UNL     1       2.428   2.191  17.498  0.00  0.00    +0.000 C 
ENDBRANCH  23  25
ENDBRANCH   1  23
TORSDOF 7
ENDMDL
MODEL 7
REMARK VINA RESULT:      -6.8      4.811      6.154
REMARK  Name = 
REMARK  9 active torsions:
REMARK  status: ('A' for Active; 'I' for Inactive)
REMARK    1  A    between atoms: C_1  and  C_2
REMARK    2  A    between atoms: C_2  and  C_3
REMARK    3  A    between atoms: C_2  and  C_4
REMARK    4  A    between atoms: C_4  and  N_5
REMARK    5  A    between atoms: N_5  and  N_6
REMARK    6  A    between atoms: N_5  and  C_17
REMARK    7  A    between atoms: C_7  and  C_9
REMARK    8  A    between atoms: C_9  and  C_10
REMARK    9  A    between atoms: C_19  and  C_20
REMARK                            x       y       z     vdW  Elec       q    Type
REMARK                         _______ _______ _______ _____ _____    ______ ____
ROOT
ATOM      1  N   UNL     1       6.379   6.274  17.600  0.00  0.00    +0.000 N 
ENDROOT
BRANCH   1   2
ATOM      2  C   UNL     1       5.019   6.223  17.996  0.00  0.00    +0.000 A 
ATOM      3  N   UNL     1       4.290   7.322  17.660  0.00  0.00    +0.000 NA
ATOM      4  C   UNL     1       3.008   7.407  18.048  0.00  0.00    +0.000 A 
ATOM      5  N   UNL     1       2.335   6.461  18.719  0.00  0.00    +0.000 NA
ATOM      6  C   UNL     1       3.050   5.365  19.014  0.00  0.00    +0.000 A 
ATOM      7  C   UNL     1       4.386   5.183  18.689  0.00  0.00    +0.000 A 
ATOM      8 BR   UNL     1       5.069   3.483  19.179  0.00  0.00    +0.000 Br
BRANCH   4   9
ATOM      9  C   UNL     1       2.282   8.611  17.747  0.00  0.00    +0.000 C 
ATOM     10  N   UNL     1       1.647   9.562  17.514  0.00  0.00    +0.000 NA
ENDBRANCH   4   9
ENDBRANCH   1   2
BRANCH   1  11
ATOM     11  N   UNL     1       6.785   7.599  17.269  0.00  0.00    +0.000 N 
ATOM     12  C   UNL     1       7.867   8.191  17.917  0.00  0.00    +0.000 C 
ATOM     13  O   UNL     1       8.565   7.658  18.776  0.00  0.00    +0.000 OA
ATOM     14  H   UNL     1       6.187   8.114  16.635  0.00  0.00    +0.000 HD
BRANCH  12  15
ATOM     15  C   UNL     1       8.152   9.611  17.432  0.00  0.00    +0.000 C 
BRANCH  15  16
ATOM     16  C   UNL     1       9.161  10.337  18.296  0.00  0.00    +0.000 A 
ATOM     17  C   UNL     1      10.262  10.995  17.722  0.00  0.00    +0.000 A 
ATOM     18  C   UNL     1      11.184  11.664  18.530  0.00  0.00    +0.000 A 
ATOM     19  C   UNL     1      11.007  11.683  19.909  0.00  0.00    +0.000 A 
ATOM     20  F   UNL     1      11.896  12.323  20.679  0.00  0.00    +0.000 F 
ATOM     21  C   UNL     1       9.921  11.049  20.495  0.00  0.00    +0.000 A 
ATOM     22  C   UNL     1       8.996  10.383  19.692  0.00  0.00    +0.000 A 
ENDBRANCH  15  16
ENDBRANCH  12  15
ENDBRANCH   1  11
BRANCH   1  23
ATOM     23  C   UNL     1       6.889   5.212  16.723  0.00  0.00    +0.000 C 
BRANCH  23  25
ATOM     24  C   UNL     1       7.136   5.038  14.171  0.00  0.00    +0.000 C 
ATOM     25  C   UNL     1       6.193   5.009  15.369  0.00  0.00    +0.000 C 
ATOM     26  C   UNL     1       5.482   3.644  15.417  0.00  0.00    +0.000 C 
ENDBRANCH  23  25
ENDBRANCH   1  23
TORSDOF 7
ENDMDL
MODEL 8
REMARK VINA RESULT:      -6.8      4.086      7.365
REMARK  Name = 
REMARK  9 active torsions:
REMARK  status: ('A' for Active; 'I' for Inactive)
REMARK    1  A    between atoms: C_1  and  C_2
REMARK    2  A    between atoms: C_2  and  C_3
REMARK    3  A    between atoms: C_2  and  C_4
REMARK    4  A    between atoms: C_4  and  N_5
REMARK    5  A    between atoms: N_5  and  N_6
REMARK    6  A    between atoms: N_5  and  C_17
REMARK    7  A    between atoms: C_7  and  C_9
REMARK    8  A    between atoms: C_9  and  C_10
REMARK    9  A    between atoms: C_19  and  C_20
REMARK                            x       y       z     vdW  Elec       q    Type
REMARK                         _______ _______ _______ _____ _____    ______ ____
ROOT
ATOM      1  N   UNL     1       4.529   6.193  18.152  0.00  0.00    +0.000 N 
ENDROOT
BRANCH   1   2
ATOM      2  C   UNL     1       4.115   4.843  18.286  0.00  0.00    +0.000 A 
ATOM      3  N   UNL     1       3.513   4.553  19.472  0.00  0.00    +0.000 NA
ATOM      4  C   UNL     1       3.144   3.289  19.730  0.00  0.00    +0.000 A 
ATOM      5  N   UNL     1       3.272   2.253  18.888  0.00  0.00    +0.000 NA
ATOM      6  C   UNL     1       3.833   2.556  17.708  0.00  0.00    +0.000 A 
ATOM      7  C   UNL     1       4.278   3.819  17.346  0.00  0.00    +0.000 A 
ATOM      8 BR   UNL     1       4.943   3.918  15.573  0.00  0.00    +0.000 Br
BRANCH   4   9
ATOM      9  C   UNL     1       2.578   2.992  21.019  0.00  0.00    +0.000 C 
ATOM     10  N   UNL     1       2.073   2.772  22.048  0.00  0.00    +0.000 NA
ENDBRANCH   4   9
ENDBRANCH   1   2
BRANCH   1  11
ATOM     11  N   UNL     1       3.501   7.010  17.599  0.00  0.00    +0.000 N 
ATOM     12  C   UNL     1       2.570   7.635  18.427  0.00  0.00    +0.000 C 
ATOM     13  O   UNL     1       2.551   7.574  19.654  0.00  0.00    +0.000 OA
ATOM     14  H   UNL     1       3.418   7.018  16.590  0.00  0.00    +0.000 HD
BRANCH  12  15
ATOM     15  C   UNL     1       1.547   8.467  17.657  0.00  0.00    +0.000 C 
BRANCH  15  16
ATOM     16  C   UNL     1       1.294   9.820  18.286  0.00  0.00    +0.000 A 
ATOM     17  C   UNL     1       2.166  10.897  18.055  0.00  0.00    +0.000 A 
ATOM     18  C   UNL     1       1.919  12.142  18.639  0.00  0.00    +0.000 A 
ATOM     19  C   UNL     1       0.803  12.315  19.450  0.00  0.00    +0.000 A 
ATOM     20  F   UNL     1       0.574  13.509  20.010  0.00  0.00    +0.000 F 
ATOM     21  C   UNL     1      -0.077  11.268  19.682  0.00  0.00    +0.000 A 
ATOM     22  C   UNL     1       0.164  10.024  19.097  0.00  0.00    +0.000 A 
ENDBRANCH  15  16
ENDBRANCH  12  15
ENDBRANCH   1  11
BRANCH   1  23
ATOM     23  C   UNL     1       5.888   6.458  17.665  0.00  0.00    +0.000 C 
BRANCH  23  25
ATOM     24  C   UNL     1       7.732   4.693  17.963  0.00  0.00    +0.000 C 
ATOM     25  C   UNL     1       7.062   5.948  18.513  0.00  0.00    +0.000 C 
ATOM     26  C   UNL     1       8.102   7.082  18.590  0.00  0.00    +0.000 C 
ENDBRANCH  23  25
ENDBRANCH   1  23
TORSDOF 7
ENDMDL
MODEL 9
REMARK VINA RESULT:      -6.7      3.734      6.213
REMARK  Name = 
REMARK  9 active torsions:
REMARK  status: ('A' for Active; 'I' for Inactive)
REMARK    1  A    between atoms: C_1  and  C_2
REMARK    2  A    between atoms: C_2  and  C_3
REMARK    3  A    between atoms: C_2  and  C_4
REMARK    4  A    between atoms: C_4  and  N_5
REMARK    5  A    between atoms: N_5  and  N_6
REMARK    6  A    between atoms: N_5  and  C_17
REMARK    7  A    between atoms: C_7  and  C_9
REMARK    8  A    between atoms: C_9  and  C_10
REMARK    9  A    between atoms: C_19  and  C_20
REMARK                            x       y       z     vdW  Elec       q    Type
REMARK                         _______ _______ _______ _____ _____    ______ ____
ROOT
ATOM      1  N   UNL     1       0.479   9.876  18.507  0.00  0.00    +0.000 N 
ENDROOT
BRANCH   1   2
ATOM      2  C   UNL     1       0.954  10.987  19.246  0.00  0.00    +0.000 A 
ATOM      3  N   UNL     1       1.626  11.912  18.508  0.00  0.00    +0.000 NA
ATOM      4  C   UNL     1       2.178  12.970  19.121  0.00  0.00    +0.000 A 
ATOM      5  N   UNL     1       2.092  13.243  20.431  0.00  0.00    +0.000 NA
ATOM      6  C   UNL     1       1.396  12.345  21.146  0.00  0.00    +0.000 A 
ATOM      7  C   UNL     1       0.810  11.202  20.622  0.00  0.00    +0.000 A 
ATOM      8 BR   UNL     1      -0.172  10.194  21.894  0.00  0.00    +0.000 Br
BRANCH   4   9
ATOM      9  C   UNL     1       2.947  13.893  18.331  0.00  0.00    +0.000 C 
ATOM     10  N   UNL     1       3.533  14.678  17.695  0.00  0.00    +0.000 NA
ENDBRANCH   4   9
ENDBRANCH   1   2
BRANCH   1  11
ATOM     11  N   UNL     1       1.544   9.137  17.916  0.00  0.00    +0.000 N 
ATOM     12  C   UNL     1       2.220   8.160  18.644  0.00  0.00    +0.000 C 
ATOM     13  O   UNL     1       1.969   7.830  19.800  0.00  0.00    +0.000 OA
ATOM     14  H   UNL     1       1.850   9.435  16.997  0.00  0.00    +0.000 HD
BRANCH  12  15
ATOM     15  C   UNL     1       3.329   7.477  17.846  0.00  0.00    +0.000 C 
BRANCH  15  16
ATOM     16  C   UNL     1       3.148   5.977  17.753  0.00  0.00    +0.000 A 
ATOM     17  C   UNL     1       1.873   5.397  17.848  0.00  0.00    +0.000 A 
ATOM     18  C   UNL     1       1.719   4.011  17.756  0.00  0.00    +0.000 A 
ATOM     19  C   UNL     1       2.835   3.205  17.566  0.00  0.00    +0.000 A 
ATOM     20  F   UNL     1       2.682   1.877  17.482  0.00  0.00    +0.000 F 
ATOM     21  C   UNL     1       4.102   3.758  17.458  0.00  0.00    +0.000 A 
ATOM     22  C   UNL     1       4.260   5.141  17.545  0.00  0.00    +0.000 A 
ENDBRANCH  15  16
ENDBRANCH  12  15
ENDBRANCH   1  11
BRANCH   1  23
ATOM     23  C   UNL     1      -0.715  10.055  17.671  0.00  0.00    +0.000 C 
BRANCH  23  25
ATOM     24  C   UNL     1      -2.396  11.803  18.522  0.00  0.00    +0.000 C 
ATOM     25  C   UNL     1      -2.049  10.324  18.383  0.00  0.00    +0.000 C 
ATOM     26  C   UNL     1      -3.154   9.622  17.571  0.00  0.00    +0.000 C 
ENDBRANCH  23  25
ENDBRANCH   1  23
TORSDOF 7
ENDMDL
