MODEL 1
REMARK VINA RESULT:      -8.0      0.000      0.000
REMARK  Name = 
REMARK  7 active torsions:
REMARK  status: ('A' for Active; 'I' for Inactive)
REMARK    1  A    between atoms: C_1  and  N_2
REMARK    2  A    between atoms: N_2  and  C_15
REMARK    3  A    between atoms: C_3  and  C_5
REMARK    4  A    between atoms: C_5  and  C_6
REMARK    5  A    between atoms: C_8  and  C_9
REMARK    6  A    between atoms: C_20  and  S_21
REMARK    7  A    between atoms: S_21  and  C_22
REMARK                            x       y       z     vdW  Elec       q    Type
REMARK                         _______ _______ _______ _____ _____    ______ ____
ROOT
ATOM      1  C   UNL     1       2.541   6.541  20.125  0.00  0.00    +0.000 C 
ATOM      2  N   UNL     1       2.727   6.927  18.728  0.00  0.00    +0.000 N 
ATOM      3  C   UNL     1       2.289   8.170  18.230  0.00  0.00    +0.000 C 
ATOM      4  O   UNL     1       2.561   8.563  17.090  0.00  0.00    +0.000 OA
ENDROOT
BRANCH   2   5
ATOM      5  C   UNL     1       3.675   6.172  17.958  0.00  0.00    +0.000 A 
ATOM      6  C   UNL     1       4.807   6.872  17.489  0.00  0.00    +0.000 A 
ATOM      7  C   UNL     1       5.727   6.294  16.612  0.00  0.00    +0.000 A 
ATOM      8  C   UNL     1       5.537   4.993  16.175  0.00  0.00    +0.000 A 
ATOM      9  C   UNL     1       4.455   4.261  16.659  0.00  0.00    +0.000 A 
ATOM     10  C   UNL     1       3.527   4.829  17.562  0.00  0.00    +0.000 A 
BRANCH  10  11
ATOM     11  S   UNL     1       2.201   3.739  18.049  0.00  0.00    +0.000 S 
ATOM     12  C   UNL     1       2.708   2.148  17.464  0.00  0.00    +0.000 C 
ATOM     13  O   UNL     1       2.204   3.678  19.502  0.00  0.00    +0.000 OA
ATOM     14  O   UNL     1       0.975   4.101  17.369  0.00  0.00    +0.000 OA
ENDBRANCH  10  11
ENDBRANCH   2   5
BRANCH   3  15
ATOM     15  C   UNL     1       1.363   9.007  19.116  0.00  0.00    +0.000 C 
BRANCH  15  16
ATOM     16  C   UNL     1       0.474   9.947  18.335  0.00  0.00    +0.000 C 
ATOM     17  C   UNL     1       0.252  11.339  18.861  0.00  0.00    +0.000 C 
ATOM     18  C   UNL     1      -0.891  10.348  18.863  0.00  0.00    +0.000 C 
BRANCH  18  19
ATOM     19  C   UNL     1      -2.059  10.588  17.935  0.00  0.00    +0.000 A 
ATOM     20  C   UNL     1      -2.132  10.001  16.664  0.00  0.00    +0.000 A 
ATOM     21  C   UNL     1      -3.239  10.201  15.833  0.00  0.00    +0.000 A 
ATOM     22  C   UNL     1      -4.300  10.994  16.257  0.00  0.00    +0.000 A 
ATOM     23  C   UNL     1      -4.250  11.581  17.515  0.00  0.00    +0.000 A 
ATOM     24  C   UNL     1      -3.144  11.378  18.345  0.00  0.00    +0.000 A 
ENDBRANCH  18  19
ENDBRANCH  15  16
ENDBRANCH   3  15
TORSDOF 5
ENDMDL
MODEL 2
REMARK VINA RESULT:      -7.9      2.904      8.521
REMARK  Name = 
REMARK  7 active torsions:
REMARK  status: ('A' for Active; 'I' for Inactive)
REMARK    1  A    between atoms: C_1  and  N_2
REMARK    2  A    between atoms: N_2  and  C_15
REMARK    3  A    between atoms: C_3  and  C_5
REMARK    4  A    between atoms: C_5  and  C_6
REMARK    5  A    between atoms: C_8  and  C_9
REMARK    6  A    between atoms: C_20  and  S_21
REMARK    7  A    between atoms: S_21  and  C_22
REMARK                            x       y       z     vdW  Elec       q    Type
REMARK                         _______ _______ _______ _____ _____    ______ ____
ROOT
ATOM      1  C   UNL     1       0.603   9.094  21.106  0.00  0.00    +0.000 C 
ATOM      2  N   UNL     1       0.731   9.508  19.710  0.00  0.00    +0.000 N 
ATOM      3  C   UNL     1       1.490   8.773  18.778  0.00  0.00    +0.000 C 
ATOM      4  O   UNL     1       1.495   9.035  17.570  0.00  0.00    +0.000 OA
ENDROOT
BRANCH   2   5
ATOM      5  C   UNL     1      -0.211  10.474  19.221  0.00  0.00    +0.000 A 
ATOM      6  C   UNL     1      -1.475   9.982  18.830  0.00  0.00    +0.000 A 
ATOM      7  C   UNL     1      -2.427  10.790  18.206  0.00  0.00    +0.000 A 
ATOM      8  C   UNL     1      -2.138  12.121  17.952  0.00  0.00    +0.000 A 
ATOM      9  C   UNL     1      -0.918  12.648  18.370  0.00  0.00    +0.000 A 
ATOM     10  C   UNL     1       0.046  11.844  19.021  0.00  0.00    +0.000 A 
BRANCH  10  11
ATOM     11  S   UNL     1       1.551  12.696  19.461  0.00  0.00    +0.000 S 
ATOM     12  C   UNL     1       1.157  14.409  19.257  0.00  0.00    +0.000 C 
ATOM     13  O   UNL     1       1.771  12.478  20.881  0.00  0.00    +0.000 OA
ATOM     14  O   UNL     1       2.610  12.363  18.531  0.00  0.00    +0.000 OA
ENDBRANCH  10  11
ENDBRANCH   2   5
BRANCH   3  15
ATOM     15  C   UNL     1       2.409   7.674  19.315  0.00  0.00    +0.000 C 
BRANCH  15  16
ATOM     16  C   UNL     1       2.973   6.782  18.234  0.00  0.00    +0.000 C 
ATOM     17  C   UNL     1       2.399   5.402  18.060  0.00  0.00    +0.000 C 
ATOM     18  C   UNL     1       3.809   5.565  18.584  0.00  0.00    +0.000 C 
BRANCH  18  19
ATOM     19  C   UNL     1       4.961   5.118  17.714  0.00  0.00    +0.000 A 
ATOM     20  C   UNL     1       6.296   5.249  18.123  0.00  0.00    +0.000 A 
ATOM     21  C   UNL     1       7.349   4.794  17.324  0.00  0.00    +0.000 A 
ATOM     22  C   UNL     1       7.090   4.197  16.095  0.00  0.00    +0.000 A 
ATOM     23  C   UNL     1       5.774   4.054  15.672  0.00  0.00    +0.000 A 
ATOM     24  C   UNL     1       4.722   4.506  16.475  0.00  0.00    +0.000 A 
ENDBRANCH  18  19
ENDBRANCH  15  16
ENDBRANCH   3  15
TORSDOF 5
ENDMDL
MODEL 3
REMARK VINA RESULT:      -7.8      0.778      1.335
REMARK  Name = 
REMARK  7 active torsions:
REMARK  status: ('A' for Active; 'I' for Inactive)
REMARK    1  A    between atoms: C_1  and  N_2
REMARK    2  A    between atoms: N_2  and  C_15
REMARK    3  A    between atoms: C_3  and  C_5
REMARK    4  A    between atoms: C_5  and  C_6
REMARK    5  A    between atoms: C_8  and  C_9
REMARK    6  A    between atoms: C_20  and  S_21
REMARK    7  A    between atoms: S_21  and  C_22
REMARK                            x       y       z     vdW  Elec       q    Type
REMARK                         _______ _______ _______ _____ _____    ______ ____
ROOT
ATOM      1  C   UNL     1       2.862   6.264  20.047  0.00  0.00    +0.000 C 
ATOM      2  N   UNL     1       3.001   6.634  18.640  0.00  0.00    +0.000 N 
ATOM      3  C   UNL     1       2.535   7.866  18.140  0.00  0.00    +0.000 C 
ATOM      4  O   UNL     1       2.768   8.246  16.988  0.00  0.00    +0.000 OA
ENDROOT
BRANCH   2   5
ATOM      5  C   UNL     1       3.931   5.877  17.850  0.00  0.00    +0.000 A 
ATOM      6  C   UNL     1       5.129   6.531  17.489  0.00  0.00    +0.000 A 
ATOM      7  C   UNL     1       6.049   5.962  16.607  0.00  0.00    +0.000 A 
ATOM      8  C   UNL     1       5.794   4.716  16.056  0.00  0.00    +0.000 A 
ATOM      9  C   UNL     1       4.643   4.025  16.432  0.00  0.00    +0.000 A 
ATOM     10  C   UNL     1       3.714   4.583  17.339  0.00  0.00    +0.000 A 
BRANCH  10  11
ATOM     11  S   UNL     1       2.296   3.555  17.679  0.00  0.00    +0.000 S 
ATOM     12  C   UNL     1       2.392   3.242  19.417  0.00  0.00    +0.000 C 
ATOM     13  O   UNL     1       1.110   4.366  17.459  0.00  0.00    +0.000 OA
ATOM     14  O   UNL     1       2.413   2.289  16.985  0.00  0.00    +0.000 OA
ENDBRANCH  10  11
ENDBRANCH   2   5
BRANCH   3  15
ATOM     15  C   UNL     1       1.629   8.705  19.044  0.00  0.00    +0.000 C 
BRANCH  15  16
ATOM     16  C   UNL     1       0.727   9.646  18.279  0.00  0.00    +0.000 C 
ATOM     17  C   UNL     1       0.682  11.095  18.684  0.00  0.00    +0.000 C 
ATOM     18  C   UNL     1      -0.526  10.215  18.919  0.00  0.00    +0.000 C 
BRANCH  18  19
ATOM     19  C   UNL     1      -1.778  10.475  18.113  0.00  0.00    +0.000 A 
ATOM     20  C   UNL     1      -2.763  11.378  18.539  0.00  0.00    +0.000 A 
ATOM     21  C   UNL     1      -3.896  11.637  17.762  0.00  0.00    +0.000 A 
ATOM     22  C   UNL     1      -4.070  10.997  16.539  0.00  0.00    +0.000 A 
ATOM     23  C   UNL     1      -3.105  10.102  16.097  0.00  0.00    +0.000 A 
ATOM     24  C   UNL     1      -1.970   9.847  16.873  0.00  0.00    +0.000 A 
ENDBRANCH  18  19
ENDBRANCH  15  16
ENDBRANCH   3  15
TORSDOF 5
ENDMDL
MODEL 4
REMARK VINA RESULT:      -7.8      5.246      8.000
REMARK  Name = 
REMARK  7 active torsions:
REMARK  status: ('A' for Active; 'I' for Inactive)
REMARK    1  A    between atoms: C_1  and  N_2
REMARK    2  A    between atoms: N_2  and  C_15
REMARK    3  A    between atoms: C_3  and  C_5
REMARK    4  A    between atoms: C_5  and  C_6
REMARK    5  A    between atoms: C_8  and  C_9
REMARK    6  A    between atoms: C_20  and  S_21
REMARK    7  A    between atoms: S_21  and  C_22
REMARK                            x       y       z     vdW  Elec       q    Type
REMARK                         _______ _______ _______ _____ _____    ______ ____
ROOT
ATOM      1  C   UNL     1       8.079   5.443  19.074  0.00  0.00    +0.000 C 
ATOM      2  N   UNL     1       7.422   6.234  18.035  0.00  0.00    +0.000 N 
ATOM      3  C   UNL     1       7.754   7.583  17.799  0.00  0.00    +0.000 C 
ATOM      4  O   UNL     1       7.306   8.220  16.839  0.00  0.00    +0.000 OA
ENDROOT
BRANCH   2   5
ATOM      5  C   UNL     1       6.687   5.520  17.030  0.00  0.00    +0.000 A 
ATOM      6  C   UNL     1       7.436   4.997  15.954  0.00  0.00    +0.000 A 
ATOM      7  C   UNL     1       6.829   4.409  14.843  0.00  0.00    +0.000 A 
ATOM      8  C   UNL     1       5.447   4.330  14.776  0.00  0.00    +0.000 A 
ATOM      9  C   UNL     1       4.683   4.793  15.845  0.00  0.00    +0.000 A 
ATOM     10  C   UNL     1       5.287   5.373  16.983  0.00  0.00    +0.000 A 
BRANCH  10  11
ATOM     11  S   UNL     1       4.141   5.924  18.235  0.00  0.00    +0.000 S 
ATOM     12  C   UNL     1       2.670   4.992  17.918  0.00  0.00    +0.000 C 
ATOM     13  O   UNL     1       4.656   5.478  19.519  0.00  0.00    +0.000 OA
ATOM     14  O   UNL     1       3.834   7.327  18.056  0.00  0.00    +0.000 OA
ENDBRANCH  10  11
ENDBRANCH   2   5
BRANCH   3  15
ATOM     15  C   UNL     1       8.629   8.294  18.834  0.00  0.00    +0.000 C 
BRANCH  15  16
ATOM     16  C   UNL     1       8.589   9.800  18.718  0.00  0.00    +0.000 C 
ATOM     17  C   UNL     1       9.654  10.493  17.913  0.00  0.00    +0.000 C 
ATOM     18  C   UNL     1       9.626  10.662  19.416  0.00  0.00    +0.000 C 
BRANCH  18  19
ATOM     19  C   UNL     1       9.274  12.017  19.986  0.00  0.00    +0.000 A 
ATOM     20  C   UNL     1       9.329  12.283  21.361  0.00  0.00    +0.000 A 
ATOM     21  C   UNL     1       9.041  13.553  21.869  0.00  0.00    +0.000 A 
ATOM     22  C   UNL     1       8.689  14.589  21.009  0.00  0.00    +0.000 A 
ATOM     23  C   UNL     1       8.633  14.349  19.642  0.00  0.00    +0.000 A 
ATOM     24  C   UNL     1       8.925  13.078  19.136  0.00  0.00    +0.000 A 
ENDBRANCH  18  19
ENDBRANCH  15  16
ENDBRANCH   3  15
TORSDOF 5
ENDMDL
MODEL 5
REMARK VINA RESULT:      -7.7      5.821      8.194
REMARK  Name = 
REMARK  7 active torsions:
REMARK  status: ('A' for Active; 'I' for Inactive)
REMARK    1  A    between atoms: C_1  and  N_2
REMARK    2  A    between atoms: N_2  and  C_15
REMARK    3  A    between atoms: C_3  and  C_5
REMARK    4  A    between atoms: C_5  and  C_6
REMARK    5  A    between atoms: C_8  and  C_9
REMARK    6  A    between atoms: C_20  and  S_21
REMARK    7  A    between atoms: S_21  and  C_22
REMARK                            x       y       z     vdW  Elec       q    Type
REMARK                         _______ _______ _______ _____ _____    ______ ____
ROOT
ATOM      1  C   UNL     1       7.813   5.586  19.260  0.00  0.00    +0.000 C 
ATOM      2  N   UNL     1       6.850   6.362  18.480  0.00  0.00    +0.000 N 
ATOM      3  C   UNL     1       7.203   7.567  17.841  0.00  0.00    +0.000 C 
ATOM      4  O   UNL     1       6.439   8.159  17.070  0.00  0.00    +0.000 OA
ENDROOT
BRANCH   2   5
ATOM      5  C   UNL     1       5.640   5.700  18.082  0.00  0.00    +0.000 A 
ATOM      6  C   UNL     1       4.570   5.735  19.003  0.00  0.00    +0.000 A 
ATOM      7  C   UNL     1       3.393   5.011  18.802  0.00  0.00    +0.000 A 
ATOM      8  C   UNL     1       3.254   4.225  17.668  0.00  0.00    +0.000 A 
ATOM      9  C   UNL     1       4.274   4.209  16.719  0.00  0.00    +0.000 A 
ATOM     10  C   UNL     1       5.462   4.953  16.902  0.00  0.00    +0.000 A 
BRANCH  10  11
ATOM     11  S   UNL     1       6.654   4.786  15.585  0.00  0.00    +0.000 S 
ATOM     12  C   UNL     1       6.024   3.465  14.592  0.00  0.00    +0.000 C 
ATOM     13  O   UNL     1       6.581   5.994  14.780  0.00  0.00    +0.000 OA
ATOM     14  O   UNL     1       7.938   4.378  16.116  0.00  0.00    +0.000 OA
ENDBRANCH  10  11
ENDBRANCH   2   5
BRANCH   3  15
ATOM     15  C   UNL     1       8.548   8.200  18.204  0.00  0.00    +0.000 C 
BRANCH  15  16
ATOM     16  C   UNL     1       8.446   9.666  18.552  0.00  0.00    +0.000 C 
ATOM     17  C   UNL     1       9.303  10.651  17.803  0.00  0.00    +0.000 C 
ATOM     18  C   UNL     1       9.581  10.378  19.265  0.00  0.00    +0.000 C 
BRANCH  18  19
ATOM     19  C   UNL     1       9.320  11.478  20.268  0.00  0.00    +0.000 A 
ATOM     20  C   UNL     1       9.394  12.835  19.921  0.00  0.00    +0.000 A 
ATOM     21  C   UNL     1       9.109  13.840  20.851  0.00  0.00    +0.000 A 
ATOM     22  C   UNL     1       8.744  13.509  22.152  0.00  0.00    +0.000 A 
ATOM     23  C   UNL     1       8.661  12.171  22.515  0.00  0.00    +0.000 A 
ATOM     24  C   UNL     1       8.942  11.167  21.583  0.00  0.00    +0.000 A 
ENDBRANCH  18  19
ENDBRANCH  15  16
ENDBRANCH   3  15
TORSDOF 5
ENDMDL
MODEL 6
REMARK VINA RESULT:      -7.7      0.239      1.007
REMARK  Name = 
REMARK  7 active torsions:
REMARK  status: ('A' for Active; 'I' for Inactive)
REMARK    1  A    between atoms: C_1  and  N_2
REMARK    2  A    between atoms: N_2  and  C_15
REMARK    3  A    between atoms: C_3  and  C_5
REMARK    4  A    between atoms: C_5  and  C_6
REMARK    5  A    between atoms: C_8  and  C_9
REMARK    6  A    between atoms: C_20  and  S_21
REMARK    7  A    between atoms: S_21  and  C_22
REMARK                            x       y       z     vdW  Elec       q    Type
REMARK                         _______ _______ _______ _____ _____    ______ ____
ROOT
ATOM      1  C   UNL     1       2.576   6.571  20.135  0.00  0.00    +0.000 C 
ATOM      2  N   UNL     1       2.726   6.961  18.734  0.00  0.00    +0.000 N 
ATOM      3  C   UNL     1       2.271   8.203  18.249  0.00  0.00    +0.000 C 
ATOM      4  O   UNL     1       2.512   8.599  17.104  0.00  0.00    +0.000 OA
ENDROOT
BRANCH   2   5
ATOM      5  C   UNL     1       3.657   6.211  17.939  0.00  0.00    +0.000 A 
ATOM      6  C   UNL     1       4.697   6.943  17.326  0.00  0.00    +0.000 A 
ATOM      7  C   UNL     1       5.579   6.360  16.415  0.00  0.00    +0.000 A 
ATOM      8  C   UNL     1       5.444   5.020  16.088  0.00  0.00    +0.000 A 
ATOM      9  C   UNL     1       4.458   4.260  16.713  0.00  0.00    +0.000 A 
ATOM     10  C   UNL     1       3.571   4.835  17.651  0.00  0.00    +0.000 A 
BRANCH  10  11
ATOM     11  S   UNL     1       2.367   3.704  18.327  0.00  0.00    +0.000 S 
ATOM     12  C   UNL     1       2.636   2.199  17.436  0.00  0.00    +0.000 C 
ATOM     13  O   UNL     1       2.740   3.451  19.709  0.00  0.00    +0.000 OA
ATOM     14  O   UNL     1       1.025   4.165  18.039  0.00  0.00    +0.000 OA
ENDBRANCH  10  11
ENDBRANCH   2   5
BRANCH   3  15
ATOM     15  C   UNL     1       1.364   9.034  19.159  0.00  0.00    +0.000 C 
BRANCH  15  16
ATOM     16  C   UNL     1       0.456   9.976  18.402  0.00  0.00    +0.000 C 
ATOM     17  C   UNL     1       0.120  11.308  19.016  0.00  0.00    +0.000 C 
ATOM     18  C   UNL     1      -0.956  10.253  18.884  0.00  0.00    +0.000 C 
BRANCH  18  19
ATOM     19  C   UNL     1      -2.091  10.493  17.915  0.00  0.00    +0.000 A 
ATOM     20  C   UNL     1      -3.145  11.369  18.207  0.00  0.00    +0.000 A 
ATOM     21  C   UNL     1      -4.166  11.611  17.283  0.00  0.00    +0.000 A 
ATOM     22  C   UNL     1      -4.155  10.980  16.044  0.00  0.00    +0.000 A 
ATOM     23  C   UNL     1      -3.117  10.111  15.732  0.00  0.00    +0.000 A 
ATOM     24  C   UNL     1      -2.095   9.873  16.656  0.00  0.00    +0.000 A 
ENDBRANCH  18  19
ENDBRANCH  15  16
ENDBRANCH   3  15
TORSDOF 5
ENDMDL
MODEL 7
REMARK VINA RESULT:      -7.6      3.260      8.316
REMARK  Name = 
REMARK  7 active torsions:
REMARK  status: ('A' for Active; 'I' for Inactive)
REMARK    1  A    between atoms: C_1  and  N_2
REMARK    2  A    between atoms: N_2  and  C_15
REMARK    3  A    between atoms: C_3  and  C_5
REMARK    4  A    between atoms: C_5  and  C_6
REMARK    5  A    between atoms: C_8  and  C_9
REMARK    6  A    between atoms: C_20  and  S_21
REMARK    7  A    between atoms: S_21  and  C_22
REMARK                            x       y       z     vdW  Elec       q    Type
REMARK                         _______ _______ _______ _____ _____    ______ ____
ROOT
ATOM      1  C   UNL     1       1.547  10.169  18.824  0.00  0.00    +0.000 C 
ATOM      2  N   UNL     1       0.393   9.707  19.593  0.00  0.00    +0.000 N 
ATOM      3  C   UNL     1       0.512   8.754  20.624  0.00  0.00    +0.000 C 
ATOM      4  O   UNL     1      -0.429   8.459  21.368  0.00  0.00    +0.000 OA
ENDROOT
BRANCH   2   5
ATOM      5  C   UNL     1      -0.804  10.496  19.520  0.00  0.00    +0.000 A 
ATOM      6  C   UNL     1      -1.720  10.161  18.499  0.00  0.00    +0.000 A 
ATOM      7  C   UNL     1      -2.848  10.937  18.229  0.00  0.00    +0.000 A 
ATOM      8  C   UNL     1      -3.093  12.079  18.976  0.00  0.00    +0.000 A 
ATOM      9  C   UNL     1      -2.233  12.408  20.022  0.00  0.00    +0.000 A 
ATOM     10  C   UNL     1      -1.098  11.620  20.317  0.00  0.00    +0.000 A 
BRANCH  10  11
ATOM     11  S   UNL     1      -0.111  12.217  21.678  0.00  0.00    +0.000 S 
ATOM     12  C   UNL     1      -0.822  13.787  22.076  0.00  0.00    +0.000 C 
ATOM     13  O   UNL     1      -0.361  11.340  22.811  0.00  0.00    +0.000 OA
ATOM     14  O   UNL     1       1.256  12.435  21.254  0.00  0.00    +0.000 OA
ENDBRANCH  10  11
ENDBRANCH   2   5
BRANCH   3  15
ATOM     15  C   UNL     1       1.838   8.000  20.748  0.00  0.00    +0.000 C 
BRANCH  15  16
ATOM     16  C   UNL     1       2.044   6.968  19.663  0.00  0.00    +0.000 C 
ATOM     17  C   UNL     1       2.059   5.512  20.042  0.00  0.00    +0.000 C 
ATOM     18  C   UNL     1       3.336   6.177  19.576  0.00  0.00    +0.000 C 
BRANCH  18  19
ATOM     19  C   UNL     1       3.923   5.764  18.246  0.00  0.00    +0.000 A 
ATOM     20  C   UNL     1       4.525   6.688  17.380  0.00  0.00    +0.000 A 
ATOM     21  C   UNL     1       5.099   6.284  16.171  0.00  0.00    +0.000 A 
ATOM     22  C   UNL     1       5.085   4.943  15.800  0.00  0.00    +0.000 A 
ATOM     23  C   UNL     1       4.497   4.010  16.646  0.00  0.00    +0.000 A 
ATOM     24  C   UNL     1       3.926   4.416  17.856  0.00  0.00    +0.000 A 
ENDBRANCH  18  19
ENDBRANCH  15  16
ENDBRANCH   3  15
TORSDOF 5
ENDMDL
MODEL 8
REMARK VINA RESULT:      -7.6      4.312      7.925
REMARK  Name = 
REMARK  7 active torsions:
REMARK  status: ('A' for Active; 'I' for Inactive)
REMARK    1  A    between atoms: C_1  and  N_2
REMARK    2  A    between atoms: N_2  and  C_15
REMARK    3  A    between atoms: C_3  and  C_5
REMARK    4  A    between atoms: C_5  and  C_6
REMARK    5  A    between atoms: C_8  and  C_9
REMARK    6  A    between atoms: C_20  and  S_21
REMARK    7  A    between atoms: S_21  and  C_22
REMARK                            x       y       z     vdW  Elec       q    Type
REMARK                         _______ _______ _______ _____ _____    ______ ____
ROOT
ATOM      1  C   UNL     1       4.030   3.439  17.618  0.00  0.00    +0.000 C 
ATOM      2  N   UNL     1       4.396   4.380  18.675  0.00  0.00    +0.000 N 
ATOM      3  C   UNL     1       5.722   4.818  18.862  0.00  0.00    +0.000 C 
ATOM      4  O   UNL     1       6.021   5.714  19.659  0.00  0.00    +0.000 OA
ENDROOT
BRANCH   2   5
ATOM      5  C   UNL     1       3.333   5.121  19.293  0.00  0.00    +0.000 A 
ATOM      6  C   UNL     1       3.187   6.467  18.895  0.00  0.00    +0.000 A 
ATOM      7  C   UNL     1       2.290   7.334  19.520  0.00  0.00    +0.000 A 
ATOM      8  C   UNL     1       1.510   6.876  20.570  0.00  0.00    +0.000 A 
ATOM      9  C   UNL     1       1.596   5.540  20.953  0.00  0.00    +0.000 A 
ATOM     10  C   UNL     1       2.487   4.647  20.315  0.00  0.00    +0.000 A 
BRANCH  10  11
ATOM     11  S   UNL     1       2.465   2.985  20.961  0.00  0.00    +0.000 S 
ATOM     12  C   UNL     1       1.505   2.074  19.787  0.00  0.00    +0.000 C 
ATOM     13  O   UNL     1       3.824   2.473  20.885  0.00  0.00    +0.000 OA
ATOM     14  O   UNL     1       1.776   2.947  22.234  0.00  0.00    +0.000 OA
ENDBRANCH  10  11
ENDBRANCH   2   5
BRANCH   3  15
ATOM     15  C   UNL     1       6.830   4.079  18.108  0.00  0.00    +0.000 C 
BRANCH  15  16
ATOM     16  C   UNL     1       7.152   4.691  16.764  0.00  0.00    +0.000 C 
ATOM     17  C   UNL     1       6.459   5.965  16.364  0.00  0.00    +0.000 C 
ATOM     18  C   UNL     1       6.134   4.678  15.638  0.00  0.00    +0.000 C 
BRANCH  18  19
ATOM     19  C   UNL     1       6.554   4.535  14.193  0.00  0.00    +0.000 A 
ATOM     20  C   UNL     1       5.967   3.592  13.338  0.00  0.00    +0.000 A 
ATOM     21  C   UNL     1       6.338   3.500  11.993  0.00  0.00    +0.000 A 
ATOM     22  C   UNL     1       7.308   4.351  11.473  0.00  0.00    +0.000 A 
ATOM     23  C   UNL     1       7.899   5.295  12.302  0.00  0.00    +0.000 A 
ATOM     24  C   UNL     1       7.524   5.388  13.646  0.00  0.00    +0.000 A 
ENDBRANCH  18  19
ENDBRANCH  15  16
ENDBRANCH   3  15
TORSDOF 5
ENDMDL
MODEL 9
REMARK VINA RESULT:      -7.6      3.350      8.371
REMARK  Name = 
REMARK  7 active torsions:
REMARK  status: ('A' for Active; 'I' for Inactive)
REMARK    1  A    between atoms: C_1  and  N_2
REMARK    2  A    between atoms: N_2  and  C_15
REMARK    3  A    between atoms: C_3  and  C_5
REMARK    4  A    between atoms: C_5  and  C_6
REMARK    5  A    between atoms: C_8  and  C_9
REMARK    6  A    between atoms: C_20  and  S_21
REMARK    7  A    between atoms: S_21  and  C_22
REMARK                            x       y       z     vdW  Elec       q    Type
REMARK                         _______ _______ _______ _____ _____    ______ ____
ROOT
ATOM      1  C   UNL     1       1.488  10.261  18.958  0.00  0.00    +0.000 C 
ATOM      2  N   UNL     1       0.325   9.770  19.694  0.00  0.00    +0.000 N 
ATOM      3  C   UNL     1       0.437   8.800  20.710  0.00  0.00    +0.000 C 
ATOM      4  O   UNL     1      -0.514   8.478  21.430  0.00  0.00    +0.000 OA
ENDROOT
BRANCH   2   5
ATOM      5  C   UNL     1      -0.880  10.545  19.612  0.00  0.00    +0.000 A 
ATOM      6  C   UNL     1      -1.770  10.218  18.566  0.00  0.00    +0.000 A 
ATOM      7  C   UNL     1      -2.904  10.984  18.289  0.00  0.00    +0.000 A 
ATOM      8  C   UNL     1      -3.179  12.108  19.053  0.00  0.00    +0.000 A 
ATOM      9  C   UNL     1      -2.345  12.427  20.122  0.00  0.00    +0.000 A 
ATOM     10  C   UNL     1      -1.205  11.648  20.425  0.00  0.00    +0.000 A 
BRANCH  10  11
ATOM     11  S   UNL     1      -0.255  12.230  21.819  0.00  0.00    +0.000 S 
ATOM     12  C   UNL     1      -1.008  13.773  22.245  0.00  0.00    +0.000 C 
ATOM     13  O   UNL     1      -0.503  11.318  22.923  0.00  0.00    +0.000 OA
ATOM     14  O   UNL     1       1.113  12.490  21.423  0.00  0.00    +0.000 OA
ENDBRANCH  10  11
ENDBRANCH   2   5
BRANCH   3  15
ATOM     15  C   UNL     1       1.770   8.060  20.846  0.00  0.00    +0.000 C 
BRANCH  15  16
ATOM     16  C   UNL     1       1.904   6.888  19.903  0.00  0.00    +0.000 C 
ATOM     17  C   UNL     1       1.851   5.494  20.467  0.00  0.00    +0.000 C 
ATOM     18  C   UNL     1       3.152   6.024  19.906  0.00  0.00    +0.000 C 
BRANCH  18  19
ATOM     19  C   UNL     1       3.694   5.412  18.635  0.00  0.00    +0.000 A 
ATOM     20  C   UNL     1       3.334   4.123  18.217  0.00  0.00    +0.000 A 
ATOM     21  C   UNL     1       3.813   3.587  17.018  0.00  0.00    +0.000 A 
ATOM     22  C   UNL     1       4.666   4.330  16.208  0.00  0.00    +0.000 A 
ATOM     23  C   UNL     1       5.032   5.611  16.601  0.00  0.00    +0.000 A 
ATOM     24  C   UNL     1       4.549   6.147  17.799  0.00  0.00    +0.000 A 
ENDBRANCH  18  19
ENDBRANCH  15  16
ENDBRANCH   3  15
TORSDOF 5
ENDMDL
