MODEL 1
REMARK VINA RESULT:      -6.4      0.000      0.000
REMARK  Name = 
REMARK  3 active torsions:
REMARK  status: ('A' for Active; 'I' for Inactive)
REMARK    1  A    between atoms: C_1  and  C_2
REMARK    2  A    between atoms: C_2  and  C_3
REMARK    3  A    between atoms: C_3  and  C_4
REMARK                            x       y       z     vdW  Elec       q    Type
REMARK                         _______ _______ _______ _____ _____    ______ ____
ROOT
ATOM      1  C   UNL     1      -0.108  10.543  18.588  0.00  0.00    +0.000 A 
ATOM      2  C   UNL     1      -0.977  10.025  17.621  0.00  0.00    +0.000 A 
ATOM      3  C   UNL     1      -2.326  10.389  17.605  0.00  0.00    +0.000 A 
ATOM      4  C   UNL     1      -2.828  11.267  18.565  0.00  0.00    +0.000 A 
ATOM      5  C   UNL     1      -1.965  11.802  19.539  0.00  0.00    +0.000 A 
ATOM      6  C   UNL     1      -0.612  11.442  19.538  0.00  0.00    +0.000 A 
ATOM      7  O   UNL     1      -2.540  12.670  20.433  0.00  0.00    +0.000 OA
ATOM      8  C   UNL     1      -1.757  13.110  21.543  0.00  0.00    +0.000 C 
ATOM      9  C   UNL     1      -2.681  13.866  22.497  0.00  0.00    +0.000 C 
ATOM     10  O   UNL     1      -3.425  12.919  23.265  0.00  0.00    +0.000 OA
ATOM     11  C   UNL     1      -4.831  13.150  23.289  0.00  0.00    +0.000 C 
ATOM     12  C   UNL     1      -5.541  12.790  21.979  0.00  0.00    +0.000 C 
ATOM     13  O   UNL     1      -6.943  12.690  22.244  0.00  0.00    +0.000 OA
ATOM     14  C   UNL     1      -7.744  12.498  21.076  0.00  0.00    +0.000 C 
ATOM     15  C   UNL     1      -7.746  11.057  20.552  0.00  0.00    +0.000 C 
ATOM     16  O   UNL     1      -6.560  10.701  19.845  0.00  0.00    +0.000 OA
ATOM     17  C   UNL     1      -6.477  11.250  18.526  0.00  0.00    +0.000 C 
ATOM     18  C   UNL     1      -5.111  10.901  17.939  0.00  0.00    +0.000 C 
ATOM     19  O   UNL     1      -4.131  11.692  18.614  0.00  0.00    +0.000 OA
ENDROOT
BRANCH   1  20
ATOM     20  C   UNL     1       1.358  10.174  18.565  0.00  0.00    +0.000 C 
BRANCH  20  22
ATOM     21  C   UNL     1       2.294   7.836  18.492  0.00  0.00    +0.000 C 
ATOM     22  C   UNL     1       1.676   8.966  17.680  0.00  0.00    +0.000 C 
ENDBRANCH  20  22
ENDBRANCH   1  20
TORSDOF 2
ENDMDL
MODEL 2
REMARK VINA RESULT:      -6.2      2.106      3.786
REMARK  Name = 
REMARK  3 active torsions:
REMARK  status: ('A' for Active; 'I' for Inactive)
REMARK    1  A    between atoms: C_1  and  C_2
REMARK    2  A    between atoms: C_2  and  C_3
REMARK    3  A    between atoms: C_3  and  C_4
REMARK                            x       y       z     vdW  Elec       q    Type
REMARK                         _______ _______ _______ _____ _____    ______ ____
ROOT
ATOM      1  C   UNL     1      -3.253  10.614  16.462  0.00  0.00    +0.000 A 
ATOM      2  C   UNL     1      -4.560  11.113  16.445  0.00  0.00    +0.000 A 
ATOM      3  C   UNL     1      -5.048  11.873  17.509  0.00  0.00    +0.000 A 
ATOM      4  C   UNL     1      -4.239  12.138  18.613  0.00  0.00    +0.000 A 
ATOM      5  C   UNL     1      -2.919  11.650  18.643  0.00  0.00    +0.000 A 
ATOM      6  C   UNL     1      -2.434  10.900  17.565  0.00  0.00    +0.000 A 
ATOM      7  O   UNL     1      -2.189  11.971  19.760  0.00  0.00    +0.000 OA
ATOM      8  C   UNL     1      -0.907  11.364  19.923  0.00  0.00    +0.000 C 
ATOM      9  C   UNL     1      -0.409  11.694  21.330  0.00  0.00    +0.000 C 
ATOM     10  O   UNL     1      -1.055  10.826  22.263  0.00  0.00    +0.000 OA
ATOM     11  C   UNL     1      -1.643  11.488  23.379  0.00  0.00    +0.000 C 
ATOM     12  C   UNL     1      -2.933  12.244  23.044  0.00  0.00    +0.000 C 
ATOM     13  O   UNL     1      -3.618  12.522  24.267  0.00  0.00    +0.000 OA
ATOM     14  C   UNL     1      -4.773  13.351  24.112  0.00  0.00    +0.000 C 
ATOM     15  C   UNL     1      -6.009  12.605  23.596  0.00  0.00    +0.000 C 
ATOM     16  O   UNL     1      -5.972  12.328  22.198  0.00  0.00    +0.000 OA
ATOM     17  C   UNL     1      -6.230  13.465  21.368  0.00  0.00    +0.000 C 
ATOM     18  C   UNL     1      -6.030  13.058  19.909  0.00  0.00    +0.000 C 
ATOM     19  O   UNL     1      -4.628  12.890  19.693  0.00  0.00    +0.000 OA
ENDROOT
BRANCH   1  20
ATOM     20  C   UNL     1      -2.723   9.829  15.283  0.00  0.00    +0.000 C 
BRANCH  20  22
ATOM     21  C   UNL     1      -2.786   9.513  12.784  0.00  0.00    +0.000 C 
ATOM     22  C   UNL     1      -3.550  10.005  14.006  0.00  0.00    +0.000 C 
ENDBRANCH  20  22
ENDBRANCH   1  20
TORSDOF 2
ENDMDL
MODEL 3
REMARK VINA RESULT:      -6.2      2.369      3.301
REMARK  Name = 
REMARK  3 active torsions:
REMARK  status: ('A' for Active; 'I' for Inactive)
REMARK    1  A    between atoms: C_1  and  C_2
REMARK    2  A    between atoms: C_2  and  C_3
REMARK    3  A    between atoms: C_3  and  C_4
REMARK                            x       y       z     vdW  Elec       q    Type
REMARK                         _______ _______ _______ _____ _____    ______ ____
ROOT
ATOM      1  C   UNL     1      -3.339  11.099  17.051  0.00  0.00    +0.000 A 
ATOM      2  C   UNL     1      -4.711  11.138  16.782  0.00  0.00    +0.000 A 
ATOM      3  C   UNL     1      -5.604  11.689  17.704  0.00  0.00    +0.000 A 
ATOM      4  C   UNL     1      -5.138  12.199  18.915  0.00  0.00    +0.000 A 
ATOM      5  C   UNL     1      -3.760  12.174  19.198  0.00  0.00    +0.000 A 
ATOM      6  C   UNL     1      -2.871  11.633  18.262  0.00  0.00    +0.000 A 
ATOM      7  O   UNL     1      -3.388  12.712  20.405  0.00  0.00    +0.000 OA
ATOM      8  C   UNL     1      -2.030  12.561  20.819  0.00  0.00    +0.000 C 
ATOM      9  C   UNL     1      -1.929  13.029  22.270  0.00  0.00    +0.000 C 
ATOM     10  O   UNL     1      -2.414  11.991  23.124  0.00  0.00    +0.000 OA
ATOM     11  C   UNL     1      -3.376  12.416  24.085  0.00  0.00    +0.000 C 
ATOM     12  C   UNL     1      -4.760  12.705  23.492  0.00  0.00    +0.000 C 
ATOM     13  O   UNL     1      -5.707  12.734  24.562  0.00  0.00    +0.000 OA
ATOM     14  C   UNL     1      -7.021  13.136  24.166  0.00  0.00    +0.000 C 
ATOM     15  C   UNL     1      -7.832  12.028  23.486  0.00  0.00    +0.000 C 
ATOM     16  O   UNL     1      -7.455  11.786  22.132  0.00  0.00    +0.000 OA
ATOM     17  C   UNL     1      -7.915  12.779  21.210  0.00  0.00    +0.000 C 
ATOM     18  C   UNL     1      -7.334  12.470  19.831  0.00  0.00    +0.000 C 
ATOM     19  O   UNL     1      -5.939  12.775  19.869  0.00  0.00    +0.000 OA
ENDROOT
BRANCH   1  20
ATOM     20  C   UNL     1      -2.379  10.540  16.025  0.00  0.00    +0.000 C 
BRANCH  20  22
ATOM     21  C   UNL     1      -3.245  10.050  13.709  0.00  0.00    +0.000 C 
ATOM     22  C   UNL     1      -3.007   9.489  15.105  0.00  0.00    +0.000 C 
ENDBRANCH  20  22
ENDBRANCH   1  20
TORSDOF 2
ENDMDL
MODEL 4
REMARK VINA RESULT:      -6.0      1.353      1.722
REMARK  Name = 
REMARK  3 active torsions:
REMARK  status: ('A' for Active; 'I' for Inactive)
REMARK    1  A    between atoms: C_1  and  C_2
REMARK    2  A    between atoms: C_2  and  C_3
REMARK    3  A    between atoms: C_3  and  C_4
REMARK                            x       y       z     vdW  Elec       q    Type
REMARK                         _______ _______ _______ _____ _____    ______ ____
ROOT
ATOM      1  C   UNL     1       0.082  10.294  18.384  0.00  0.00    +0.000 A 
ATOM      2  C   UNL     1      -1.100  10.008  17.691  0.00  0.00    +0.000 A 
ATOM      3  C   UNL     1      -2.281  10.694  17.981  0.00  0.00    +0.000 A 
ATOM      4  C   UNL     1      -2.301  11.669  18.979  0.00  0.00    +0.000 A 
ATOM      5  C   UNL     1      -1.119  11.973  19.679  0.00  0.00    +0.000 A 
ATOM      6  C   UNL     1       0.063  11.290  19.372  0.00  0.00    +0.000 A 
ATOM      7  O   UNL     1      -1.226  12.956  20.632  0.00  0.00    +0.000 OA
ATOM      8  C   UNL     1      -0.108  13.187  21.488  0.00  0.00    +0.000 C 
ATOM      9  C   UNL     1      -0.554  14.147  22.590  0.00  0.00    +0.000 C 
ATOM     10  O   UNL     1      -1.287  13.414  23.572  0.00  0.00    +0.000 OA
ATOM     11  C   UNL     1      -2.544  13.985  23.923  0.00  0.00    +0.000 C 
ATOM     12  C   UNL     1      -3.625  13.814  22.850  0.00  0.00    +0.000 C 
ATOM     13  O   UNL     1      -4.896  14.063  23.454  0.00  0.00    +0.000 OA
ATOM     14  C   UNL     1      -5.987  14.077  22.529  0.00  0.00    +0.000 C 
ATOM     15  C   UNL     1      -6.465  12.682  22.111  0.00  0.00    +0.000 C 
ATOM     16  O   UNL     1      -5.616  12.044  21.160  0.00  0.00    +0.000 OA
ATOM     17  C   UNL     1      -5.737  12.556  19.830  0.00  0.00    +0.000 C 
ATOM     18  C   UNL     1      -4.687  11.880  18.950  0.00  0.00    +0.000 C 
ATOM     19  O   UNL     1      -3.409  12.404  19.317  0.00  0.00    +0.000 OA
ENDROOT
BRANCH   1  20
ATOM     20  C   UNL     1       1.363   9.574  18.029  0.00  0.00    +0.000 C 
BRANCH  20  22
ATOM     21  C   UNL     1       2.536   7.368  18.359  0.00  0.00    +0.000 C 
ATOM     22  C   UNL     1       1.759   8.490  19.035  0.00  0.00    +0.000 C 
ENDBRANCH  20  22
ENDBRANCH   1  20
TORSDOF 2
ENDMDL
MODEL 5
REMARK VINA RESULT:      -5.9      1.040      1.409
REMARK  Name = 
REMARK  3 active torsions:
REMARK  status: ('A' for Active; 'I' for Inactive)
REMARK    1  A    between atoms: C_1  and  C_2
REMARK    2  A    between atoms: C_2  and  C_3
REMARK    3  A    between atoms: C_3  and  C_4
REMARK                            x       y       z     vdW  Elec       q    Type
REMARK                         _______ _______ _______ _____ _____    ______ ____
ROOT
ATOM      1  C   UNL     1      -1.541  10.268  17.941  0.00  0.00    +0.000 A 
ATOM      2  C   UNL     1      -2.753   9.958  17.313  0.00  0.00    +0.000 A 
ATOM      3  C   UNL     1      -3.951  10.523  17.755  0.00  0.00    +0.000 A 
ATOM      4  C   UNL     1      -3.957  11.398  18.841  0.00  0.00    +0.000 A 
ATOM      5  C   UNL     1      -2.746  11.725  19.479  0.00  0.00    +0.000 A 
ATOM      6  C   UNL     1      -1.548  11.165  19.020  0.00  0.00    +0.000 A 
ATOM      7  O   UNL     1      -2.843  12.606  20.527  0.00  0.00    +0.000 OA
ATOM      8  C   UNL     1      -1.677  12.843  21.317  0.00  0.00    +0.000 C 
ATOM      9  C   UNL     1      -2.097  13.662  22.537  0.00  0.00    +0.000 C 
ATOM     10  O   UNL     1      -2.697  12.787  23.495  0.00  0.00    +0.000 OA
ATOM     11  C   UNL     1      -3.957  13.227  23.992  0.00  0.00    +0.000 C 
ATOM     12  C   UNL     1      -5.107  13.073  22.990  0.00  0.00    +0.000 C 
ATOM     13  O   UNL     1      -6.340  13.169  23.707  0.00  0.00    +0.000 OA
ATOM     14  C   UNL     1      -7.500  13.184  22.872  0.00  0.00    +0.000 C 
ATOM     15  C   UNL     1      -7.914  11.801  22.357  0.00  0.00    +0.000 C 
ATOM     16  O   UNL     1      -7.102  11.319  21.288  0.00  0.00    +0.000 OA
ATOM     17  C   UNL     1      -7.366  11.940  20.026  0.00  0.00    +0.000 C 
ATOM     18  C   UNL     1      -6.346  11.428  19.010  0.00  0.00    +0.000 C 
ATOM     19  O   UNL     1      -5.082  12.012  19.330  0.00  0.00    +0.000 OA
ENDROOT
BRANCH   1  20
ATOM     20  C   UNL     1      -0.246   9.683  17.424  0.00  0.00    +0.000 C 
BRANCH  20  22
ATOM     21  C   UNL     1       2.061   8.837  17.984  0.00  0.00    +0.000 C 
ATOM     22  C   UNL     1       0.884   9.681  18.457  0.00  0.00    +0.000 C 
ENDBRANCH  20  22
ENDBRANCH   1  20
TORSDOF 2
ENDMDL
MODEL 6
REMARK VINA RESULT:      -5.9     11.917     13.744
REMARK  Name = 
REMARK  3 active torsions:
REMARK  status: ('A' for Active; 'I' for Inactive)
REMARK    1  A    between atoms: C_1  and  C_2
REMARK    2  A    between atoms: C_2  and  C_3
REMARK    3  A    between atoms: C_3  and  C_4
REMARK                            x       y       z     vdW  Elec       q    Type
REMARK                         _______ _______ _______ _____ _____    ______ ____
ROOT
ATOM      1  C   UNL     1       9.455  10.590  18.993  0.00  0.00    +0.000 A 
ATOM      2  C   UNL     1      10.173  11.124  17.918  0.00  0.00    +0.000 A 
ATOM      3  C   UNL     1      10.732  12.401  17.997  0.00  0.00    +0.000 A 
ATOM      4  C   UNL     1      10.572  13.168  19.150  0.00  0.00    +0.000 A 
ATOM      5  C   UNL     1       9.859  12.643  20.243  0.00  0.00    +0.000 A 
ATOM      6  C   UNL     1       9.314  11.356  20.160  0.00  0.00    +0.000 A 
ATOM      7  O   UNL     1       9.764  13.459  21.342  0.00  0.00    +0.000 OA
ATOM      8  C   UNL     1       8.912  13.051  22.412  0.00  0.00    +0.000 C 
ATOM      9  C   UNL     1       8.798  14.219  23.391  0.00  0.00    +0.000 C 
ATOM     10  O   UNL     1       7.865  15.167  22.872  0.00  0.00    +0.000 OA
ATOM     11  C   UNL     1       8.335  16.512  22.851  0.00  0.00    +0.000 C 
ATOM     12  C   UNL     1       9.372  16.789  21.756  0.00  0.00    +0.000 C 
ATOM     13  O   UNL     1       9.469  18.205  21.582  0.00  0.00    +0.000 OA
ATOM     14  C   UNL     1      10.507  18.611  20.687  0.00  0.00    +0.000 C 
ATOM     15  C   UNL     1      10.146  18.459  19.205  0.00  0.00    +0.000 C 
ATOM     16  O   UNL     1      10.210  17.116  18.732  0.00  0.00    +0.000 OA
ATOM     17  C   UNL     1      11.540  16.631  18.525  0.00  0.00    +0.000 C 
ATOM     18  C   UNL     1      11.466  15.152  18.148  0.00  0.00    +0.000 C 
ATOM     19  O   UNL     1      11.101  14.422  19.321  0.00  0.00    +0.000 OA
ENDROOT
BRANCH   1  20
ATOM     20  C   UNL     1       8.893   9.188  18.910  0.00  0.00    +0.000 C 
BRANCH  20  22
ATOM     21  C   UNL     1       7.608   7.495  17.557  0.00  0.00    +0.000 C 
ATOM     22  C   UNL     1       7.970   8.966  17.708  0.00  0.00    +0.000 C 
ENDBRANCH  20  22
ENDBRANCH   1  20
TORSDOF 2
ENDMDL
MODEL 7
REMARK VINA RESULT:      -5.9      2.578      4.991
REMARK  Name = 
REMARK  3 active torsions:
REMARK  status: ('A' for Active; 'I' for Inactive)
REMARK    1  A    between atoms: C_1  and  C_2
REMARK    2  A    between atoms: C_2  and  C_3
REMARK    3  A    between atoms: C_3  and  C_4
REMARK                            x       y       z     vdW  Elec       q    Type
REMARK                         _______ _______ _______ _____ _____    ______ ____
ROOT
ATOM      1  C   UNL     1      -3.255  10.291  15.829  0.00  0.00    +0.000 A 
ATOM      2  C   UNL     1      -4.349  11.079  16.205  0.00  0.00    +0.000 A 
ATOM      3  C   UNL     1      -4.315  11.831  17.381  0.00  0.00    +0.000 A 
ATOM      4  C   UNL     1      -3.191  11.798  18.205  0.00  0.00    +0.000 A 
ATOM      5  C   UNL     1      -2.081  11.016  17.838  0.00  0.00    +0.000 A 
ATOM      6  C   UNL     1      -2.118  10.276  16.650  0.00  0.00    +0.000 A 
ATOM      7  O   UNL     1      -1.012  11.055  18.698  0.00  0.00    +0.000 OA
ATOM      8  C   UNL     1       0.071  10.154  18.467  0.00  0.00    +0.000 C 
ATOM      9  C   UNL     1       1.007  10.229  19.673  0.00  0.00    +0.000 C 
ATOM     10  O   UNL     1       0.452   9.453  20.736  0.00  0.00    +0.000 OA
ATOM     11  C   UNL     1       0.382  10.128  21.989  0.00  0.00    +0.000 C 
ATOM     12  C   UNL     1      -0.720  11.190  22.061  0.00  0.00    +0.000 C 
ATOM     13  O   UNL     1      -0.946  11.507  23.437  0.00  0.00    +0.000 OA
ATOM     14  C   UNL     1      -1.854  12.592  23.643  0.00  0.00    +0.000 C 
ATOM     15  C   UNL     1      -3.330  12.204  23.496  0.00  0.00    +0.000 C 
ATOM     16  O   UNL     1      -3.753  12.055  22.143  0.00  0.00    +0.000 OA
ATOM     17  C   UNL     1      -3.941  13.293  21.449  0.00  0.00    +0.000 C 
ATOM     18  C   UNL     1      -4.263  12.987  19.987  0.00  0.00    +0.000 C 
ATOM     19  O   UNL     1      -3.065  12.517  19.366  0.00  0.00    +0.000 OA
ENDROOT
BRANCH   1  20
ATOM     20  C   UNL     1      -3.288   9.516  14.531  0.00  0.00    +0.000 C 
BRANCH  20  22
ATOM     21  C   UNL     1      -4.001   9.737  12.124  0.00  0.00    +0.000 C 
ATOM     22  C   UNL     1      -4.399   9.962  13.576  0.00  0.00    +0.000 C 
ENDBRANCH  20  22
ENDBRANCH   1  20
TORSDOF 2
ENDMDL
MODEL 8
REMARK VINA RESULT:      -5.8      1.484      1.643
REMARK  Name = 
REMARK  3 active torsions:
REMARK  status: ('A' for Active; 'I' for Inactive)
REMARK    1  A    between atoms: C_1  and  C_2
REMARK    2  A    between atoms: C_2  and  C_3
REMARK    3  A    between atoms: C_3  and  C_4
REMARK                            x       y       z     vdW  Elec       q    Type
REMARK                         _______ _______ _______ _____ _____    ______ ____
ROOT
ATOM      1  C   UNL     1       0.105   9.983  19.307  0.00  0.00    +0.000 A 
ATOM      2  C   UNL     1      -0.394   9.804  18.011  0.00  0.00    +0.000 A 
ATOM      3  C   UNL     1      -1.553  10.462  17.595  0.00  0.00    +0.000 A 
ATOM      4  C   UNL     1      -2.238  11.301  18.473  0.00  0.00    +0.000 A 
ATOM      5  C   UNL     1      -1.746  11.497  19.776  0.00  0.00    +0.000 A 
ATOM      6  C   UNL     1      -0.576  10.844  20.180  0.00  0.00    +0.000 A 
ATOM      7  O   UNL     1      -2.474  12.351  20.566  0.00  0.00    +0.000 OA
ATOM      8  C   UNL     1      -2.122  12.457  21.946  0.00  0.00    +0.000 C 
ATOM      9  C   UNL     1      -3.208  13.274  22.645  0.00  0.00    +0.000 C 
ATOM     10  O   UNL     1      -4.334  12.429  22.889  0.00  0.00    +0.000 OA
ATOM     11  C   UNL     1      -5.582  12.967  22.462  0.00  0.00    +0.000 C 
ATOM     12  C   UNL     1      -5.778  12.949  20.942  0.00  0.00    +0.000 C 
ATOM     13  O   UNL     1      -7.169  13.135  20.669  0.00  0.00    +0.000 OA
ATOM     14  C   UNL     1      -7.475  13.280  19.279  0.00  0.00    +0.000 C 
ATOM     15  C   UNL     1      -7.506  11.957  18.507  0.00  0.00    +0.000 C 
ATOM     16  O   UNL     1      -6.213  11.435  18.208  0.00  0.00    +0.000 OA
ATOM     17  C   UNL     1      -5.539  12.115  17.145  0.00  0.00    +0.000 C 
ATOM     18  C   UNL     1      -4.127  11.543  17.020  0.00  0.00    +0.000 C 
ATOM     19  O   UNL     1      -3.372  12.000  18.144  0.00  0.00    +0.000 OA
ENDROOT
BRANCH   1  20
ATOM     20  C   UNL     1       1.385   9.298  19.729  0.00  0.00    +0.000 C 
BRANCH  20  22
ATOM     21  C   UNL     1       1.431   9.009  22.232  0.00  0.00    +0.000 C 
ATOM     22  C   UNL     1       1.204   8.320  20.894  0.00  0.00    +0.000 C 
ENDBRANCH  20  22
ENDBRANCH   1  20
TORSDOF 2
ENDMDL
MODEL 9
REMARK VINA RESULT:      -5.8      6.850     10.170
REMARK  Name = 
REMARK  3 active torsions:
REMARK  status: ('A' for Active; 'I' for Inactive)
REMARK    1  A    between atoms: C_1  and  C_2
REMARK    2  A    between atoms: C_2  and  C_3
REMARK    3  A    between atoms: C_3  and  C_4
REMARK                            x       y       z     vdW  Elec       q    Type
REMARK                         _______ _______ _______ _____ _____    ______ ____
ROOT
ATOM      1  C   UNL     1       1.891   9.712  18.383  0.00  0.00    +0.000 A 
ATOM      2  C   UNL     1       1.125   9.261  19.464  0.00  0.00    +0.000 A 
ATOM      3  C   UNL     1       1.336   7.993  20.008  0.00  0.00    +0.000 A 
ATOM      4  C   UNL     1       2.309   7.151  19.472  0.00  0.00    +0.000 A 
ATOM      5  C   UNL     1       3.093   7.592  18.390  0.00  0.00    +0.000 A 
ATOM      6  C   UNL     1       2.884   8.870  17.860  0.00  0.00    +0.000 A 
ATOM      7  O   UNL     1       4.038   6.705  17.937  0.00  0.00    +0.000 OA
ATOM      8  C   UNL     1       4.744   7.028  16.738  0.00  0.00    +0.000 C 
ATOM      9  C   UNL     1       5.552   5.799  16.326  0.00  0.00    +0.000 C 
ATOM     10  O   UNL     1       4.679   4.868  15.684  0.00  0.00    +0.000 OA
ATOM     11  C   UNL     1       4.760   3.536  16.185  0.00  0.00    +0.000 C 
ATOM     12  C   UNL     1       4.106   3.349  17.558  0.00  0.00    +0.000 C 
ATOM     13  O   UNL     1       3.905   1.949  17.770  0.00  0.00    +0.000 OA
ATOM     14  C   UNL     1       3.430   1.621  19.078  0.00  0.00    +0.000 C 
ATOM     15  C   UNL     1       1.929   1.860  19.273  0.00  0.00    +0.000 C 
ATOM     16  O   UNL     1       1.583   3.232  19.449  0.00  0.00    +0.000 OA
ATOM     17  C   UNL     1       1.900   3.754  20.743  0.00  0.00    +0.000 C 
ATOM     18  C   UNL     1       1.601   5.252  20.749  0.00  0.00    +0.000 C 
ATOM     19  O   UNL     1       2.596   5.899  19.954  0.00  0.00    +0.000 OA
ENDROOT
BRANCH   1  20
ATOM     20  C   UNL     1       1.682  11.105  17.833  0.00  0.00    +0.000 C 
BRANCH  20  22
ATOM     21  C   UNL     1       2.440  13.439  18.406  0.00  0.00    +0.000 C 
ATOM     22  C   UNL     1       1.706  12.200  18.903  0.00  0.00    +0.000 C 
ENDBRANCH  20  22
ENDBRANCH   1  20
TORSDOF 2
ENDMDL
