MODEL 1
REMARK VINA RESULT:      -8.9      0.000      0.000
REMARK  Name = 
REMARK  10 active torsions:
REMARK  status: ('A' for Active; 'I' for Inactive)
REMARK    1  A    between atoms: C_1  and  C_2
REMARK    2  A    between atoms: C_2  and  C_3
REMARK    3  A    between atoms: C_3  and  C_4
REMARK    4  A    between atoms: C_4  and  C_5
REMARK    5  A    between atoms: C_5  and  C_6
REMARK    6  A    between atoms: C_9  and  C_10
REMARK    7  A    between atoms: N_12  and  C_13
REMARK    8  A    between atoms: N_22  and  C_23
REMARK    9  A    between atoms: C_23  and  C_24
REMARK   10  A    between atoms: C_24  and  C_25
REMARK                            x       y       z     vdW  Elec       q    Type
REMARK                         _______ _______ _______ _____ _____    ______ ____
ROOT
ATOM      1  C   UNL     1       7.863   6.622  18.415  0.00  0.00    +0.000 A 
ATOM      2  C   UNL     1       7.131   5.732  19.215  0.00  0.00    +0.000 A 
ATOM      3  C   UNL     1       6.335   4.702  18.665  0.00  0.00    +0.000 A 
ATOM      4  C   UNL     1       6.270   4.629  17.270  0.00  0.00    +0.000 A 
ATOM      5  C   UNL     1       7.081   5.434  16.473  0.00  0.00    +0.000 A 
ATOM      6  C   UNL     1       7.929   6.396  17.040  0.00  0.00    +0.000 A 
ATOM      7  N   UNL     1       6.828   5.234  15.154  0.00  0.00    +0.000 NA
ATOM      8  C   UNL     1       5.770   4.470  15.128  0.00  0.00    +0.000 A 
ATOM      9  N   UNL     1       5.003   4.353  14.034  0.00  0.00    +0.000 N 
ATOM     10  N   UNL     1       5.455   3.947  16.360  0.00  0.00    +0.000 N 
ATOM     11  H   UNL     1       5.302   5.038  13.342  0.00  0.00    +0.000 HD
ATOM     12  H   UNL     1       5.127   3.462  13.565  0.00  0.00    +0.000 HD
ENDROOT
BRANCH   1  15
ATOM     13  C   UNL     1       8.332   9.066  18.330  0.00  0.00    +0.000 C 
ATOM     14  O   UNL     1       7.560   9.324  17.399  0.00  0.00    +0.000 OA
ATOM     15  N   UNL     1       8.474   7.813  18.897  0.00  0.00    +0.000 N 
ATOM     16  H   UNL     1       9.234   7.670  19.551  0.00  0.00    +0.000 HD
BRANCH  13  20
ATOM     17  C   UNL     1      10.728  12.451  19.557  0.00  0.00    +0.000 A 
ATOM     18  C   UNL     1      10.639  12.052  18.222  0.00  0.00    +0.000 A 
ATOM     19  C   UNL     1       9.876  10.939  17.869  0.00  0.00    +0.000 A 
ATOM     20  C   UNL     1       9.185  10.189  18.838  0.00  0.00    +0.000 A 
ATOM     21  C   UNL     1       9.323  10.554  20.182  0.00  0.00    +0.000 A 
ATOM     22  C   UNL     1      10.090  11.675  20.536  0.00  0.00    +0.000 A 
BRANCH  17  23
ATOM     23  C   UNL     1      11.458  13.721  19.924  0.00  0.00    +0.000 C 
BRANCH  23  24
ATOM     24  C   UNL     1      10.727  14.996  19.475  0.00  0.00    +0.000 C 
BRANCH  24  25
ATOM     25  C   UNL     1       9.544  15.363  20.377  0.00  0.00    +0.000 C 
BRANCH  25  27
ATOM     26  C   UNL     1       8.344  15.054  18.185  0.00  0.00    +0.000 C 
ATOM     27  C   UNL     1       8.210  15.053  19.699  0.00  0.00    +0.000 C 
ENDBRANCH  25  27
ENDBRANCH  24  25
ENDBRANCH  23  24
ENDBRANCH  17  23
ENDBRANCH  13  20
ENDBRANCH   1  15
BRANCH  10  28
ATOM     28  C   UNL     1       4.307   3.139  16.754  0.00  0.00    +0.000 C 
BRANCH  28  29
ATOM     29  C   UNL     1       2.941   3.746  17.205  0.00  0.00    +0.000 C 
BRANCH  29  30
ATOM     30  C   UNL     1       2.760   4.114  18.669  0.00  0.00    +0.000 A 
ATOM     31  C   UNL     1       2.741   3.077  19.619  0.00  0.00    +0.000 A 
ATOM     32  C   UNL     1       2.319   3.321  20.921  0.00  0.00    +0.000 A 
ATOM     33  C   UNL     1       1.883   4.592  21.284  0.00  0.00    +0.000 A 
ATOM     34  C   UNL     1       1.982   5.665  20.393  0.00  0.00    +0.000 A 
ATOM     35  C   UNL     1       1.523   6.939  20.773  0.00  0.00    +0.000 A 
ATOM     36  C   UNL     1       1.663   8.037  19.930  0.00  0.00    +0.000 A 
ATOM     37  C   UNL     1       2.306   7.886  18.710  0.00  0.00    +0.000 A 
ATOM     38  C   UNL     1       2.727   6.615  18.302  0.00  0.00    +0.000 A 
ATOM     39  C   UNL     1       2.525   5.461  19.099  0.00  0.00    +0.000 A 
ENDBRANCH  29  30
ENDBRANCH  28  29
ENDBRANCH  10  28
TORSDOF 9
ENDMDL
MODEL 2
REMARK VINA RESULT:      -8.0      6.411     10.597
REMARK  Name = 
REMARK  10 active torsions:
REMARK  status: ('A' for Active; 'I' for Inactive)
REMARK    1  A    between atoms: C_1  and  C_2
REMARK    2  A    between atoms: C_2  and  C_3
REMARK    3  A    between atoms: C_3  and  C_4
REMARK    4  A    between atoms: C_4  and  C_5
REMARK    5  A    between atoms: C_5  and  C_6
REMARK    6  A    between atoms: C_9  and  C_10
REMARK    7  A    between atoms: N_12  and  C_13
REMARK    8  A    between atoms: N_22  and  C_23
REMARK    9  A    between atoms: C_23  and  C_24
REMARK   10  A    between atoms: C_24  and  C_25
REMARK                            x       y       z     vdW  Elec       q    Type
REMARK                         _______ _______ _______ _____ _____    ______ ____
ROOT
ATOM      1  C   UNL     1       1.468   8.812  18.824  0.00  0.00    +0.000 A 
ATOM      2  C   UNL     1       1.563   8.895  20.222  0.00  0.00    +0.000 A 
ATOM      3  C   UNL     1       0.883   9.884  20.967  0.00  0.00    +0.000 A 
ATOM      4  C   UNL     1       0.132  10.818  20.244  0.00  0.00    +0.000 A 
ATOM      5  C   UNL     1      -0.058  10.673  18.871  0.00  0.00    +0.000 A 
ATOM      6  C   UNL     1       0.559   9.635  18.159  0.00  0.00    +0.000 A 
ATOM      7  N   UNL     1      -0.776  11.707  18.364  0.00  0.00    +0.000 NA
ATOM      8  C   UNL     1      -0.874  12.562  19.346  0.00  0.00    +0.000 A 
ATOM      9  N   UNL     1      -1.186  13.851  19.140  0.00  0.00    +0.000 N 
ATOM     10  N   UNL     1      -0.472  12.040  20.553  0.00  0.00    +0.000 N 
ATOM     11  H   UNL     1      -1.180  14.039  18.139  0.00  0.00    +0.000 HD
ATOM     12  H   UNL     1      -2.133  14.072  19.426  0.00  0.00    +0.000 HD
ENDROOT
BRANCH   1  15
ATOM     13  C   UNL     1       2.684   6.705  18.297  0.00  0.00    +0.000 C 
ATOM     14  O   UNL     1       2.231   6.042  19.237  0.00  0.00    +0.000 OA
ATOM     15  N   UNL     1       2.313   8.006  18.012  0.00  0.00    +0.000 N 
ATOM     16  H   UNL     1       2.846   8.511  17.314  0.00  0.00    +0.000 HD
BRANCH  13  20
ATOM     17  C   UNL     1       5.501   4.614  15.767  0.00  0.00    +0.000 A 
ATOM     18  C   UNL     1       4.552   3.937  16.534  0.00  0.00    +0.000 A 
ATOM     19  C   UNL     1       3.677   4.646  17.358  0.00  0.00    +0.000 A 
ATOM     20  C   UNL     1       3.728   6.049  17.443  0.00  0.00    +0.000 A 
ATOM     21  C   UNL     1       4.719   6.722  16.720  0.00  0.00    +0.000 A 
ATOM     22  C   UNL     1       5.598   6.009  15.891  0.00  0.00    +0.000 A 
BRANCH  17  23
ATOM     23  C   UNL     1       6.369   3.857  14.790  0.00  0.00    +0.000 C 
BRANCH  23  24
ATOM     24  C   UNL     1       6.445   4.516  13.404  0.00  0.00    +0.000 C 
BRANCH  24  25
ATOM     25  C   UNL     1       6.617   3.507  12.265  0.00  0.00    +0.000 C 
BRANCH  25  27
ATOM     26  C   UNL     1       4.266   3.426  11.367  0.00  0.00    +0.000 C 
ATOM     27  C   UNL     1       5.362   2.654  12.082  0.00  0.00    +0.000 C 
ENDBRANCH  25  27
ENDBRANCH  24  25
ENDBRANCH  23  24
ENDBRANCH  17  23
ENDBRANCH  13  20
ENDBRANCH   1  15
BRANCH  10  28
ATOM     28  C   UNL     1      -0.343  12.700  21.847  0.00  0.00    +0.000 C 
BRANCH  28  29
ATOM     29  C   UNL     1      -1.309  12.442  23.045  0.00  0.00    +0.000 C 
BRANCH  29  30
ATOM     30  C   UNL     1      -2.690  13.078  23.012  0.00  0.00    +0.000 A 
ATOM     31  C   UNL     1      -3.639  12.561  22.111  0.00  0.00    +0.000 A 
ATOM     32  C   UNL     1      -4.813  13.258  21.847  0.00  0.00    +0.000 A 
ATOM     33  C   UNL     1      -5.042  14.490  22.454  0.00  0.00    +0.000 A 
ATOM     34  C   UNL     1      -4.167  14.984  23.426  0.00  0.00    +0.000 A 
ATOM     35  C   UNL     1      -4.407  16.237  24.017  0.00  0.00    +0.000 A 
ATOM     36  C   UNL     1      -3.587  16.726  25.029  0.00  0.00    +0.000 A 
ATOM     37  C   UNL     1      -2.538  15.948  25.497  0.00  0.00    +0.000 A 
ATOM     38  C   UNL     1      -2.262  14.718  24.887  0.00  0.00    +0.000 A 
ATOM     39  C   UNL     1      -3.026  14.228  23.798  0.00  0.00    +0.000 A 
ENDBRANCH  29  30
ENDBRANCH  28  29
ENDBRANCH  10  28
TORSDOF 9
ENDMDL
MODEL 3
REMARK VINA RESULT:      -7.8      6.820     10.757
REMARK  Name = 
REMARK  10 active torsions:
REMARK  status: ('A' for Active; 'I' for Inactive)
REMARK    1  A    between atoms: C_1  and  C_2
REMARK    2  A    between atoms: C_2  and  C_3
REMARK    3  A    between atoms: C_3  and  C_4
REMARK    4  A    between atoms: C_4  and  C_5
REMARK    5  A    between atoms: C_5  and  C_6
REMARK    6  A    between atoms: C_9  and  C_10
REMARK    7  A    between atoms: N_12  and  C_13
REMARK    8  A    between atoms: N_22  and  C_23
REMARK    9  A    between atoms: C_23  and  C_24
REMARK   10  A    between atoms: C_24  and  C_25
REMARK                            x       y       z     vdW  Elec       q    Type
REMARK                         _______ _______ _______ _____ _____    ______ ____
ROOT
ATOM      1  C   UNL     1       1.068  10.518  20.538  0.00  0.00    +0.000 A 
ATOM      2  C   UNL     1       0.854  11.764  19.927  0.00  0.00    +0.000 A 
ATOM      3  C   UNL     1      -0.058  12.711  20.444  0.00  0.00    +0.000 A 
ATOM      4  C   UNL     1      -0.783  12.337  21.582  0.00  0.00    +0.000 A 
ATOM      5  C   UNL     1      -0.494  11.152  22.256  0.00  0.00    +0.000 A 
ATOM      6  C   UNL     1       0.475  10.261  21.774  0.00  0.00    +0.000 A 
ATOM      7  N   UNL     1      -1.341  10.963  23.300  0.00  0.00    +0.000 NA
ATOM      8  C   UNL     1      -2.243  11.898  23.175  0.00  0.00    +0.000 A 
ATOM      9  N   UNL     1      -3.436  11.823  23.785  0.00  0.00    +0.000 N 
ATOM     10  N   UNL     1      -1.902  12.852  22.244  0.00  0.00    +0.000 N 
ATOM     11  H   UNL     1      -3.539  10.901  24.203  0.00  0.00    +0.000 HD
ATOM     12  H   UNL     1      -3.510  12.459  24.571  0.00  0.00    +0.000 HD
ENDROOT
BRANCH   1  15
ATOM     13  C   UNL     1       1.546   8.952  18.662  0.00  0.00    +0.000 C 
ATOM     14  O   UNL     1       0.767   9.464  17.850  0.00  0.00    +0.000 OA
ATOM     15  N   UNL     1       1.778   9.444  19.934  0.00  0.00    +0.000 N 
ATOM     16  H   UNL     1       2.318   8.874  20.573  0.00  0.00    +0.000 HD
BRANCH  13  20
ATOM     17  C   UNL     1       3.814   5.467  17.472  0.00  0.00    +0.000 A 
ATOM     18  C   UNL     1       4.232   6.763  17.164  0.00  0.00    +0.000 A 
ATOM     19  C   UNL     1       3.460   7.860  17.542  0.00  0.00    +0.000 A 
ATOM     20  C   UNL     1       2.246   7.697  18.235  0.00  0.00    +0.000 A 
ATOM     21  C   UNL     1       1.799   6.396  18.491  0.00  0.00    +0.000 A 
ATOM     22  C   UNL     1       2.577   5.292  18.110  0.00  0.00    +0.000 A 
BRANCH  17  23
ATOM     23  C   UNL     1       4.706   4.288  17.165  0.00  0.00    +0.000 C 
BRANCH  23  24
ATOM     24  C   UNL     1       5.548   4.474  15.893  0.00  0.00    +0.000 C 
BRANCH  24  25
ATOM     25  C   UNL     1       7.020   4.784  16.185  0.00  0.00    +0.000 C 
BRANCH  25  27
ATOM     26  C   UNL     1       7.667   5.942  18.325  0.00  0.00    +0.000 C 
ATOM     27  C   UNL     1       7.342   4.611  17.669  0.00  0.00    +0.000 C 
ENDBRANCH  25  27
ENDBRANCH  24  25
ENDBRANCH  23  24
ENDBRANCH  17  23
ENDBRANCH  13  20
ENDBRANCH   1  15
BRANCH  10  28
ATOM     28  C   UNL     1      -2.679  13.984  21.755  0.00  0.00    +0.000 C 
BRANCH  28  29
ATOM     29  C   UNL     1      -3.746  13.871  20.622  0.00  0.00    +0.000 C 
BRANCH  29  30
ATOM     30  C   UNL     1      -5.140  13.383  20.985  0.00  0.00    +0.000 A 
ATOM     31  C   UNL     1      -5.766  13.942  22.114  0.00  0.00    +0.000 A 
ATOM     32  C   UNL     1      -6.911  13.358  22.646  0.00  0.00    +0.000 A 
ATOM     33  C   UNL     1      -7.427  12.196  22.079  0.00  0.00    +0.000 A 
ATOM     34  C   UNL     1      -6.886  11.673  20.900  0.00  0.00    +0.000 A 
ATOM     35  C   UNL     1      -7.411  10.489  20.350  0.00  0.00    +0.000 A 
ATOM     36  C   UNL     1      -6.933   9.979  19.148  0.00  0.00    +0.000 A 
ATOM     37  C   UNL     1      -5.950  10.669  18.453  0.00  0.00    +0.000 A 
ATOM     38  C   UNL     1      -5.388  11.823  19.012  0.00  0.00    +0.000 A 
ATOM     39  C   UNL     1      -5.793  12.325  20.275  0.00  0.00    +0.000 A 
ENDBRANCH  29  30
ENDBRANCH  28  29
ENDBRANCH  10  28
TORSDOF 9
ENDMDL
MODEL 4
REMARK VINA RESULT:      -7.8      6.594     10.613
REMARK  Name = 
REMARK  10 active torsions:
REMARK  status: ('A' for Active; 'I' for Inactive)
REMARK    1  A    between atoms: C_1  and  C_2
REMARK    2  A    between atoms: C_2  and  C_3
REMARK    3  A    between atoms: C_3  and  C_4
REMARK    4  A    between atoms: C_4  and  C_5
REMARK    5  A    between atoms: C_5  and  C_6
REMARK    6  A    between atoms: C_9  and  C_10
REMARK    7  A    between atoms: N_12  and  C_13
REMARK    8  A    between atoms: N_22  and  C_23
REMARK    9  A    between atoms: C_23  and  C_24
REMARK   10  A    between atoms: C_24  and  C_25
REMARK                            x       y       z     vdW  Elec       q    Type
REMARK                         _______ _______ _______ _____ _____    ______ ____
ROOT
ATOM      1  C   UNL     1       1.419   8.656  19.287  0.00  0.00    +0.000 A 
ATOM      2  C   UNL     1       1.217   8.405  20.653  0.00  0.00    +0.000 A 
ATOM      3  C   UNL     1       0.373   9.209  21.451  0.00  0.00    +0.000 A 
ATOM      4  C   UNL     1      -0.230  10.307  20.829  0.00  0.00    +0.000 A 
ATOM      5  C   UNL     1      -0.125  10.495  19.452  0.00  0.00    +0.000 A 
ATOM      6  C   UNL     1       0.651   9.637  18.660  0.00  0.00    +0.000 A 
ATOM      7  N   UNL     1      -0.744  11.640  19.064  0.00  0.00    +0.000 NA
ATOM      8  C   UNL     1      -1.066  12.241  20.178  0.00  0.00    +0.000 A 
ATOM      9  N   UNL     1      -1.357  13.550  20.222  0.00  0.00    +0.000 N 
ATOM     10  N   UNL     1      -0.914  11.439  21.284  0.00  0.00    +0.000 N 
ATOM     11  H   UNL     1      -1.146  13.969  19.318  0.00  0.00    +0.000 HD
ATOM     12  H   UNL     1      -2.348  13.724  20.347  0.00  0.00    +0.000 HD
ENDROOT
BRANCH   1  15
ATOM     13  C   UNL     1       2.741   6.693  18.514  0.00  0.00    +0.000 C 
ATOM     14  O   UNL     1       2.090   5.837  19.125  0.00  0.00    +0.000 OA
ATOM     15  N   UNL     1       2.434   8.041  18.503  0.00  0.00    +0.000 N 
ATOM     16  H   UNL     1       3.108   8.679  18.097  0.00  0.00    +0.000 HD
BRANCH  13  20
ATOM     17  C   UNL     1       6.080   5.167  16.228  0.00  0.00    +0.000 A 
ATOM     18  C   UNL     1       5.002   4.358  16.594  0.00  0.00    +0.000 A 
ATOM     19  C   UNL     1       3.956   4.881  17.354  0.00  0.00    +0.000 A 
ATOM     20  C   UNL     1       3.958   6.223  17.775  0.00  0.00    +0.000 A 
ATOM     21  C   UNL     1       5.066   7.016  17.459  0.00  0.00    +0.000 A 
ATOM     22  C   UNL     1       6.118   6.490  16.694  0.00  0.00    +0.000 A 
BRANCH  17  23
ATOM     23  C   UNL     1       7.153   4.633  15.310  0.00  0.00    +0.000 C 
BRANCH  23  24
ATOM     24  C   UNL     1       6.751   4.649  13.827  0.00  0.00    +0.000 C 
BRANCH  24  25
ATOM     25  C   UNL     1       5.766   3.535  13.457  0.00  0.00    +0.000 C 
BRANCH  25  27
ATOM     26  C   UNL     1       4.337   3.238  11.405  0.00  0.00    +0.000 C 
ATOM     27  C   UNL     1       5.754   3.279  11.951  0.00  0.00    +0.000 C 
ENDBRANCH  25  27
ENDBRANCH  24  25
ENDBRANCH  23  24
ENDBRANCH  17  23
ENDBRANCH  13  20
ENDBRANCH   1  15
BRANCH  10  28
ATOM     28  C   UNL     1      -1.074  11.771  22.695  0.00  0.00    +0.000 C 
BRANCH  28  29
ATOM     29  C   UNL     1      -2.463  11.967  23.380  0.00  0.00    +0.000 C 
BRANCH  29  30
ATOM     30  C   UNL     1      -2.984  13.384  23.567  0.00  0.00    +0.000 A 
ATOM     31  C   UNL     1      -2.111  14.350  24.098  0.00  0.00    +0.000 A 
ATOM     32  C   UNL     1      -2.598  15.577  24.535  0.00  0.00    +0.000 A 
ATOM     33  C   UNL     1      -3.963  15.844  24.476  0.00  0.00    +0.000 A 
ATOM     34  C   UNL     1      -4.843  14.946  23.865  0.00  0.00    +0.000 A 
ATOM     35  C   UNL     1      -6.221  15.225  23.829  0.00  0.00    +0.000 A 
ATOM     36  C   UNL     1      -7.112  14.380  23.176  0.00  0.00    +0.000 A 
ATOM     37  C   UNL     1      -6.632  13.262  22.511  0.00  0.00    +0.000 A 
ATOM     38  C   UNL     1      -5.269  12.948  22.577  0.00  0.00    +0.000 A 
ATOM     39  C   UNL     1      -4.346  13.742  23.304  0.00  0.00    +0.000 A 
ENDBRANCH  29  30
ENDBRANCH  28  29
ENDBRANCH  10  28
TORSDOF 9
ENDMDL
MODEL 5
REMARK VINA RESULT:      -7.8      6.151     10.311
REMARK  Name = 
REMARK  10 active torsions:
REMARK  status: ('A' for Active; 'I' for Inactive)
REMARK    1  A    between atoms: C_1  and  C_2
REMARK    2  A    between atoms: C_2  and  C_3
REMARK    3  A    between atoms: C_3  and  C_4
REMARK    4  A    between atoms: C_4  and  C_5
REMARK    5  A    between atoms: C_5  and  C_6
REMARK    6  A    between atoms: C_9  and  C_10
REMARK    7  A    between atoms: N_12  and  C_13
REMARK    8  A    between atoms: N_22  and  C_23
REMARK    9  A    between atoms: C_23  and  C_24
REMARK   10  A    between atoms: C_24  and  C_25
REMARK                            x       y       z     vdW  Elec       q    Type
REMARK                         _______ _______ _______ _____ _____    ______ ____
ROOT
ATOM      1  C   UNL     1       1.707   9.612  18.125  0.00  0.00    +0.000 A 
ATOM      2  C   UNL     1       2.255  10.841  18.526  0.00  0.00    +0.000 A 
ATOM      3  C   UNL     1       1.452  11.916  18.968  0.00  0.00    +0.000 A 
ATOM      4  C   UNL     1       0.067  11.723  18.950  0.00  0.00    +0.000 A 
ATOM      5  C   UNL     1      -0.476  10.472  18.661  0.00  0.00    +0.000 A 
ATOM      6  C   UNL     1       0.342   9.390  18.306  0.00  0.00    +0.000 A 
ATOM      7  N   UNL     1      -1.834  10.516  18.655  0.00  0.00    +0.000 NA
ATOM      8  C   UNL     1      -2.129  11.784  18.751  0.00  0.00    +0.000 A 
ATOM      9  N   UNL     1      -3.335  12.263  18.412  0.00  0.00    +0.000 N 
ATOM     10  N   UNL     1      -1.043  12.565  19.072  0.00  0.00    +0.000 N 
ATOM     11  H   UNL     1      -3.872  11.523  17.962  0.00  0.00    +0.000 HD
ATOM     12  H   UNL     1      -3.895  12.515  19.219  0.00  0.00    +0.000 HD
ENDROOT
BRANCH   1  15
ATOM     13  C   UNL     1       2.922   7.442  18.032  0.00  0.00    +0.000 C 
ATOM     14  O   UNL     1       2.683   7.097  19.196  0.00  0.00    +0.000 OA
ATOM     15  N   UNL     1       2.435   8.596  17.447  0.00  0.00    +0.000 N 
ATOM     16  H   UNL     1       2.805   8.864  16.543  0.00  0.00    +0.000 HD
BRANCH  13  20
ATOM     17  C   UNL     1       5.333   4.690  15.725  0.00  0.00    +0.000 A 
ATOM     18  C   UNL     1       4.451   4.251  16.714  0.00  0.00    +0.000 A 
ATOM     19  C   UNL     1       3.710   5.172  17.455  0.00  0.00    +0.000 A 
ATOM     20  C   UNL     1       3.831   6.555  17.234  0.00  0.00    +0.000 A 
ATOM     21  C   UNL     1       4.758   6.997  16.284  0.00  0.00    +0.000 A 
ATOM     22  C   UNL     1       5.504   6.071  15.538  0.00  0.00    +0.000 A 
BRANCH  17  23
ATOM     23  C   UNL     1       6.048   3.692  14.846  0.00  0.00    +0.000 C 
BRANCH  23  24
ATOM     24  C   UNL     1       6.731   4.331  13.627  0.00  0.00    +0.000 C 
BRANCH  24  25
ATOM     25  C   UNL     1       6.465   3.574  12.321  0.00  0.00    +0.000 C 
BRANCH  25  27
ATOM     26  C   UNL     1       4.186   3.445  11.260  0.00  0.00    +0.000 C 
ATOM     27  C   UNL     1       5.098   2.892  12.342  0.00  0.00    +0.000 C 
ENDBRANCH  25  27
ENDBRANCH  24  25
ENDBRANCH  23  24
ENDBRANCH  17  23
ENDBRANCH  13  20
ENDBRANCH   1  15
BRANCH  10  28
ATOM     28  C   UNL     1      -0.947  14.017  19.172  0.00  0.00    +0.000 C 
BRANCH  28  29
ATOM     29  C   UNL     1      -1.235  14.809  20.485  0.00  0.00    +0.000 C 
BRANCH  29  30
ATOM     30  C   UNL     1      -1.974  14.102  21.610  0.00  0.00    +0.000 A 
ATOM     31  C   UNL     1      -1.216  13.403  22.567  0.00  0.00    +0.000 A 
ATOM     32  C   UNL     1      -1.834  12.528  23.454  0.00  0.00    +0.000 A 
ATOM     33  C   UNL     1      -3.208  12.316  23.379  0.00  0.00    +0.000 A 
ATOM     34  C   UNL     1      -4.002  13.068  22.506  0.00  0.00    +0.000 A 
ATOM     35  C   UNL     1      -5.386  12.830  22.434  0.00  0.00    +0.000 A 
ATOM     36  C   UNL     1      -6.209  13.601  21.619  0.00  0.00    +0.000 A 
ATOM     37  C   UNL     1      -5.665  14.654  20.897  0.00  0.00    +0.000 A 
ATOM     38  C   UNL     1      -4.282  14.872  20.926  0.00  0.00    +0.000 A 
ATOM     39  C   UNL     1      -3.404  14.053  21.680  0.00  0.00    +0.000 A 
ENDBRANCH  29  30
ENDBRANCH  28  29
ENDBRANCH  10  28
TORSDOF 9
ENDMDL
MODEL 6
REMARK VINA RESULT:      -7.7      5.674     10.480
REMARK  Name = 
REMARK  10 active torsions:
REMARK  status: ('A' for Active; 'I' for Inactive)
REMARK    1  A    between atoms: C_1  and  C_2
REMARK    2  A    between atoms: C_2  and  C_3
REMARK    3  A    between atoms: C_3  and  C_4
REMARK    4  A    between atoms: C_4  and  C_5
REMARK    5  A    between atoms: C_5  and  C_6
REMARK    6  A    between atoms: C_9  and  C_10
REMARK    7  A    between atoms: N_12  and  C_13
REMARK    8  A    between atoms: N_22  and  C_23
REMARK    9  A    between atoms: C_23  and  C_24
REMARK   10  A    between atoms: C_24  and  C_25
REMARK                            x       y       z     vdW  Elec       q    Type
REMARK                         _______ _______ _______ _____ _____    ______ ____
ROOT
ATOM      1  C   UNL     1       1.244   9.331  18.414  0.00  0.00    +0.000 A 
ATOM      2  C   UNL     1       1.625  10.404  19.235  0.00  0.00    +0.000 A 
ATOM      3  C   UNL     1       0.716  11.408  19.635  0.00  0.00    +0.000 A 
ATOM      4  C   UNL     1      -0.590  11.315  19.139  0.00  0.00    +0.000 A 
ATOM      5  C   UNL     1      -1.003  10.195  18.419  0.00  0.00    +0.000 A 
ATOM      6  C   UNL     1      -0.106   9.165  18.102  0.00  0.00    +0.000 A 
ATOM      7  N   UNL     1      -2.286  10.329  17.998  0.00  0.00    +0.000 NA
ATOM      8  C   UNL     1      -2.606  11.563  18.282  0.00  0.00    +0.000 A 
ATOM      9  N   UNL     1      -3.644  12.182  17.700  0.00  0.00    +0.000 N 
ATOM     10  N   UNL     1      -1.686  12.182  19.095  0.00  0.00    +0.000 N 
ATOM     11  H   UNL     1      -4.003  11.595  16.949  0.00  0.00    +0.000 HD
ATOM     12  H   UNL     1      -4.435  12.288  18.326  0.00  0.00    +0.000 HD
ENDROOT
BRANCH   1  15
ATOM     13  C   UNL     1       2.607   7.250  18.327  0.00  0.00    +0.000 C 
ATOM     14  O   UNL     1       2.177   6.757  19.377  0.00  0.00    +0.000 OA
ATOM     15  N   UNL     1       2.158   8.440  17.787  0.00  0.00    +0.000 N 
ATOM     16  H   UNL     1       2.673   8.833  17.007  0.00  0.00    +0.000 HD
BRANCH  13  20
ATOM     17  C   UNL     1       5.609   4.906  16.277  0.00  0.00    +0.000 A 
ATOM     18  C   UNL     1       4.649   4.319  17.103  0.00  0.00    +0.000 A 
ATOM     19  C   UNL     1       3.713   5.112  17.768  0.00  0.00    +0.000 A 
ATOM     20  C   UNL     1       3.711   6.512  17.632  0.00  0.00    +0.000 A 
ATOM     21  C   UNL     1       4.711   7.103  16.851  0.00  0.00    +0.000 A 
ATOM     22  C   UNL     1       5.652   6.306  16.182  0.00  0.00    +0.000 A 
BRANCH  17  23
ATOM     23  C   UNL     1       6.546   4.042  15.468  0.00  0.00    +0.000 C 
BRANCH  23  24
ATOM     24  C   UNL     1       6.495   4.331  13.960  0.00  0.00    +0.000 C 
BRANCH  24  25
ATOM     25  C   UNL     1       5.180   3.892  13.306  0.00  0.00    +0.000 C 
BRANCH  25  27
ATOM     26  C   UNL     1       4.160   3.101  11.145  0.00  0.00    +0.000 C 
ATOM     27  C   UNL     1       5.430   3.184  11.975  0.00  0.00    +0.000 C 
ENDBRANCH  25  27
ENDBRANCH  24  25
ENDBRANCH  23  24
ENDBRANCH  17  23
ENDBRANCH  13  20
ENDBRANCH   1  15
BRANCH  10  28
ATOM     28  C   UNL     1      -1.638  13.567  19.548  0.00  0.00    +0.000 C 
BRANCH  28  29
ATOM     29  C   UNL     1      -0.350  14.244  20.111  0.00  0.00    +0.000 C 
BRANCH  29  30
ATOM     30  C   UNL     1       0.173  15.494  19.421  0.00  0.00    +0.000 A 
ATOM     31  C   UNL     1      -0.721  16.560  19.210  0.00  0.00    +0.000 A 
ATOM     32  C   UNL     1      -0.381  17.608  18.361  0.00  0.00    +0.000 A 
ATOM     33  C   UNL     1       0.839  17.591  17.690  0.00  0.00    +0.000 A 
ATOM     34  C   UNL     1       1.788  16.598  17.952  0.00  0.00    +0.000 A 
ATOM     35  C   UNL     1       3.008  16.589  17.253  0.00  0.00    +0.000 A 
ATOM     36  C   UNL     1       3.994  15.649  17.536  0.00  0.00    +0.000 A 
ATOM     37  C   UNL     1       3.792  14.730  18.554  0.00  0.00    +0.000 A 
ATOM     38  C   UNL     1       2.564  14.700  19.227  0.00  0.00    +0.000 A 
ATOM     39  C   UNL     1       1.507  15.588  18.908  0.00  0.00    +0.000 A 
ENDBRANCH  29  30
ENDBRANCH  28  29
ENDBRANCH  10  28
TORSDOF 9
ENDMDL
MODEL 7
REMARK VINA RESULT:      -7.7      5.248      9.573
REMARK  Name = 
REMARK  10 active torsions:
REMARK  status: ('A' for Active; 'I' for Inactive)
REMARK    1  A    between atoms: C_1  and  C_2
REMARK    2  A    between atoms: C_2  and  C_3
REMARK    3  A    between atoms: C_3  and  C_4
REMARK    4  A    between atoms: C_4  and  C_5
REMARK    5  A    between atoms: C_5  and  C_6
REMARK    6  A    between atoms: C_9  and  C_10
REMARK    7  A    between atoms: N_12  and  C_13
REMARK    8  A    between atoms: N_22  and  C_23
REMARK    9  A    between atoms: C_23  and  C_24
REMARK   10  A    between atoms: C_24  and  C_25
REMARK                            x       y       z     vdW  Elec       q    Type
REMARK                         _______ _______ _______ _____ _____    ______ ____
ROOT
ATOM      1  C   UNL     1       2.877   7.771  18.144  0.00  0.00    +0.000 A 
ATOM      2  C   UNL     1       2.372   8.981  17.642  0.00  0.00    +0.000 A 
ATOM      3  C   UNL     1       1.502   9.803  18.391  0.00  0.00    +0.000 A 
ATOM      4  C   UNL     1       1.122   9.339  19.655  0.00  0.00    +0.000 A 
ATOM      5  C   UNL     1       1.707   8.199  20.203  0.00  0.00    +0.000 A 
ATOM      6  C   UNL     1       2.635   7.439  19.476  0.00  0.00    +0.000 A 
ATOM      7  N   UNL     1       1.166   7.903  21.412  0.00  0.00    +0.000 NA
ATOM      8  C   UNL     1       0.152   8.716  21.535  0.00  0.00    +0.000 A 
ATOM      9  N   UNL     1      -0.841   8.490  22.408  0.00  0.00    +0.000 N 
ATOM     10  N   UNL     1       0.140   9.707  20.581  0.00  0.00    +0.000 N 
ATOM     11  H   UNL     1      -0.727   7.561  22.810  0.00  0.00    +0.000 HD
ATOM     12  H   UNL     1      -0.802   9.110  23.210  0.00  0.00    +0.000 HD
ENDROOT
BRANCH   1  15
ATOM     13  C   UNL     1       4.916   6.722  17.174  0.00  0.00    +0.000 C 
ATOM     14  O   UNL     1       5.735   7.429  17.774  0.00  0.00    +0.000 OA
ATOM     15  N   UNL     1       3.548   6.796  17.354  0.00  0.00    +0.000 N 
ATOM     16  H   UNL     1       2.955   6.282  16.713  0.00  0.00    +0.000 HD
BRANCH  13  20
ATOM     17  C   UNL     1       6.236   3.948  14.130  0.00  0.00    +0.000 A 
ATOM     18  C   UNL     1       4.924   3.954  14.608  0.00  0.00    +0.000 A 
ATOM     19  C   UNL     1       4.544   4.847  15.609  0.00  0.00    +0.000 A 
ATOM     20  C   UNL     1       5.461   5.756  16.166  0.00  0.00    +0.000 A 
ATOM     21  C   UNL     1       6.790   5.709  15.729  0.00  0.00    +0.000 A 
ATOM     22  C   UNL     1       7.172   4.810  14.721  0.00  0.00    +0.000 A 
BRANCH  17  23
ATOM     23  C   UNL     1       6.618   3.063  12.968  0.00  0.00    +0.000 C 
BRANCH  23  24
ATOM     24  C   UNL     1       5.966   3.482  11.641  0.00  0.00    +0.000 C 
BRANCH  24  25
ATOM     25  C   UNL     1       4.774   2.603  11.250  0.00  0.00    +0.000 C 
BRANCH  25  27
ATOM     26  C   UNL     1       3.204   3.898   9.767  0.00  0.00    +0.000 C 
ATOM     27  C   UNL     1       3.481   3.416  11.181  0.00  0.00    +0.000 C 
ENDBRANCH  25  27
ENDBRANCH  24  25
ENDBRANCH  23  24
ENDBRANCH  17  23
ENDBRANCH  13  20
ENDBRANCH   1  15
BRANCH  10  28
ATOM     28  C   UNL     1      -0.864  10.733  20.327  0.00  0.00    +0.000 C 
BRANCH  28  29
ATOM     29  C   UNL     1      -1.019  11.465  18.958  0.00  0.00    +0.000 C 
BRANCH  29  30
ATOM     30  C   UNL     1      -2.164  11.056  18.043  0.00  0.00    +0.000 A 
ATOM     31  C   UNL     1      -1.873  10.230  16.942  0.00  0.00    +0.000 A 
ATOM     32  C   UNL     1      -2.812  10.041  15.935  0.00  0.00    +0.000 A 
ATOM     33  C   UNL     1      -4.039  10.697  15.996  0.00  0.00    +0.000 A 
ATOM     34  C   UNL     1      -4.396  11.445  17.122  0.00  0.00    +0.000 A 
ATOM     35  C   UNL     1      -5.634  12.112  17.160  0.00  0.00    +0.000 A 
ATOM     36  C   UNL     1      -6.041  12.814  18.290  0.00  0.00    +0.000 A 
ATOM     37  C   UNL     1      -5.234  12.822  19.418  0.00  0.00    +0.000 A 
ATOM     38  C   UNL     1      -3.980  12.200  19.378  0.00  0.00    +0.000 A 
ATOM     39  C   UNL     1      -3.498  11.547  18.215  0.00  0.00    +0.000 A 
ENDBRANCH  29  30
ENDBRANCH  28  29
ENDBRANCH  10  28
TORSDOF 9
ENDMDL
MODEL 8
REMARK VINA RESULT:      -7.7      6.768     11.239
REMARK  Name = 
REMARK  10 active torsions:
REMARK  status: ('A' for Active; 'I' for Inactive)
REMARK    1  A    between atoms: C_1  and  C_2
REMARK    2  A    between atoms: C_2  and  C_3
REMARK    3  A    between atoms: C_3  and  C_4
REMARK    4  A    between atoms: C_4  and  C_5
REMARK    5  A    between atoms: C_5  and  C_6
REMARK    6  A    between atoms: C_9  and  C_10
REMARK    7  A    between atoms: N_12  and  C_13
REMARK    8  A    between atoms: N_22  and  C_23
REMARK    9  A    between atoms: C_23  and  C_24
REMARK   10  A    between atoms: C_24  and  C_25
REMARK                            x       y       z     vdW  Elec       q    Type
REMARK                         _______ _______ _______ _____ _____    ______ ____
ROOT
ATOM      1  C   UNL     1       0.311  10.432  19.594  0.00  0.00    +0.000 A 
ATOM      2  C   UNL     1      -1.076  10.550  19.413  0.00  0.00    +0.000 A 
ATOM      3  C   UNL     1      -1.812  11.644  19.919  0.00  0.00    +0.000 A 
ATOM      4  C   UNL     1      -1.103  12.600  20.654  0.00  0.00    +0.000 A 
ATOM      5  C   UNL     1       0.287  12.548  20.740  0.00  0.00    +0.000 A 
ATOM      6  C   UNL     1       1.011  11.497  20.160  0.00  0.00    +0.000 A 
ATOM      7  N   UNL     1       0.767  13.540  21.534  0.00  0.00    +0.000 NA
ATOM      8  C   UNL     1      -0.292  14.079  22.075  0.00  0.00    +0.000 A 
ATOM      9  N   UNL     1      -0.221  14.834  23.182  0.00  0.00    +0.000 N 
ATOM     10  N   UNL     1      -1.465  13.661  21.490  0.00  0.00    +0.000 N 
ATOM     11  H   UNL     1       0.722  14.777  23.563  0.00  0.00    +0.000 HD
ATOM     12  H   UNL     1      -0.347  15.821  22.988  0.00  0.00    +0.000 HD
ENDROOT
BRANCH   1  15
ATOM     13  C   UNL     1       1.880   9.057  18.236  0.00  0.00    +0.000 C 
ATOM     14  O   UNL     1       2.165   9.938  17.416  0.00  0.00    +0.000 OA
ATOM     15  N   UNL     1       1.054   9.249  19.327  0.00  0.00    +0.000 N 
ATOM     16  H   UNL     1       0.765   8.433  19.854  0.00  0.00    +0.000 HD
BRANCH  13  20
ATOM     17  C   UNL     1       3.777   5.222  17.606  0.00  0.00    +0.000 A 
ATOM     18  C   UNL     1       4.420   6.424  17.304  0.00  0.00    +0.000 A 
ATOM     19  C   UNL     1       3.765   7.640  17.497  0.00  0.00    +0.000 A 
ATOM     20  C   UNL     1       2.449   7.692  17.991  0.00  0.00    +0.000 A 
ATOM     21  C   UNL     1       1.785   6.485  18.236  0.00  0.00    +0.000 A 
ATOM     22  C   UNL     1       2.444   5.262  18.043  0.00  0.00    +0.000 A 
BRANCH  17  23
ATOM     23  C   UNL     1       4.525   3.914  17.507  0.00  0.00    +0.000 C 
BRANCH  23  24
ATOM     24  C   UNL     1       4.333   3.006  18.731  0.00  0.00    +0.000 C 
BRANCH  24  25
ATOM     25  C   UNL     1       3.275   1.919  18.516  0.00  0.00    +0.000 C 
BRANCH  25  27
ATOM     26  C   UNL     1       0.792   2.245  18.778  0.00  0.00    +0.000 C 
ATOM     27  C   UNL     1       2.116   2.068  19.502  0.00  0.00    +0.000 C 
ENDBRANCH  25  27
ENDBRANCH  24  25
ENDBRANCH  23  24
ENDBRANCH  17  23
ENDBRANCH  13  20
ENDBRANCH   1  15
BRANCH  10  28
ATOM     28  C   UNL     1      -2.841  13.957  21.869  0.00  0.00    +0.000 C 
BRANCH  28  29
ATOM     29  C   UNL     1      -3.977  14.236  20.836  0.00  0.00    +0.000 C 
BRANCH  29  30
ATOM     30  C   UNL     1      -5.346  13.620  21.079  0.00  0.00    +0.000 A 
ATOM     31  C   UNL     1      -6.087  14.065  22.188  0.00  0.00    +0.000 A 
ATOM     32  C   UNL     1      -7.211  13.364  22.612  0.00  0.00    +0.000 A 
ATOM     33  C   UNL     1      -7.592  12.196  21.955  0.00  0.00    +0.000 A 
ATOM     34  C   UNL     1      -6.935  11.782  20.792  0.00  0.00    +0.000 A 
ATOM     35  C   UNL     1      -7.323  10.593  20.150  0.00  0.00    +0.000 A 
ATOM     36  C   UNL     1      -6.728  10.188  18.960  0.00  0.00    +0.000 A 
ATOM     37  C   UNL     1      -5.764  10.991  18.368  0.00  0.00    +0.000 A 
ATOM     38  C   UNL     1      -5.337  12.154  19.020  0.00  0.00    +0.000 A 
ATOM     39  C   UNL     1      -5.862  12.553  20.275  0.00  0.00    +0.000 A 
ENDBRANCH  29  30
ENDBRANCH  28  29
ENDBRANCH  10  28
TORSDOF 9
ENDMDL
MODEL 9
REMARK VINA RESULT:      -7.7      5.621     10.062
REMARK  Name = 
REMARK  10 active torsions:
REMARK  status: ('A' for Active; 'I' for Inactive)
REMARK    1  A    between atoms: C_1  and  C_2
REMARK    2  A    between atoms: C_2  and  C_3
REMARK    3  A    between atoms: C_3  and  C_4
REMARK    4  A    between atoms: C_4  and  C_5
REMARK    5  A    between atoms: C_5  and  C_6
REMARK    6  A    between atoms: C_9  and  C_10
REMARK    7  A    between atoms: N_12  and  C_13
REMARK    8  A    between atoms: N_22  and  C_23
REMARK    9  A    between atoms: C_23  and  C_24
REMARK   10  A    between atoms: C_24  and  C_25
REMARK                            x       y       z     vdW  Elec       q    Type
REMARK                         _______ _______ _______ _____ _____    ______ ____
ROOT
ATOM      1  C   UNL     1       1.972   9.011  18.812  0.00  0.00    +0.000 A 
ATOM      2  C   UNL     1       1.542  10.263  18.345  0.00  0.00    +0.000 A 
ATOM      3  C   UNL     1       0.794  11.152  19.148  0.00  0.00    +0.000 A 
ATOM      4  C   UNL     1       0.457  10.713  20.433  0.00  0.00    +0.000 A 
ATOM      5  C   UNL     1       0.975   9.523  20.941  0.00  0.00    +0.000 A 
ATOM      6  C   UNL     1       1.786   8.692  20.157  0.00  0.00    +0.000 A 
ATOM      7  N   UNL     1       0.487   9.266  22.182  0.00  0.00    +0.000 NA
ATOM      8  C   UNL     1      -0.444  10.162  22.369  0.00  0.00    +0.000 A 
ATOM      9  N   UNL     1      -1.396  10.017  23.303  0.00  0.00    +0.000 N 
ATOM     10  N   UNL     1      -0.430  11.157  21.419  0.00  0.00    +0.000 N 
ATOM     11  H   UNL     1      -1.337   9.078  23.696  0.00  0.00    +0.000 HD
ATOM     12  H   UNL     1      -1.254  10.625  24.102  0.00  0.00    +0.000 HD
ENDROOT
BRANCH   1  15
ATOM     13  C   UNL     1       3.136   6.843  18.432  0.00  0.00    +0.000 C 
ATOM     14  O   UNL     1       3.211   6.514  19.621  0.00  0.00    +0.000 OA
ATOM     15  N   UNL     1       2.505   7.987  17.980  0.00  0.00    +0.000 N 
ATOM     16  H   UNL     1       2.625   8.244  17.007  0.00  0.00    +0.000 HD
BRANCH  13  20
ATOM     17  C   UNL     1       5.302   4.447  15.556  0.00  0.00    +0.000 A 
ATOM     18  C   UNL     1       5.353   5.842  15.545  0.00  0.00    +0.000 A 
ATOM     19  C   UNL     1       4.620   6.580  16.473  0.00  0.00    +0.000 A 
ATOM     20  C   UNL     1       3.811   5.949  17.435  0.00  0.00    +0.000 A 
ATOM     21  C   UNL     1       3.714   4.553  17.407  0.00  0.00    +0.000 A 
ATOM     22  C   UNL     1       4.453   3.811  16.473  0.00  0.00    +0.000 A 
BRANCH  17  23
ATOM     23  C   UNL     1       6.185   3.647  14.627  0.00  0.00    +0.000 C 
BRANCH  23  24
ATOM     24  C   UNL     1       6.000   4.010  13.146  0.00  0.00    +0.000 C 
BRANCH  24  25
ATOM     25  C   UNL     1       6.480   2.912  12.191  0.00  0.00    +0.000 C 
BRANCH  25  27
ATOM     26  C   UNL     1       4.125   3.241  11.363  0.00  0.00    +0.000 C 
ATOM     27  C   UNL     1       5.314   2.296  11.419  0.00  0.00    +0.000 C 
ENDBRANCH  25  27
ENDBRANCH  24  25
ENDBRANCH  23  24
ENDBRANCH  17  23
ENDBRANCH  13  20
ENDBRANCH   1  15
BRANCH  10  28
ATOM     28  C   UNL     1      -1.356  12.267  21.231  0.00  0.00    +0.000 C 
BRANCH  28  29
ATOM     29  C   UNL     1      -1.881  12.723  19.834  0.00  0.00    +0.000 C 
BRANCH  29  30
ATOM     30  C   UNL     1      -2.893  11.842  19.118  0.00  0.00    +0.000 A 
ATOM     31  C   UNL     1      -2.410  10.823  18.276  0.00  0.00    +0.000 A 
ATOM     32  C   UNL     1      -3.268  10.167  17.400  0.00  0.00    +0.000 A 
ATOM     33  C   UNL     1      -4.609  10.538  17.330  0.00  0.00    +0.000 A 
ATOM     34  C   UNL     1      -5.139  11.477  18.221  0.00  0.00    +0.000 A 
ATOM     35  C   UNL     1      -6.492  11.850  18.126  0.00  0.00    +0.000 A 
ATOM     36  C   UNL     1      -7.062  12.736  19.035  0.00  0.00    +0.000 A 
ATOM     37  C   UNL     1      -6.296  13.229  20.081  0.00  0.00    +0.000 A 
ATOM     38  C   UNL     1      -4.938  12.901  20.161  0.00  0.00    +0.000 A 
ATOM     39  C   UNL     1      -4.305  12.068  19.204  0.00  0.00    +0.000 A 
ENDBRANCH  29  30
ENDBRANCH  28  29
ENDBRANCH  10  28
TORSDOF 9
ENDMDL
