MODEL 1
REMARK VINA RESULT:      -7.8      0.000      0.000
REMARK  Name = 
REMARK  5 active torsions:
REMARK  status: ('A' for Active; 'I' for Inactive)
REMARK    1  A    between atoms: C_1  and  C_2
REMARK    2  A    between atoms: C_2  and  N_3
REMARK    3  A    between atoms: C_2  and  C_17
REMARK    4  A    between atoms: C_4  and  C_6
REMARK    5  A    between atoms: N_28  and  C_29
REMARK                            x       y       z     vdW  Elec       q    Type
REMARK                         _______ _______ _______ _____ _____    ______ ____
ROOT
ATOM      1  C   UNL     1       1.833   9.951  17.675  0.00  0.00    +0.000 C 
ATOM      2  C   UNL     1       0.998  10.736  18.681  0.00  0.00    +0.000 C 
ENDROOT
BRANCH   2   3
ATOM      3  C   UNL     1       1.593  12.075  19.168  0.00  0.00    +0.000 A 
ATOM      4  C   UNL     1       2.273  12.858  18.304  0.00  0.00    +0.000 A 
ATOM      5  C   UNL     1       2.746  14.187  18.650  0.00  0.00    +0.000 A 
ATOM      6  C   UNL     1       3.292  14.993  17.639  0.00  0.00    +0.000 A 
ATOM      7  C   UNL     1       3.723  16.283  17.925  0.00  0.00    +0.000 A 
ATOM      8  C   UNL     1       3.629  16.759  19.227  0.00  0.00    +0.000 A 
ATOM      9  C   UNL     1       3.088  15.959  20.246  0.00  0.00    +0.000 A 
ATOM     10 CL   UNL     1       3.062  16.696  21.812  0.00  0.00    +0.000 Cl
ATOM     11  C   UNL     1       2.620  14.663  19.956  0.00  0.00    +0.000 A 
ATOM     12  C   UNL     1       1.941  13.778  20.945  0.00  0.00    +0.000 A 
ATOM     13  O   UNL     1       1.797  14.198  22.093  0.00  0.00    +0.000 OA
ATOM     14  N   UNL     1       1.425  12.516  20.502  0.00  0.00    +0.000 N 
BRANCH  14  15
ATOM     15  C   UNL     1       0.674  11.800  21.506  0.00  0.00    +0.000 A 
ATOM     16  C   UNL     1       0.984  10.475  21.841  0.00  0.00    +0.000 A 
ATOM     17  C   UNL     1       0.151   9.741  22.692  0.00  0.00    +0.000 A 
ATOM     18  C   UNL     1      -1.017  10.311  23.195  0.00  0.00    +0.000 A 
ATOM     19  C   UNL     1      -1.340  11.624  22.872  0.00  0.00    +0.000 A 
ATOM     20  C   UNL     1      -0.496  12.365  22.042  0.00  0.00    +0.000 A 
ENDBRANCH  14  15
ENDBRANCH   2   3
BRANCH   2  21
ATOM     21  N   UNL     1      -0.325  10.991  18.106  0.00  0.00    +0.000 N 
ATOM     22  C   UNL     1      -1.483  10.477  18.617  0.00  0.00    +0.000 C 
ATOM     23  O   UNL     1      -1.490   9.651  19.523  0.00  0.00    +0.000 OA
ATOM     24  H   UNL     1      -0.403  11.558  17.268  0.00  0.00    +0.000 HD
BRANCH  22  25
ATOM     25  C   UNL     1      -2.754  10.972  17.999  0.00  0.00    +0.000 A 
ATOM     26  C   UNL     1      -3.133  10.567  16.706  0.00  0.00    +0.000 A 
ATOM     27  N   UNL     1      -2.334   9.760  15.880  0.00  0.00    +0.000 N 
ATOM     28  N   UNL     1      -4.292  10.929  16.131  0.00  0.00    +0.000 NA
ATOM     29  C   UNL     1      -5.134  11.686  16.866  0.00  0.00    +0.000 A 
ATOM     30  C   UNL     1      -4.865  12.162  18.150  0.00  0.00    +0.000 A 
ATOM     31  C   UNL     1      -5.801  12.949  18.847  0.00  0.00    +0.000 A 
ATOM     32  C   UNL     1      -5.507  13.452  20.115  0.00  0.00    +0.000 A 
ATOM     33  C   UNL     1      -4.266  13.201  20.679  0.00  0.00    +0.000 A 
ATOM     34  C   UNL     1      -3.338  12.413  19.995  0.00  0.00    +0.000 A 
ATOM     35  C   UNL     1      -3.624  11.834  18.729  0.00  0.00    +0.000 A 
ATOM     36  H   UNL     1      -2.167   8.864  16.335  0.00  0.00    +0.000 HD
ATOM     37  H   UNL     1      -2.883   9.620  15.030  0.00  0.00    +0.000 HD
ENDBRANCH  22  25
ENDBRANCH   2  21
TORSDOF 4
ENDMDL
MODEL 2
REMARK VINA RESULT:      -7.6      3.876      7.304
REMARK  Name = 
REMARK  5 active torsions:
REMARK  status: ('A' for Active; 'I' for Inactive)
REMARK    1  A    between atoms: C_1  and  C_2
REMARK    2  A    between atoms: C_2  and  N_3
REMARK    3  A    between atoms: C_2  and  C_17
REMARK    4  A    between atoms: C_4  and  C_6
REMARK    5  A    between atoms: N_28  and  C_29
REMARK                            x       y       z     vdW  Elec       q    Type
REMARK                         _______ _______ _______ _____ _____    ______ ____
ROOT
ATOM      1  C   UNL     1       1.455  11.467  20.696  0.00  0.00    +0.000 C 
ATOM      2  C   UNL     1       0.506  10.337  20.314  0.00  0.00    +0.000 C 
ENDROOT
BRANCH   2   3
ATOM      3  C   UNL     1      -0.700  10.723  19.431  0.00  0.00    +0.000 A 
ATOM      4  C   UNL     1      -0.835  10.172  18.207  0.00  0.00    +0.000 A 
ATOM      5  C   UNL     1      -2.006  10.381  17.373  0.00  0.00    +0.000 A 
ATOM      6  C   UNL     1      -2.137   9.634  16.192  0.00  0.00    +0.000 A 
ATOM      7  C   UNL     1      -3.260   9.783  15.387  0.00  0.00    +0.000 A 
ATOM      8  C   UNL     1      -4.243  10.695  15.752  0.00  0.00    +0.000 A 
ATOM      9  C   UNL     1      -4.120  11.450  16.929  0.00  0.00    +0.000 A 
ATOM     10 CL   UNL     1      -5.422  12.552  17.225  0.00  0.00    +0.000 Cl
ATOM     11  C   UNL     1      -2.999  11.280  17.765  0.00  0.00    +0.000 A 
ATOM     12  C   UNL     1      -2.828  11.959  19.081  0.00  0.00    +0.000 A 
ATOM     13  O   UNL     1      -3.710  12.733  19.452  0.00  0.00    +0.000 OA
ATOM     14  N   UNL     1      -1.685  11.632  19.883  0.00  0.00    +0.000 N 
BRANCH  14  15
ATOM     15  C   UNL     1      -1.685  12.246  21.190  0.00  0.00    +0.000 A 
ATOM     16  C   UNL     1      -2.259  11.606  22.296  0.00  0.00    +0.000 A 
ATOM     17  C   UNL     1      -2.399  12.276  23.516  0.00  0.00    +0.000 A 
ATOM     18  C   UNL     1      -1.995  13.604  23.637  0.00  0.00    +0.000 A 
ATOM     19  C   UNL     1      -1.423  14.256  22.549  0.00  0.00    +0.000 A 
ATOM     20  C   UNL     1      -1.261  13.578  21.339  0.00  0.00    +0.000 A 
ENDBRANCH  14  15
ENDBRANCH   2   3
BRANCH   2  21
ATOM     21  N   UNL     1       1.266   9.284  19.638  0.00  0.00    +0.000 N 
ATOM     22  C   UNL     1       1.636   8.113  20.238  0.00  0.00    +0.000 C 
ATOM     23  O   UNL     1       1.472   7.910  21.435  0.00  0.00    +0.000 OA
ATOM     24  H   UNL     1       1.566   9.424  18.678  0.00  0.00    +0.000 HD
BRANCH  22  25
ATOM     25  C   UNL     1       2.268   7.086  19.350  0.00  0.00    +0.000 A 
ATOM     26  C   UNL     1       2.937   7.465  18.171  0.00  0.00    +0.000 A 
ATOM     27  N   UNL     1       2.992   8.786  17.700  0.00  0.00    +0.000 N 
ATOM     28  N   UNL     1       3.575   6.591  17.374  0.00  0.00    +0.000 NA
ATOM     29  C   UNL     1       3.594   5.300  17.767  0.00  0.00    +0.000 A 
ATOM     30  C   UNL     1       2.956   4.801  18.903  0.00  0.00    +0.000 A 
ATOM     31  C   UNL     1       3.025   3.436  19.238  0.00  0.00    +0.000 A 
ATOM     32  C   UNL     1       2.352   2.941  20.356  0.00  0.00    +0.000 A 
ATOM     33  C   UNL     1       1.580   3.797  21.124  0.00  0.00    +0.000 A 
ATOM     34  C   UNL     1       1.516   5.154  20.800  0.00  0.00    +0.000 A 
ATOM     35  C   UNL     1       2.235   5.706  19.706  0.00  0.00    +0.000 A 
ATOM     36  H   UNL     1       3.446   9.378  18.393  0.00  0.00    +0.000 HD
ATOM     37  H   UNL     1       3.561   8.745  16.852  0.00  0.00    +0.000 HD
ENDBRANCH  22  25
ENDBRANCH   2  21
TORSDOF 4
ENDMDL
MODEL 3
REMARK VINA RESULT:      -7.5      2.129      2.852
REMARK  Name = 
REMARK  5 active torsions:
REMARK  status: ('A' for Active; 'I' for Inactive)
REMARK    1  A    between atoms: C_1  and  C_2
REMARK    2  A    between atoms: C_2  and  N_3
REMARK    3  A    between atoms: C_2  and  C_17
REMARK    4  A    between atoms: C_4  and  C_6
REMARK    5  A    between atoms: N_28  and  C_29
REMARK                            x       y       z     vdW  Elec       q    Type
REMARK                         _______ _______ _______ _____ _____    ______ ____
ROOT
ATOM      1  C   UNL     1      -1.489  11.790  17.355  0.00  0.00    +0.000 C 
ATOM      2  C   UNL     1      -1.593  12.171  18.829  0.00  0.00    +0.000 C 
ENDROOT
BRANCH   2   3
ATOM      3  C   UNL     1      -0.613  13.255  19.326  0.00  0.00    +0.000 A 
ATOM      4  C   UNL     1      -0.484  14.408  18.637  0.00  0.00    +0.000 A 
ATOM      5  C   UNL     1       0.313  15.525  19.112  0.00  0.00    +0.000 A 
ATOM      6  C   UNL     1       0.253  16.742  18.415  0.00  0.00    +0.000 A 
ATOM      7  C   UNL     1       0.975  17.843  18.859  0.00  0.00    +0.000 A 
ATOM      8  C   UNL     1       1.776  17.721  19.987  0.00  0.00    +0.000 A 
ATOM      9  C   UNL     1       1.847  16.507  20.689  0.00  0.00    +0.000 A 
ATOM     10 CL   UNL     1       2.906  16.520  22.059  0.00  0.00    +0.000 Cl
ATOM     11  C   UNL     1       1.093  15.397  20.262  0.00  0.00    +0.000 A 
ATOM     12  C   UNL     1       1.024  14.101  20.996  0.00  0.00    +0.000 A 
ATOM     13  O   UNL     1       1.684  13.985  22.028  0.00  0.00    +0.000 OA
ATOM     14  N   UNL     1       0.145  13.078  20.509  0.00  0.00    +0.000 N 
BRANCH  14  15
ATOM     15  C   UNL     1       0.058  11.918  21.364  0.00  0.00    +0.000 A 
ATOM     16  C   UNL     1       0.790  10.755  21.092  0.00  0.00    +0.000 A 
ATOM     17  C   UNL     1       0.574   9.586  21.829  0.00  0.00    +0.000 A 
ATOM     18  C   UNL     1      -0.397   9.556  22.828  0.00  0.00    +0.000 A 
ATOM     19  C   UNL     1      -1.133  10.702  23.112  0.00  0.00    +0.000 A 
ATOM     20  C   UNL     1      -0.900  11.875  22.392  0.00  0.00    +0.000 A 
ENDBRANCH  14  15
ENDBRANCH   2   3
BRANCH   2  21
ATOM     21  N   UNL     1      -2.961  12.609  19.112  0.00  0.00    +0.000 N 
ATOM     22  C   UNL     1      -4.060  11.818  18.932  0.00  0.00    +0.000 C 
ATOM     23  O   UNL     1      -3.997  10.720  18.391  0.00  0.00    +0.000 OA
ATOM     24  H   UNL     1      -3.124  13.556  19.438  0.00  0.00    +0.000 HD
BRANCH  22  25
ATOM     25  C   UNL     1      -5.362  12.372  19.425  0.00  0.00    +0.000 A 
ATOM     26  C   UNL     1      -6.452  12.538  18.551  0.00  0.00    +0.000 A 
ATOM     27  N   UNL     1      -6.386  12.287  17.171  0.00  0.00    +0.000 N 
ATOM     28  N   UNL     1      -7.658  12.971  18.953  0.00  0.00    +0.000 NA
ATOM     29  C   UNL     1      -7.818  13.213  20.272  0.00  0.00    +0.000 A 
ATOM     30  C   UNL     1      -6.811  13.101  21.231  0.00  0.00    +0.000 A 
ATOM     31  C   UNL     1      -7.063  13.375  22.589  0.00  0.00    +0.000 A 
ATOM     32  C   UNL     1      -6.040  13.296  23.534  0.00  0.00    +0.000 A 
ATOM     33  C   UNL     1      -4.754  12.978  23.127  0.00  0.00    +0.000 A 
ATOM     34  C   UNL     1      -4.502  12.696  21.782  0.00  0.00    +0.000 A 
ATOM     35  C   UNL     1      -5.529  12.707  20.800  0.00  0.00    +0.000 A 
ATOM     36  H   UNL     1      -6.143  11.310  17.012  0.00  0.00    +0.000 HD
ATOM     37  H   UNL     1      -7.328  12.470  16.820  0.00  0.00    +0.000 HD
ENDBRANCH  22  25
ENDBRANCH   2  21
TORSDOF 4
ENDMDL
MODEL 4
REMARK VINA RESULT:      -7.4      5.581      8.907
REMARK  Name = 
REMARK  5 active torsions:
REMARK  status: ('A' for Active; 'I' for Inactive)
REMARK    1  A    between atoms: C_1  and  C_2
REMARK    2  A    between atoms: C_2  and  N_3
REMARK    3  A    between atoms: C_2  and  C_17
REMARK    4  A    between atoms: C_4  and  C_6
REMARK    5  A    between atoms: N_28  and  C_29
REMARK                            x       y       z     vdW  Elec       q    Type
REMARK                         _______ _______ _______ _____ _____    ______ ____
ROOT
ATOM      1  C   UNL     1       3.835   7.656  16.525  0.00  0.00    +0.000 C 
ATOM      2  C   UNL     1       2.735   7.307  17.522  0.00  0.00    +0.000 C 
ENDROOT
BRANCH   2   3
ATOM      3  C   UNL     1       2.999   6.091  18.436  0.00  0.00    +0.000 A 
ATOM      4  C   UNL     1       2.067   5.717  19.337  0.00  0.00    +0.000 A 
ATOM      5  C   UNL     1       2.183   4.510  20.136  0.00  0.00    +0.000 A 
ATOM      6  C   UNL     1       1.090   4.112  20.921  0.00  0.00    +0.000 A 
ATOM      7  C   UNL     1       1.152   2.944  21.673  0.00  0.00    +0.000 A 
ATOM      8  C   UNL     1       2.316   2.186  21.657  0.00  0.00    +0.000 A 
ATOM      9  C   UNL     1       3.417   2.577  20.878  0.00  0.00    +0.000 A 
ATOM     10 CL   UNL     1       4.793   1.532  20.987  0.00  0.00    +0.000 Cl
ATOM     11  C   UNL     1       3.348   3.742  20.090  0.00  0.00    +0.000 A 
ATOM     12  C   UNL     1       4.423   4.185  19.156  0.00  0.00    +0.000 A 
ATOM     13  O   UNL     1       5.444   3.501  19.084  0.00  0.00    +0.000 OA
ATOM     14  N   UNL     1       4.194   5.340  18.338  0.00  0.00    +0.000 N 
BRANCH  14  15
ATOM     15  C   UNL     1       5.242   5.602  17.380  0.00  0.00    +0.000 A 
ATOM     16  C   UNL     1       5.276   4.951  16.140  0.00  0.00    +0.000 A 
ATOM     17  C   UNL     1       6.379   5.088  15.292  0.00  0.00    +0.000 A 
ATOM     18  C   UNL     1       7.475   5.856  15.683  0.00  0.00    +0.000 A 
ATOM     19  C   UNL     1       7.458   6.509  16.911  0.00  0.00    +0.000 A 
ATOM     20  C   UNL     1       6.346   6.391  17.747  0.00  0.00    +0.000 A 
ENDBRANCH  14  15
ENDBRANCH   2   3
BRANCH   2  21
ATOM     21  N   UNL     1       2.464   8.476  18.362  0.00  0.00    +0.000 N 
ATOM     22  C   UNL     1       1.370   9.279  18.210  0.00  0.00    +0.000 C 
ATOM     23  O   UNL     1       0.594   9.159  17.268  0.00  0.00    +0.000 OA
ATOM     24  H   UNL     1       3.128   8.734  19.086  0.00  0.00    +0.000 HD
BRANCH  22  25
ATOM     25  C   UNL     1       1.171  10.332  19.256  0.00  0.00    +0.000 A 
ATOM     26  C   UNL     1       1.527  11.671  19.009  0.00  0.00    +0.000 A 
ATOM     27  N   UNL     1       2.156  12.102  17.831  0.00  0.00    +0.000 N 
ATOM     28  N   UNL     1       1.312  12.663  19.888  0.00  0.00    +0.000 NA
ATOM     29  C   UNL     1       0.686  12.341  21.041  0.00  0.00    +0.000 A 
ATOM     30  C   UNL     1       0.301  11.051  21.406  0.00  0.00    +0.000 A 
ATOM     31  C   UNL     1      -0.346  10.802  22.631  0.00  0.00    +0.000 A 
ATOM     32  C   UNL     1      -0.693   9.503  23.003  0.00  0.00    +0.000 A 
ATOM     33  C   UNL     1      -0.367   8.443  22.172  0.00  0.00    +0.000 A 
ATOM     34  C   UNL     1       0.267   8.686  20.952  0.00  0.00    +0.000 A 
ATOM     35  C   UNL     1       0.582   9.999  20.511  0.00  0.00    +0.000 A 
ATOM     36  H   UNL     1       1.560  11.897  17.030  0.00  0.00    +0.000 HD
ATOM     37  H   UNL     1       2.258  13.113  17.936  0.00  0.00    +0.000 HD
ENDBRANCH  22  25
ENDBRANCH   2  21
TORSDOF 4
ENDMDL
MODEL 5
REMARK VINA RESULT:      -7.3      2.951      7.189
REMARK  Name = 
REMARK  5 active torsions:
REMARK  status: ('A' for Active; 'I' for Inactive)
REMARK    1  A    between atoms: C_1  and  C_2
REMARK    2  A    between atoms: C_2  and  N_3
REMARK    3  A    between atoms: C_2  and  C_17
REMARK    4  A    between atoms: C_4  and  C_6
REMARK    5  A    between atoms: N_28  and  C_29
REMARK                            x       y       z     vdW  Elec       q    Type
REMARK                         _______ _______ _______ _____ _____    ______ ____
ROOT
ATOM      1  C   UNL     1      -2.312  11.162  16.525  0.00  0.00    +0.000 C 
ATOM      2  C   UNL     1      -1.831  11.619  17.899  0.00  0.00    +0.000 C 
ENDROOT
BRANCH   2   3
ATOM      3  C   UNL     1      -2.919  12.116  18.875  0.00  0.00    +0.000 A 
ATOM      4  C   UNL     1      -4.176  11.635  18.776  0.00  0.00    +0.000 A 
ATOM      5  C   UNL     1      -5.218  11.950  19.737  0.00  0.00    +0.000 A 
ATOM      6  C   UNL     1      -6.444  11.272  19.650  0.00  0.00    +0.000 A 
ATOM      7  C   UNL     1      -7.453  11.523  20.573  0.00  0.00    +0.000 A 
ATOM      8  C   UNL     1      -7.243  12.467  21.570  0.00  0.00    +0.000 A 
ATOM      9  C   UNL     1      -6.022  13.154  21.663  0.00  0.00    +0.000 A 
ATOM     10 CL   UNL     1      -5.935  14.310  22.949  0.00  0.00    +0.000 Cl
ATOM     11  C   UNL     1      -4.985  12.881  20.750  0.00  0.00    +0.000 A 
ATOM     12  C   UNL     1      -3.623  13.483  20.828  0.00  0.00    +0.000 A 
ATOM     13  O   UNL     1      -3.396  14.284  21.734  0.00  0.00    +0.000 OA
ATOM     14  N   UNL     1      -2.624  13.053  19.893  0.00  0.00    +0.000 N 
BRANCH  14  15
ATOM     15  C   UNL     1      -1.311  13.600  20.140  0.00  0.00    +0.000 A 
ATOM     16  C   UNL     1      -0.580  13.254  21.284  0.00  0.00    +0.000 A 
ATOM     17  C   UNL     1       0.614  13.911  21.594  0.00  0.00    +0.000 A 
ATOM     18  C   UNL     1       1.080  14.943  20.780  0.00  0.00    +0.000 A 
ATOM     19  C   UNL     1       0.367  15.299  19.640  0.00  0.00    +0.000 A 
ATOM     20  C   UNL     1      -0.813  14.625  19.318  0.00  0.00    +0.000 A 
ENDBRANCH  14  15
ENDBRANCH   2   3
BRANCH   2  21
ATOM     21  N   UNL     1      -1.093  10.525  18.533  0.00  0.00    +0.000 N 
ATOM     22  C   UNL     1       0.221  10.610  18.896  0.00  0.00    +0.000 C 
ATOM     23  O   UNL     1       0.924  11.569  18.596  0.00  0.00    +0.000 OA
ATOM     24  H   UNL     1      -1.560   9.639  18.698  0.00  0.00    +0.000 HD
BRANCH  22  25
ATOM     25  C   UNL     1       0.768   9.454  19.676  0.00  0.00    +0.000 A 
ATOM     26  C   UNL     1       0.349   9.213  20.998  0.00  0.00    +0.000 A 
ATOM     27  N   UNL     1      -0.524  10.059  21.702  0.00  0.00    +0.000 N 
ATOM     28  N   UNL     1       0.758   8.157  21.719  0.00  0.00    +0.000 NA
ATOM     29  C   UNL     1       1.581   7.276  21.109  0.00  0.00    +0.000 A 
ATOM     30  C   UNL     1       2.077   7.414  19.812  0.00  0.00    +0.000 A 
ATOM     31  C   UNL     1       2.933   6.447  19.252  0.00  0.00    +0.000 A 
ATOM     32  C   UNL     1       3.454   6.614  17.969  0.00  0.00    +0.000 A 
ATOM     33  C   UNL     1       3.151   7.759  17.250  0.00  0.00    +0.000 A 
ATOM     34  C   UNL     1       2.294   8.716  17.798  0.00  0.00    +0.000 A 
ATOM     35  C   UNL     1       1.696   8.554  19.077  0.00  0.00    +0.000 A 
ATOM     36  H   UNL     1      -1.415  10.117  21.211  0.00  0.00    +0.000 HD
ATOM     37  H   UNL     1      -0.657   9.611  22.610  0.00  0.00    +0.000 HD
ENDBRANCH  22  25
ENDBRANCH   2  21
TORSDOF 4
ENDMDL
MODEL 6
REMARK VINA RESULT:      -7.3      2.233      3.178
REMARK  Name = 
REMARK  5 active torsions:
REMARK  status: ('A' for Active; 'I' for Inactive)
REMARK    1  A    between atoms: C_1  and  C_2
REMARK    2  A    between atoms: C_2  and  N_3
REMARK    3  A    between atoms: C_2  and  C_17
REMARK    4  A    between atoms: C_4  and  C_6
REMARK    5  A    between atoms: N_28  and  C_29
REMARK                            x       y       z     vdW  Elec       q    Type
REMARK                         _______ _______ _______ _____ _____    ______ ____
ROOT
ATOM      1  C   UNL     1      -2.129  11.502  17.173  0.00  0.00    +0.000 C 
ATOM      2  C   UNL     1      -2.011  11.803  18.664  0.00  0.00    +0.000 C 
ENDROOT
BRANCH   2   3
ATOM      3  C   UNL     1      -0.845  12.724  19.086  0.00  0.00    +0.000 A 
ATOM      4  C   UNL     1      -0.644  13.888  18.435  0.00  0.00    +0.000 A 
ATOM      5  C   UNL     1       0.343  14.867  18.857  0.00  0.00    +0.000 A 
ATOM      6  C   UNL     1       0.366  16.120  18.224  0.00  0.00    +0.000 A 
ATOM      7  C   UNL     1       1.274  17.093  18.624  0.00  0.00    +0.000 A 
ATOM      8  C   UNL     1       2.174  16.806  19.643  0.00  0.00    +0.000 A 
ATOM      9  C   UNL     1       2.162  15.555  20.280  0.00  0.00    +0.000 A 
ATOM     10 CL   UNL     1       3.361  15.356  21.512  0.00  0.00    +0.000 Cl
ATOM     11  C   UNL     1       1.224  14.576  19.900  0.00  0.00    +0.000 A 
ATOM     12  C   UNL     1       1.067  13.259  20.581  0.00  0.00    +0.000 A 
ATOM     13  O   UNL     1       1.818  13.002  21.522  0.00  0.00    +0.000 OA
ATOM     14  N   UNL     1       0.011  12.385  20.161  0.00  0.00    +0.000 N 
BRANCH  14  15
ATOM     15  C   UNL     1      -0.133  11.199  20.971  0.00  0.00    +0.000 A 
ATOM     16  C   UNL     1      -0.814  11.230  22.194  0.00  0.00    +0.000 A 
ATOM     17  C   UNL     1      -0.806  10.120  23.045  0.00  0.00    +0.000 A 
ATOM     18  C   UNL     1      -0.092   8.974  22.696  0.00  0.00    +0.000 A 
ATOM     19  C   UNL     1       0.590   8.926  21.485  0.00  0.00    +0.000 A 
ATOM     20  C   UNL     1       0.561  10.026  20.626  0.00  0.00    +0.000 A 
ENDBRANCH  14  15
ENDBRANCH   2   3
BRANCH   2  21
ATOM     21  N   UNL     1      -3.268  12.391  19.132  0.00  0.00    +0.000 N 
ATOM     22  C   UNL     1      -4.487  11.797  18.970  0.00  0.00    +0.000 C 
ATOM     23  O   UNL     1      -4.638  10.782  18.298  0.00  0.00    +0.000 OA
ATOM     24  H   UNL     1      -3.255  13.301  19.582  0.00  0.00    +0.000 HD
BRANCH  22  25
ATOM     25  C   UNL     1      -5.643  12.462  19.651  0.00  0.00    +0.000 A 
ATOM     26  C   UNL     1      -6.822  12.763  18.944  0.00  0.00    +0.000 A 
ATOM     27  N   UNL     1      -6.975  12.549  17.565  0.00  0.00    +0.000 N 
ATOM     28  N   UNL     1      -7.909  13.300  19.521  0.00  0.00    +0.000 NA
ATOM     29  C   UNL     1      -7.857  13.515  20.852  0.00  0.00    +0.000 A 
ATOM     30  C   UNL     1      -6.743  13.274  21.657  0.00  0.00    +0.000 A 
ATOM     31  C   UNL     1      -6.774  13.530  23.041  0.00  0.00    +0.000 A 
ATOM     32  C   UNL     1      -5.642  13.321  23.830  0.00  0.00    +0.000 A 
ATOM     33  C   UNL     1      -4.466  12.889  23.239  0.00  0.00    +0.000 A 
ATOM     34  C   UNL     1      -4.433  12.625  21.867  0.00  0.00    +0.000 A 
ATOM     35  C   UNL     1      -5.581  12.768  21.042  0.00  0.00    +0.000 A 
ATOM     36  H   UNL     1      -6.858  11.558  17.357  0.00  0.00    +0.000 HD
ATOM     37  H   UNL     1      -7.933  12.836  17.354  0.00  0.00    +0.000 HD
ENDBRANCH  22  25
ENDBRANCH   2  21
TORSDOF 4
ENDMDL
MODEL 7
REMARK VINA RESULT:      -7.3      3.092      5.672
REMARK  Name = 
REMARK  5 active torsions:
REMARK  status: ('A' for Active; 'I' for Inactive)
REMARK    1  A    between atoms: C_1  and  C_2
REMARK    2  A    between atoms: C_2  and  N_3
REMARK    3  A    between atoms: C_2  and  C_17
REMARK    4  A    between atoms: C_4  and  C_6
REMARK    5  A    between atoms: N_28  and  C_29
REMARK                            x       y       z     vdW  Elec       q    Type
REMARK                         _______ _______ _______ _____ _____    ______ ____
ROOT
ATOM      1  C   UNL     1      -0.752  10.414  23.328  0.00  0.00    +0.000 C 
ATOM      2  C   UNL     1      -0.456  10.907  21.915  0.00  0.00    +0.000 C 
ENDROOT
BRANCH   2   3
ATOM      3  C   UNL     1       0.440  10.000  21.046  0.00  0.00    +0.000 A 
ATOM      4  C   UNL     1       0.553   8.689  21.344  0.00  0.00    +0.000 A 
ATOM      5  C   UNL     1       1.267   7.747  20.499  0.00  0.00    +0.000 A 
ATOM      6  C   UNL     1       1.189   6.378  20.798  0.00  0.00    +0.000 A 
ATOM      7  C   UNL     1       1.831   5.445  19.993  0.00  0.00    +0.000 A 
ATOM      8  C   UNL     1       2.570   5.883  18.901  0.00  0.00    +0.000 A 
ATOM      9  C   UNL     1       2.658   7.250  18.595  0.00  0.00    +0.000 A 
ATOM     10 CL   UNL     1       3.633   7.626  17.216  0.00  0.00    +0.000 Cl
ATOM     11  C   UNL     1       1.984   8.198  19.390  0.00  0.00    +0.000 A 
ATOM     12  C   UNL     1       1.935   9.657  19.089  0.00  0.00    +0.000 A 
ATOM     13  O   UNL     1       2.538  10.064  18.097  0.00  0.00    +0.000 OA
ATOM     14  N   UNL     1       1.135  10.507  19.923  0.00  0.00    +0.000 N 
BRANCH  14  15
ATOM     15  C   UNL     1       1.054  11.875  19.467  0.00  0.00    +0.000 A 
ATOM     16  C   UNL     1       1.738  12.905  20.126  0.00  0.00    +0.000 A 
ATOM     17  C   UNL     1       1.523  14.242  19.777  0.00  0.00    +0.000 A 
ATOM     18  C   UNL     1       0.600  14.569  18.785  0.00  0.00    +0.000 A 
ATOM     19  C   UNL     1      -0.088  13.559  18.120  0.00  0.00    +0.000 A 
ATOM     20  C   UNL     1       0.146  12.223  18.452  0.00  0.00    +0.000 A 
ENDBRANCH  14  15
ENDBRANCH   2   3
BRANCH   2  21
ATOM     21  N   UNL     1      -1.723  11.129  21.214  0.00  0.00    +0.000 N 
ATOM     22  C   UNL     1      -2.214  12.367  20.914  0.00  0.00    +0.000 C 
ATOM     23  O   UNL     1      -1.695  13.397  21.328  0.00  0.00    +0.000 OA
ATOM     24  H   UNL     1      -2.292  10.331  20.950  0.00  0.00    +0.000 HD
BRANCH  22  25
ATOM     25  C   UNL     1      -3.440  12.402  20.053  0.00  0.00    +0.000 A 
ATOM     26  C   UNL     1      -4.558  13.174  20.420  0.00  0.00    +0.000 A 
ATOM     27  N   UNL     1      -4.647  13.886  21.627  0.00  0.00    +0.000 N 
ATOM     28  N   UNL     1      -5.655  13.290  19.655  0.00  0.00    +0.000 NA
ATOM     29  C   UNL     1      -5.644  12.657  18.462  0.00  0.00    +0.000 A 
ATOM     30  C   UNL     1      -4.605  11.851  17.996  0.00  0.00    +0.000 A 
ATOM     31  C   UNL     1      -4.676  11.225  16.737  0.00  0.00    +0.000 A 
ATOM     32  C   UNL     1      -3.648  10.391  16.296  0.00  0.00    +0.000 A 
ATOM     33  C   UNL     1      -2.561  10.150  17.121  0.00  0.00    +0.000 A 
ATOM     34  C   UNL     1      -2.482  10.777  18.367  0.00  0.00    +0.000 A 
ATOM     35  C   UNL     1      -3.479  11.679  18.825  0.00  0.00    +0.000 A 
ATOM     36  H   UNL     1      -3.897  14.574  21.675  0.00  0.00    +0.000 HD
ATOM     37  H   UNL     1      -5.551  14.360  21.593  0.00  0.00    +0.000 HD
ENDBRANCH  22  25
ENDBRANCH   2  21
TORSDOF 4
ENDMDL
MODEL 8
REMARK VINA RESULT:      -7.1      2.967      6.809
REMARK  Name = 
REMARK  5 active torsions:
REMARK  status: ('A' for Active; 'I' for Inactive)
REMARK    1  A    between atoms: C_1  and  C_2
REMARK    2  A    between atoms: C_2  and  N_3
REMARK    3  A    between atoms: C_2  and  C_17
REMARK    4  A    between atoms: C_4  and  C_6
REMARK    5  A    between atoms: N_28  and  C_29
REMARK                            x       y       z     vdW  Elec       q    Type
REMARK                         _______ _______ _______ _____ _____    ______ ____
ROOT
ATOM      1  C   UNL     1      -0.118  10.906  22.337  0.00  0.00    +0.000 C 
ATOM      2  C   UNL     1       0.190  11.416  20.932  0.00  0.00    +0.000 C 
ENDROOT
BRANCH   2   3
ATOM      3  C   UNL     1      -1.006  11.512  19.961  0.00  0.00    +0.000 A 
ATOM      4  C   UNL     1      -0.951  10.883  18.769  0.00  0.00    +0.000 A 
ATOM      5  C   UNL     1      -2.083  10.816  17.861  0.00  0.00    +0.000 A 
ATOM      6  C   UNL     1      -1.988   9.999  16.723  0.00  0.00    +0.000 A 
ATOM      7  C   UNL     1      -3.063   9.883  15.849  0.00  0.00    +0.000 A 
ATOM      8  C   UNL     1      -4.225  10.601  16.102  0.00  0.00    +0.000 A 
ATOM      9  C   UNL     1      -4.329  11.424  17.235  0.00  0.00    +0.000 A 
ATOM     10 CL   UNL     1      -5.836  12.261  17.389  0.00  0.00    +0.000 Cl
ATOM     11  C   UNL     1      -3.255  11.521  18.140  0.00  0.00    +0.000 A 
ATOM     12  C   UNL     1      -3.306  12.286  19.419  0.00  0.00    +0.000 A 
ATOM     13  O   UNL     1      -4.343  12.888  19.691  0.00  0.00    +0.000 OA
ATOM     14  N   UNL     1      -2.177  12.231  20.301  0.00  0.00    +0.000 N 
BRANCH  14  15
ATOM     15  C   UNL     1      -2.382  12.898  21.565  0.00  0.00    +0.000 A 
ATOM     16  C   UNL     1      -3.075  12.278  22.613  0.00  0.00    +0.000 A 
ATOM     17  C   UNL     1      -3.410  12.991  23.769  0.00  0.00    +0.000 A 
ATOM     18  C   UNL     1      -3.082  14.341  23.880  0.00  0.00    +0.000 A 
ATOM     19  C   UNL     1      -2.394  14.973  22.849  0.00  0.00    +0.000 A 
ATOM     20  C   UNL     1      -2.038  14.253  21.706  0.00  0.00    +0.000 A 
ENDBRANCH  14  15
ENDBRANCH   2   3
BRANCH   2  21
ATOM     21  N   UNL     1       0.822  12.733  21.032  0.00  0.00    +0.000 N 
ATOM     22  C   UNL     1       1.741  13.200  20.135  0.00  0.00    +0.000 C 
ATOM     23  O   UNL     1       2.207  12.496  19.247  0.00  0.00    +0.000 OA
ATOM     24  H   UNL     1       0.597  13.336  21.817  0.00  0.00    +0.000 HD
BRANCH  22  25
ATOM     25  C   UNL     1       2.161  14.628  20.303  0.00  0.00    +0.000 A 
ATOM     26  C   UNL     1       3.327  14.957  21.020  0.00  0.00    +0.000 A 
ATOM     27  N   UNL     1       4.120  14.011  21.689  0.00  0.00    +0.000 N 
ATOM     28  N   UNL     1       3.782  16.214  21.145  0.00  0.00    +0.000 NA
ATOM     29  C   UNL     1       3.093  17.186  20.510  0.00  0.00    +0.000 A 
ATOM     30  C   UNL     1       1.918  16.987  19.785  0.00  0.00    +0.000 A 
ATOM     31  C   UNL     1       1.260  18.060  19.154  0.00  0.00    +0.000 A 
ATOM     32  C   UNL     1       0.065  17.856  18.462  0.00  0.00    +0.000 A 
ATOM     33  C   UNL     1      -0.497  16.590  18.425  0.00  0.00    +0.000 A 
ATOM     34  C   UNL     1       0.158  15.521  19.042  0.00  0.00    +0.000 A 
ATOM     35  C   UNL     1       1.405  15.677  19.704  0.00  0.00    +0.000 A 
ATOM     36  H   UNL     1       4.476  13.329  21.021  0.00  0.00    +0.000 HD
ATOM     37  H   UNL     1       4.895  14.545  22.086  0.00  0.00    +0.000 HD
ENDBRANCH  22  25
ENDBRANCH   2  21
TORSDOF 4
ENDMDL
MODEL 9
REMARK VINA RESULT:      -7.1      3.240      5.108
REMARK  Name = 
REMARK  5 active torsions:
REMARK  status: ('A' for Active; 'I' for Inactive)
REMARK    1  A    between atoms: C_1  and  C_2
REMARK    2  A    between atoms: C_2  and  N_3
REMARK    3  A    between atoms: C_2  and  C_17
REMARK    4  A    between atoms: C_4  and  C_6
REMARK    5  A    between atoms: N_28  and  C_29
REMARK                            x       y       z     vdW  Elec       q    Type
REMARK                         _______ _______ _______ _____ _____    ______ ____
ROOT
ATOM      1  C   UNL     1       1.646  11.873  19.996  0.00  0.00    +0.000 C 
ATOM      2  C   UNL     1       1.180  11.009  18.829  0.00  0.00    +0.000 C 
ENDROOT
BRANCH   2   3
ATOM      3  C   UNL     1       1.653   9.539  18.833  0.00  0.00    +0.000 A 
ATOM      4  C   UNL     1       2.400   9.075  17.810  0.00  0.00    +0.000 A 
ATOM      5  C   UNL     1       2.993   7.749  17.806  0.00  0.00    +0.000 A 
ATOM      6  C   UNL     1       3.892   7.414  16.781  0.00  0.00    +0.000 A 
ATOM      7  C   UNL     1       4.504   6.167  16.763  0.00  0.00    +0.000 A 
ATOM      8  C   UNL     1       4.202   5.245  17.758  0.00  0.00    +0.000 A 
ATOM      9  C   UNL     1       3.301   5.568  18.785  0.00  0.00    +0.000 A 
ATOM     10 CL   UNL     1       3.021   4.302  19.931  0.00  0.00    +0.000 Cl
ATOM     11  C   UNL     1       2.701   6.842  18.826  0.00  0.00    +0.000 A 
ATOM     12  C   UNL     1       1.813   7.313  19.927  0.00  0.00    +0.000 A 
ATOM     13  O   UNL     1       1.571   6.533  20.848  0.00  0.00    +0.000 OA
ATOM     14  N   UNL     1       1.338   8.666  19.901  0.00  0.00    +0.000 N 
BRANCH  14  15
ATOM     15  C   UNL     1       0.596   9.054  21.077  0.00  0.00    +0.000 A 
ATOM     16  C   UNL     1      -0.706   9.561  20.982  0.00  0.00    +0.000 A 
ATOM     17  C   UNL     1      -1.352  10.086  22.107  0.00  0.00    +0.000 A 
ATOM     18  C   UNL     1      -0.693  10.136  23.334  0.00  0.00    +0.000 A 
ATOM     19  C   UNL     1       0.600   9.637  23.446  0.00  0.00    +0.000 A 
ATOM     20  C   UNL     1       1.235   9.091  22.329  0.00  0.00    +0.000 A 
ENDBRANCH  14  15
ENDBRANCH   2   3
BRANCH   2  21
ATOM     21  N   UNL     1      -0.283  11.032  18.774  0.00  0.00    +0.000 N 
ATOM     22  C   UNL     1      -1.003  12.061  18.238  0.00  0.00    +0.000 C 
ATOM     23  O   UNL     1      -0.480  13.110  17.879  0.00  0.00    +0.000 OA
ATOM     24  H   UNL     1      -0.809  10.261  19.174  0.00  0.00    +0.000 HD
BRANCH  22  25
ATOM     25  C   UNL     1      -2.481  11.844  18.121  0.00  0.00    +0.000 A 
ATOM     26  C   UNL     1      -3.041  11.307  16.947  0.00  0.00    +0.000 A 
ATOM     27  N   UNL     1      -2.295  11.020  15.793  0.00  0.00    +0.000 N 
ATOM     28  N   UNL     1      -4.349  11.034  16.814  0.00  0.00    +0.000 NA
ATOM     29  C   UNL     1      -5.137  11.257  17.888  0.00  0.00    +0.000 A 
ATOM     30  C   UNL     1      -4.703  11.800  19.097  0.00  0.00    +0.000 A 
ATOM     31  C   UNL     1      -5.595  12.001  20.168  0.00  0.00    +0.000 A 
ATOM     32  C   UNL     1      -5.158  12.580  21.360  0.00  0.00    +0.000 A 
ATOM     33  C   UNL     1      -3.840  12.991  21.479  0.00  0.00    +0.000 A 
ATOM     34  C   UNL     1      -2.950  12.784  20.423  0.00  0.00    +0.000 A 
ATOM     35  C   UNL     1      -3.342  12.144  19.216  0.00  0.00    +0.000 A 
ATOM     36  H   UNL     1      -1.577  10.331  16.011  0.00  0.00    +0.000 HD
ATOM     37  H   UNL     1      -2.966  10.623  15.132  0.00  0.00    +0.000 HD
ENDBRANCH  22  25
ENDBRANCH   2  21
TORSDOF 4
ENDMDL
