MODEL 1
REMARK VINA RESULT:      -6.0      0.000      0.000
REMARK  Name = 
REMARK  16 active torsions:
REMARK  status: ('A' for Active; 'I' for Inactive)
REMARK    1  A    between atoms: C_1  and  C_2
REMARK    2  A    between atoms: C_2  and  C_3
REMARK    3  A    between atoms: C_3  and  C_4
REMARK    4  A    between atoms: C_4  and  C_5
REMARK    5  A    between atoms: C_5  and  C_6
REMARK    6  A    between atoms: C_6  and  C_7
REMARK    7  A    between atoms: C_7  and  C_8
REMARK    8  A    between atoms: C_8  and  C_9
REMARK    9  A    between atoms: C_10  and  C_11
REMARK   10  A    between atoms: C_11  and  C_12
REMARK   11  A    between atoms: C_12  and  C_13
REMARK   12  A    between atoms: C_13  and  C_14
REMARK   13  A    between atoms: C_14  and  C_15
REMARK   14  A    between atoms: C_15  and  C_16
REMARK   15  A    between atoms: C_17  and  C_18
REMARK   16  A    between atoms: C_18  and  O_20
REMARK                            x       y       z     vdW  Elec       q    Type
REMARK                         _______ _______ _______ _____ _____    ______ ____
ROOT
ATOM      1  C   UNL     1       5.862   6.614  16.857  0.00  0.00    +0.000 C 
ENDROOT
BRANCH   1   3
ATOM      2  C   UNL     1       6.591   4.337  16.088  0.00  0.00    +0.000 C 
ATOM      3  C   UNL     1       6.243   5.179  17.076  0.00  0.00    +0.000 C 
BRANCH   2   4
ATOM      4  C   UNL     1       6.625   4.760  14.653  0.00  0.00    +0.000 C 
BRANCH   4   5
ATOM      5  C   UNL     1       5.602   4.030  13.805  0.00  0.00    +0.000 C 
BRANCH   5   6
ATOM      6  C   UNL     1       6.321   3.218  12.736  0.00  0.00    +0.000 C 
BRANCH   6   7
ATOM      7  C   UNL     1       5.349   2.832  11.637  0.00  0.00    +0.000 C 
BRANCH   7   8
ATOM      8  C   UNL     1       4.133   3.746  11.654  0.00  0.00    +0.000 C 
BRANCH   8   9
ATOM      9  C   UNL     1       3.171   3.352  10.543  0.00  0.00    +0.000 C 
BRANCH   9  11
ATOM     10  C   UNL     1       2.062   4.961   8.984  0.00  0.00    +0.000 C 
ATOM     11  C   UNL     1       3.356   4.247   9.324  0.00  0.00    +0.000 C 
ENDBRANCH   9  11
ENDBRANCH   8   9
ENDBRANCH   7   8
ENDBRANCH   6   7
ENDBRANCH   5   6
ENDBRANCH   4   5
ENDBRANCH   2   4
ENDBRANCH   1   3
BRANCH   1  12
ATOM     12  C   UNL     1       4.351   6.771  16.752  0.00  0.00    +0.000 C 
BRANCH  12  13
ATOM     13  C   UNL     1       3.725   6.695  18.141  0.00  0.00    +0.000 C 
BRANCH  13  14
ATOM     14  C   UNL     1       2.279   6.222  18.064  0.00  0.00    +0.000 C 
BRANCH  14  15
ATOM     15  C   UNL     1       2.217   4.716  17.807  0.00  0.00    +0.000 C 
BRANCH  15  16
ATOM     16  C   UNL     1       2.681   3.952  19.005  0.00  0.00    +0.000 C 
ATOM     17  C   UNL     1       3.741   3.128  19.010  0.00  0.00    +0.000 C 
BRANCH  17  18
ATOM     18  C   UNL     1       4.109   2.421  20.253  0.00  0.00    +0.000 C 
ATOM     19  O   UNL     1       5.147   1.803  20.419  0.00  0.00    +0.000 OA
BRANCH  18  20
ATOM     20  O   UNL     1       3.158   2.529  21.202  0.00  0.00    +0.000 OA
ATOM     21  H   UNL     1       2.666   1.713  21.397  0.00  0.00    +0.000 HD
ENDBRANCH  18  20
ENDBRANCH  17  18
ENDBRANCH  15  16
ENDBRANCH  14  15
ENDBRANCH  13  14
ENDBRANCH  12  13
ENDBRANCH   1  12
TORSDOF 15
ENDMDL
MODEL 2
REMARK VINA RESULT:      -5.7      5.731      8.321
REMARK  Name = 
REMARK  16 active torsions:
REMARK  status: ('A' for Active; 'I' for Inactive)
REMARK    1  A    between atoms: C_1  and  C_2
REMARK    2  A    between atoms: C_2  and  C_3
REMARK    3  A    between atoms: C_3  and  C_4
REMARK    4  A    between atoms: C_4  and  C_5
REMARK    5  A    between atoms: C_5  and  C_6
REMARK    6  A    between atoms: C_6  and  C_7
REMARK    7  A    between atoms: C_7  and  C_8
REMARK    8  A    between atoms: C_8  and  C_9
REMARK    9  A    between atoms: C_10  and  C_11
REMARK   10  A    between atoms: C_11  and  C_12
REMARK   11  A    between atoms: C_12  and  C_13
REMARK   12  A    between atoms: C_13  and  C_14
REMARK   13  A    between atoms: C_14  and  C_15
REMARK   14  A    between atoms: C_15  and  C_16
REMARK   15  A    between atoms: C_17  and  C_18
REMARK   16  A    between atoms: C_18  and  O_20
REMARK                            x       y       z     vdW  Elec       q    Type
REMARK                         _______ _______ _______ _____ _____    ______ ____
ROOT
ATOM      1  C   UNL     1       5.169   5.834  18.000  0.00  0.00    +0.000 C 
ENDROOT
BRANCH   1   3
ATOM      2  C   UNL     1       2.708   5.946  18.483  0.00  0.00    +0.000 C 
ATOM      3  C   UNL     1       3.726   5.964  17.607  0.00  0.00    +0.000 C 
BRANCH   2   4
ATOM      4  C   UNL     1       2.922   5.786  19.955  0.00  0.00    +0.000 C 
BRANCH   4   5
ATOM      5  C   UNL     1       1.621   5.695  20.728  0.00  0.00    +0.000 C 
BRANCH   5   6
ATOM      6  C   UNL     1       0.865   4.445  20.296  0.00  0.00    +0.000 C 
BRANCH   6   7
ATOM      7  C   UNL     1       1.396   3.235  21.041  0.00  0.00    +0.000 C 
BRANCH   7   8
ATOM      8  C   UNL     1       1.738   2.117  20.068  0.00  0.00    +0.000 C 
BRANCH   8   9
ATOM      9  C   UNL     1       1.247   2.474  18.672  0.00  0.00    +0.000 C 
BRANCH   9  11
ATOM     10  C   UNL     1       3.685   2.032  18.341  0.00  0.00    +0.000 C 
ATOM     11  C   UNL     1       2.368   2.330  17.651  0.00  0.00    +0.000 C 
ENDBRANCH   9  11
ENDBRANCH   8   9
ENDBRANCH   7   8
ENDBRANCH   6   7
ENDBRANCH   5   6
ENDBRANCH   4   5
ENDBRANCH   2   4
ENDBRANCH   1   3
BRANCH   1  12
ATOM     12  C   UNL     1       6.082   6.454  16.951  0.00  0.00    +0.000 C 
BRANCH  12  13
ATOM     13  C   UNL     1       7.436   6.784  17.571  0.00  0.00    +0.000 C 
BRANCH  13  14
ATOM     14  C   UNL     1       7.758   8.266  17.425  0.00  0.00    +0.000 C 
BRANCH  14  15
ATOM     15  C   UNL     1       8.597   8.755  18.606  0.00  0.00    +0.000 C 
BRANCH  15  16
ATOM     16  C   UNL     1       8.962  10.194  18.439  0.00  0.00    +0.000 C 
ATOM     17  C   UNL     1       9.555  10.936  19.388  0.00  0.00    +0.000 C 
BRANCH  17  18
ATOM     18  C   UNL     1       9.870  12.353  19.115  0.00  0.00    +0.000 C 
ATOM     19  O   UNL     1      10.411  13.109  19.905  0.00  0.00    +0.000 OA
BRANCH  18  20
ATOM     20  O   UNL     1       9.489  12.731  17.879  0.00  0.00    +0.000 OA
ATOM     21  H   UNL     1       9.831  12.185  17.150  0.00  0.00    +0.000 HD
ENDBRANCH  18  20
ENDBRANCH  17  18
ENDBRANCH  15  16
ENDBRANCH  14  15
ENDBRANCH  13  14
ENDBRANCH  12  13
ENDBRANCH   1  12
TORSDOF 15
ENDMDL
MODEL 3
REMARK VINA RESULT:      -5.7      5.849      8.582
REMARK  Name = 
REMARK  16 active torsions:
REMARK  status: ('A' for Active; 'I' for Inactive)
REMARK    1  A    between atoms: C_1  and  C_2
REMARK    2  A    between atoms: C_2  and  C_3
REMARK    3  A    between atoms: C_3  and  C_4
REMARK    4  A    between atoms: C_4  and  C_5
REMARK    5  A    between atoms: C_5  and  C_6
REMARK    6  A    between atoms: C_6  and  C_7
REMARK    7  A    between atoms: C_7  and  C_8
REMARK    8  A    between atoms: C_8  and  C_9
REMARK    9  A    between atoms: C_10  and  C_11
REMARK   10  A    between atoms: C_11  and  C_12
REMARK   11  A    between atoms: C_12  and  C_13
REMARK   12  A    between atoms: C_13  and  C_14
REMARK   13  A    between atoms: C_14  and  C_15
REMARK   14  A    between atoms: C_15  and  C_16
REMARK   15  A    between atoms: C_17  and  C_18
REMARK   16  A    between atoms: C_18  and  O_20
REMARK                            x       y       z     vdW  Elec       q    Type
REMARK                         _______ _______ _______ _____ _____    ______ ____
ROOT
ATOM      1  C   UNL     1       6.067   6.779  17.754  0.00  0.00    +0.000 C 
ENDROOT
BRANCH   1   3
ATOM      2  C   UNL     1       5.875   4.321  18.228  0.00  0.00    +0.000 C 
ATOM      3  C   UNL     1       6.269   5.553  18.594  0.00  0.00    +0.000 C 
BRANCH   2   4
ATOM      4  C   UNL     1       5.181   4.058  16.929  0.00  0.00    +0.000 C 
BRANCH   4   5
ATOM      5  C   UNL     1       3.672   4.023  17.070  0.00  0.00    +0.000 C 
BRANCH   5   6
ATOM      6  C   UNL     1       3.237   2.623  17.480  0.00  0.00    +0.000 C 
BRANCH   6   7
ATOM      7  C   UNL     1       2.027   2.702  18.393  0.00  0.00    +0.000 C 
BRANCH   7   8
ATOM      8  C   UNL     1       1.659   4.152  18.666  0.00  0.00    +0.000 C 
BRANCH   8   9
ATOM      9  C   UNL     1       1.500   4.376  20.163  0.00  0.00    +0.000 C 
BRANCH   9  11
ATOM     10  C   UNL     1       2.639   6.481  19.440  0.00  0.00    +0.000 C 
ATOM     11  C   UNL     1       1.817   5.820  20.530  0.00  0.00    +0.000 C 
ENDBRANCH   9  11
ENDBRANCH   8   9
ENDBRANCH   7   8
ENDBRANCH   6   7
ENDBRANCH   5   6
ENDBRANCH   4   5
ENDBRANCH   2   4
ENDBRANCH   1   3
BRANCH   1  12
ATOM     12  C   UNL     1       7.386   7.271  17.173  0.00  0.00    +0.000 C 
BRANCH  12  13
ATOM     13  C   UNL     1       8.195   7.982  18.253  0.00  0.00    +0.000 C 
BRANCH  13  14
ATOM     14  C   UNL     1       8.302   9.474  17.964  0.00  0.00    +0.000 C 
BRANCH  14  15
ATOM     15  C   UNL     1       9.168  10.168  19.016  0.00  0.00    +0.000 C 
BRANCH  15  16
ATOM     16  C   UNL     1       9.675  11.478  18.509  0.00  0.00    +0.000 C 
ATOM     17  C   UNL     1      10.851  11.641  17.882  0.00  0.00    +0.000 C 
BRANCH  17  18
ATOM     18  C   UNL     1      11.254  12.985  17.424  0.00  0.00    +0.000 C 
ATOM     19  O   UNL     1      10.689  14.022  17.730  0.00  0.00    +0.000 OA
BRANCH  18  20
ATOM     20  O   UNL     1      12.330  12.946  16.614  0.00  0.00    +0.000 OA
ATOM     21  H   UNL     1      12.197  12.494  15.762  0.00  0.00    +0.000 HD
ENDBRANCH  18  20
ENDBRANCH  17  18
ENDBRANCH  15  16
ENDBRANCH  14  15
ENDBRANCH  13  14
ENDBRANCH  12  13
ENDBRANCH   1  12
TORSDOF 15
ENDMDL
MODEL 4
REMARK VINA RESULT:      -5.6      3.584      6.978
REMARK  Name = 
REMARK  16 active torsions:
REMARK  status: ('A' for Active; 'I' for Inactive)
REMARK    1  A    between atoms: C_1  and  C_2
REMARK    2  A    between atoms: C_2  and  C_3
REMARK    3  A    between atoms: C_3  and  C_4
REMARK    4  A    between atoms: C_4  and  C_5
REMARK    5  A    between atoms: C_5  and  C_6
REMARK    6  A    between atoms: C_6  and  C_7
REMARK    7  A    between atoms: C_7  and  C_8
REMARK    8  A    between atoms: C_8  and  C_9
REMARK    9  A    between atoms: C_10  and  C_11
REMARK   10  A    between atoms: C_11  and  C_12
REMARK   11  A    between atoms: C_12  and  C_13
REMARK   12  A    between atoms: C_13  and  C_14
REMARK   13  A    between atoms: C_14  and  C_15
REMARK   14  A    between atoms: C_15  and  C_16
REMARK   15  A    between atoms: C_17  and  C_18
REMARK   16  A    between atoms: C_18  and  O_20
REMARK                            x       y       z     vdW  Elec       q    Type
REMARK                         _______ _______ _______ _____ _____    ______ ____
ROOT
ATOM      1  C   UNL     1       6.238   5.339  15.860  0.00  0.00    +0.000 C 
ENDROOT
BRANCH   1   3
ATOM      2  C   UNL     1       7.707   4.786  17.819  0.00  0.00    +0.000 C 
ATOM      3  C   UNL     1       7.270   4.519  16.577  0.00  0.00    +0.000 C 
BRANCH   2   4
ATOM      4  C   UNL     1       7.200   5.949  18.613  0.00  0.00    +0.000 C 
BRANCH   4   5
ATOM      5  C   UNL     1       8.213   7.072  18.713  0.00  0.00    +0.000 C 
BRANCH   5   6
ATOM      6  C   UNL     1       8.045   8.009  17.525  0.00  0.00    +0.000 C 
BRANCH   6   7
ATOM      7  C   UNL     1       7.849   9.433  18.010  0.00  0.00    +0.000 C 
BRANCH   7   8
ATOM      8  C   UNL     1       9.068   9.905  18.788  0.00  0.00    +0.000 C 
BRANCH   8   9
ATOM      9  C   UNL     1       9.654  11.148  18.134  0.00  0.00    +0.000 C 
BRANCH   9  11
ATOM     10  C   UNL     1      11.801  12.375  17.769  0.00  0.00    +0.000 C 
ATOM     11  C   UNL     1      11.031  11.461  18.704  0.00  0.00    +0.000 C 
ENDBRANCH   9  11
ENDBRANCH   8   9
ENDBRANCH   7   8
ENDBRANCH   6   7
ENDBRANCH   5   6
ENDBRANCH   4   5
ENDBRANCH   2   4
ENDBRANCH   1   3
BRANCH   1  12
ATOM     12  C   UNL     1       5.106   4.463  15.339  0.00  0.00    +0.000 C 
BRANCH  12  13
ATOM     13  C   UNL     1       4.562   3.592  16.467  0.00  0.00    +0.000 C 
BRANCH  13  14
ATOM     14  C   UNL     1       3.756   4.421  17.459  0.00  0.00    +0.000 C 
BRANCH  14  15
ATOM     15  C   UNL     1       4.282   4.224  18.881  0.00  0.00    +0.000 C 
BRANCH  15  16
ATOM     16  C   UNL     1       3.156   4.020  19.841  0.00  0.00    +0.000 C 
ATOM     17  C   UNL     1       2.629   2.823  20.143  0.00  0.00    +0.000 C 
BRANCH  17  18
ATOM     18  C   UNL     1       1.514   2.738  21.107  0.00  0.00    +0.000 C 
ATOM     19  O   UNL     1       1.641   2.512  22.299  0.00  0.00    +0.000 OA
BRANCH  18  20
ATOM     20  O   UNL     1       0.318   2.939  20.521  0.00  0.00    +0.000 OA
ATOM     21  H   UNL     1      -0.398   3.226  21.116  0.00  0.00    +0.000 HD
ENDBRANCH  18  20
ENDBRANCH  17  18
ENDBRANCH  15  16
ENDBRANCH  14  15
ENDBRANCH  13  14
ENDBRANCH  12  13
ENDBRANCH   1  12
TORSDOF 15
ENDMDL
MODEL 5
REMARK VINA RESULT:      -5.6      4.764      7.839
REMARK  Name = 
REMARK  16 active torsions:
REMARK  status: ('A' for Active; 'I' for Inactive)
REMARK    1  A    between atoms: C_1  and  C_2
REMARK    2  A    between atoms: C_2  and  C_3
REMARK    3  A    between atoms: C_3  and  C_4
REMARK    4  A    between atoms: C_4  and  C_5
REMARK    5  A    between atoms: C_5  and  C_6
REMARK    6  A    between atoms: C_6  and  C_7
REMARK    7  A    between atoms: C_7  and  C_8
REMARK    8  A    between atoms: C_8  and  C_9
REMARK    9  A    between atoms: C_10  and  C_11
REMARK   10  A    between atoms: C_11  and  C_12
REMARK   11  A    between atoms: C_12  and  C_13
REMARK   12  A    between atoms: C_13  and  C_14
REMARK   13  A    between atoms: C_14  and  C_15
REMARK   14  A    between atoms: C_15  and  C_16
REMARK   15  A    between atoms: C_17  and  C_18
REMARK   16  A    between atoms: C_18  and  O_20
REMARK                            x       y       z     vdW  Elec       q    Type
REMARK                         _______ _______ _______ _____ _____    ______ ____
ROOT
ATOM      1  C   UNL     1       6.564   4.037  16.073  0.00  0.00    +0.000 C 
ENDROOT
BRANCH   1   3
ATOM      2  C   UNL     1       4.105   4.098  16.576  0.00  0.00    +0.000 C 
ATOM      3  C   UNL     1       5.182   4.611  15.959  0.00  0.00    +0.000 C 
BRANCH   2   4
ATOM      4  C   UNL     1       4.186   2.881  17.444  0.00  0.00    +0.000 C 
BRANCH   4   5
ATOM      5  C   UNL     1       4.138   3.214  18.922  0.00  0.00    +0.000 C 
BRANCH   5   6
ATOM      6  C   UNL     1       3.166   2.272  19.619  0.00  0.00    +0.000 C 
BRANCH   6   7
ATOM      7  C   UNL     1       1.771   2.450  19.050  0.00  0.00    +0.000 C 
BRANCH   7   8
ATOM      8  C   UNL     1       1.361   3.914  19.091  0.00  0.00    +0.000 C 
BRANCH   8   9
ATOM      9  C   UNL     1       1.186   4.365  20.534  0.00  0.00    +0.000 C 
BRANCH   9  11
ATOM     10  C   UNL     1       2.478   6.249  19.518  0.00  0.00    +0.000 C 
ATOM     11  C   UNL     1       1.656   5.803  20.713  0.00  0.00    +0.000 C 
ENDBRANCH   9  11
ENDBRANCH   8   9
ENDBRANCH   7   8
ENDBRANCH   6   7
ENDBRANCH   5   6
ENDBRANCH   4   5
ENDBRANCH   2   4
ENDBRANCH   1   3
BRANCH   1  12
ATOM     12  C   UNL     1       7.396   4.806  17.090  0.00  0.00    +0.000 C 
BRANCH  12  13
ATOM     13  C   UNL     1       7.088   6.297  16.991  0.00  0.00    +0.000 C 
BRANCH  13  14
ATOM     14  C   UNL     1       7.752   7.070  18.123  0.00  0.00    +0.000 C 
BRANCH  14  15
ATOM     15  C   UNL     1       8.012   8.519  17.709  0.00  0.00    +0.000 C 
BRANCH  15  16
ATOM     16  C   UNL     1       8.854   9.220  18.724  0.00  0.00    +0.000 C 
ATOM     17  C   UNL     1       9.151  10.529  18.684  0.00  0.00    +0.000 C 
BRANCH  17  18
ATOM     18  C   UNL     1       9.995  11.119  19.742  0.00  0.00    +0.000 C 
ATOM     19  O   UNL     1       9.635  11.313  20.891  0.00  0.00    +0.000 OA
BRANCH  18  20
ATOM     20  O   UNL     1      11.229  11.428  19.296  0.00  0.00    +0.000 OA
ATOM     21  H   UNL     1      11.929  10.791  19.526  0.00  0.00    +0.000 HD
ENDBRANCH  18  20
ENDBRANCH  17  18
ENDBRANCH  15  16
ENDBRANCH  14  15
ENDBRANCH  13  14
ENDBRANCH  12  13
ENDBRANCH   1  12
TORSDOF 15
ENDMDL
MODEL 6
REMARK VINA RESULT:      -5.6      5.743      8.634
REMARK  Name = 
REMARK  16 active torsions:
REMARK  status: ('A' for Active; 'I' for Inactive)
REMARK    1  A    between atoms: C_1  and  C_2
REMARK    2  A    between atoms: C_2  and  C_3
REMARK    3  A    between atoms: C_3  and  C_4
REMARK    4  A    between atoms: C_4  and  C_5
REMARK    5  A    between atoms: C_5  and  C_6
REMARK    6  A    between atoms: C_6  and  C_7
REMARK    7  A    between atoms: C_7  and  C_8
REMARK    8  A    between atoms: C_8  and  C_9
REMARK    9  A    between atoms: C_10  and  C_11
REMARK   10  A    between atoms: C_11  and  C_12
REMARK   11  A    between atoms: C_12  and  C_13
REMARK   12  A    between atoms: C_13  and  C_14
REMARK   13  A    between atoms: C_14  and  C_15
REMARK   14  A    between atoms: C_15  and  C_16
REMARK   15  A    between atoms: C_17  and  C_18
REMARK   16  A    between atoms: C_18  and  O_20
REMARK                            x       y       z     vdW  Elec       q    Type
REMARK                         _______ _______ _______ _____ _____    ______ ____
ROOT
ATOM      1  C   UNL     1       6.973   5.579  18.562  0.00  0.00    +0.000 C 
ENDROOT
BRANCH   1   3
ATOM      2  C   UNL     1       4.800   4.442  19.097  0.00  0.00    +0.000 C 
ATOM      3  C   UNL     1       5.812   5.250  19.453  0.00  0.00    +0.000 C 
BRANCH   2   4
ATOM      4  C   UNL     1       4.734   3.788  17.752  0.00  0.00    +0.000 C 
BRANCH   4   5
ATOM      5  C   UNL     1       3.505   4.196  16.965  0.00  0.00    +0.000 C 
BRANCH   5   6
ATOM      6  C   UNL     1       2.412   4.635  17.930  0.00  0.00    +0.000 C 
BRANCH   6   7
ATOM      7  C   UNL     1       1.293   3.610  17.948  0.00  0.00    +0.000 C 
BRANCH   7   8
ATOM      8  C   UNL     1       1.106   3.049  19.349  0.00  0.00    +0.000 C 
BRANCH   8   9
ATOM      9  C   UNL     1       1.321   4.146  20.382  0.00  0.00    +0.000 C 
BRANCH   9  11
ATOM     10  C   UNL     1       2.870   2.453  21.374  0.00  0.00    +0.000 C 
ATOM     11  C   UNL     1       1.888   3.570  21.673  0.00  0.00    +0.000 C 
ENDBRANCH   9  11
ENDBRANCH   8   9
ENDBRANCH   7   8
ENDBRANCH   6   7
ENDBRANCH   5   6
ENDBRANCH   4   5
ENDBRANCH   2   4
ENDBRANCH   1   3
BRANCH   1  12
ATOM     12  C   UNL     1       6.649   6.752  17.647  0.00  0.00    +0.000 C 
BRANCH  12  13
ATOM     13  C   UNL     1       7.916   7.553  17.363  0.00  0.00    +0.000 C 
BRANCH  13  14
ATOM     14  C   UNL     1       7.711   9.030  17.677  0.00  0.00    +0.000 C 
BRANCH  14  15
ATOM     15  C   UNL     1       8.816   9.543  18.601  0.00  0.00    +0.000 C 
BRANCH  15  16
ATOM     16  C   UNL     1       9.173  10.956  18.271  0.00  0.00    +0.000 C 
ATOM     17  C   UNL     1      10.300  11.563  18.674  0.00  0.00    +0.000 C 
BRANCH  17  18
ATOM     18  C   UNL     1      10.551  12.967  18.290  0.00  0.00    +0.000 C 
ATOM     19  O   UNL     1      11.266  13.739  18.907  0.00  0.00    +0.000 OA
BRANCH  18  20
ATOM     20  O   UNL     1       9.892  13.313  17.167  0.00  0.00    +0.000 OA
ATOM     21  H   UNL     1       8.923  13.234  17.208  0.00  0.00    +0.000 HD
ENDBRANCH  18  20
ENDBRANCH  17  18
ENDBRANCH  15  16
ENDBRANCH  14  15
ENDBRANCH  13  14
ENDBRANCH  12  13
ENDBRANCH   1  12
TORSDOF 15
ENDMDL
MODEL 7
REMARK VINA RESULT:      -5.5      3.755      7.337
REMARK  Name = 
REMARK  16 active torsions:
REMARK  status: ('A' for Active; 'I' for Inactive)
REMARK    1  A    between atoms: C_1  and  C_2
REMARK    2  A    between atoms: C_2  and  C_3
REMARK    3  A    between atoms: C_3  and  C_4
REMARK    4  A    between atoms: C_4  and  C_5
REMARK    5  A    between atoms: C_5  and  C_6
REMARK    6  A    between atoms: C_6  and  C_7
REMARK    7  A    between atoms: C_7  and  C_8
REMARK    8  A    between atoms: C_8  and  C_9
REMARK    9  A    between atoms: C_10  and  C_11
REMARK   10  A    between atoms: C_11  and  C_12
REMARK   11  A    between atoms: C_12  and  C_13
REMARK   12  A    between atoms: C_13  and  C_14
REMARK   13  A    between atoms: C_14  and  C_15
REMARK   14  A    between atoms: C_15  and  C_16
REMARK   15  A    between atoms: C_17  and  C_18
REMARK   16  A    between atoms: C_18  and  O_20
REMARK                            x       y       z     vdW  Elec       q    Type
REMARK                         _______ _______ _______ _____ _____    ______ ____
ROOT
ATOM      1  C   UNL     1       7.183   4.447  16.092  0.00  0.00    +0.000 C 
ENDROOT
BRANCH   1   3
ATOM      2  C   UNL     1       6.672   5.760  18.170  0.00  0.00    +0.000 C 
ATOM      3  C   UNL     1       7.162   4.658  17.578  0.00  0.00    +0.000 C 
BRANCH   2   4
ATOM      4  C   UNL     1       6.098   6.899  17.389  0.00  0.00    +0.000 C 
BRANCH   4   5
ATOM      5  C   UNL     1       4.608   6.752  17.152  0.00  0.00    +0.000 C 
BRANCH   5   6
ATOM      6  C   UNL     1       3.942   6.255  18.429  0.00  0.00    +0.000 C 
BRANCH   6   7
ATOM      7  C   UNL     1       2.444   6.136  18.220  0.00  0.00    +0.000 C 
BRANCH   7   8
ATOM      8  C   UNL     1       1.992   4.696  18.410  0.00  0.00    +0.000 C 
BRANCH   8   9
ATOM      9  C   UNL     1       2.693   3.793  17.406  0.00  0.00    +0.000 C 
BRANCH   9  11
ATOM     10  C   UNL     1       3.580   1.786  18.604  0.00  0.00    +0.000 C 
ATOM     11  C   UNL     1       2.457   2.326  17.739  0.00  0.00    +0.000 C 
ENDBRANCH   9  11
ENDBRANCH   8   9
ENDBRANCH   7   8
ENDBRANCH   6   7
ENDBRANCH   5   6
ENDBRANCH   4   5
ENDBRANCH   2   4
ENDBRANCH   1   3
BRANCH   1  12
ATOM     12  C   UNL     1       5.943   3.697  15.627  0.00  0.00    +0.000 C 
BRANCH  12  13
ATOM     13  C   UNL     1       5.446   4.284  14.309  0.00  0.00    +0.000 C 
BRANCH  13  14
ATOM     14  C   UNL     1       6.458   4.059  13.193  0.00  0.00    +0.000 C 
BRANCH  14  15
ATOM     15  C   UNL     1       6.061   2.854  12.339  0.00  0.00    +0.000 C 
BRANCH  15  16
ATOM     16  C   UNL     1       5.213   3.276  11.184  0.00  0.00    +0.000 C 
ATOM     17  C   UNL     1       3.871   3.306  11.206  0.00  0.00    +0.000 C 
BRANCH  17  18
ATOM     18  C   UNL     1       3.131   3.739  10.003  0.00  0.00    +0.000 C 
ATOM     19  O   UNL     1       2.747   4.878   9.796  0.00  0.00    +0.000 OA
BRANCH  18  20
ATOM     20  O   UNL     1       2.919   2.724   9.142  0.00  0.00    +0.000 OA
ATOM     21  H   UNL     1       2.927   2.966   8.200  0.00  0.00    +0.000 HD
ENDBRANCH  18  20
ENDBRANCH  17  18
ENDBRANCH  15  16
ENDBRANCH  14  15
ENDBRANCH  13  14
ENDBRANCH  12  13
ENDBRANCH   1  12
TORSDOF 15
ENDMDL
MODEL 8
REMARK VINA RESULT:      -5.5      5.650      8.229
REMARK  Name = 
REMARK  16 active torsions:
REMARK  status: ('A' for Active; 'I' for Inactive)
REMARK    1  A    between atoms: C_1  and  C_2
REMARK    2  A    between atoms: C_2  and  C_3
REMARK    3  A    between atoms: C_3  and  C_4
REMARK    4  A    between atoms: C_4  and  C_5
REMARK    5  A    between atoms: C_5  and  C_6
REMARK    6  A    between atoms: C_6  and  C_7
REMARK    7  A    between atoms: C_7  and  C_8
REMARK    8  A    between atoms: C_8  and  C_9
REMARK    9  A    between atoms: C_10  and  C_11
REMARK   10  A    between atoms: C_11  and  C_12
REMARK   11  A    between atoms: C_12  and  C_13
REMARK   12  A    between atoms: C_13  and  C_14
REMARK   13  A    between atoms: C_14  and  C_15
REMARK   14  A    between atoms: C_15  and  C_16
REMARK   15  A    between atoms: C_17  and  C_18
REMARK   16  A    between atoms: C_18  and  O_20
REMARK                            x       y       z     vdW  Elec       q    Type
REMARK                         _______ _______ _______ _____ _____    ______ ____
ROOT
ATOM      1  C   UNL     1       5.336   5.497  17.589  0.00  0.00    +0.000 C 
ENDROOT
BRANCH   1   3
ATOM      2  C   UNL     1       3.325   6.999  17.643  0.00  0.00    +0.000 C 
ATOM      3  C   UNL     1       4.586   6.752  17.251  0.00  0.00    +0.000 C 
BRANCH   2   4
ATOM      4  C   UNL     1       2.537   6.025  18.462  0.00  0.00    +0.000 C 
BRANCH   4   5
ATOM      5  C   UNL     1       2.569   6.348  19.943  0.00  0.00    +0.000 C 
BRANCH   5   6
ATOM      6  C   UNL     1       2.157   5.115  20.736  0.00  0.00    +0.000 C 
BRANCH   6   7
ATOM      7  C   UNL     1       1.137   4.310  19.952  0.00  0.00    +0.000 C 
BRANCH   7   8
ATOM      8  C   UNL     1       1.438   2.823  20.055  0.00  0.00    +0.000 C 
BRANCH   8   9
ATOM      9  C   UNL     1       2.928   2.579  19.867  0.00  0.00    +0.000 C 
BRANCH   9  11
ATOM     10  C   UNL     1       3.130   2.591  17.376  0.00  0.00    +0.000 C 
ATOM     11  C   UNL     1       3.187   1.735  18.626  0.00  0.00    +0.000 C 
ENDBRANCH   9  11
ENDBRANCH   8   9
ENDBRANCH   7   8
ENDBRANCH   6   7
ENDBRANCH   5   6
ENDBRANCH   4   5
ENDBRANCH   2   4
ENDBRANCH   1   3
BRANCH   1  12
ATOM     12  C   UNL     1       6.783   5.803  17.950  0.00  0.00    +0.000 C 
BRANCH  12  13
ATOM     13  C   UNL     1       7.183   7.162  17.384  0.00  0.00    +0.000 C 
BRANCH  13  14
ATOM     14  C   UNL     1       8.247   7.824  18.250  0.00  0.00    +0.000 C 
BRANCH  14  15
ATOM     15  C   UNL     1       8.172   9.347  18.128  0.00  0.00    +0.000 C 
BRANCH  15  16
ATOM     16  C   UNL     1       9.288   9.997  18.880  0.00  0.00    +0.000 C 
ATOM     17  C   UNL     1       9.860  11.158  18.526  0.00  0.00    +0.000 C 
BRANCH  17  18
ATOM     18  C   UNL     1      10.960  11.709  19.342  0.00  0.00    +0.000 C 
ATOM     19  O   UNL     1      12.138  11.423  19.205  0.00  0.00    +0.000 OA
BRANCH  18  20
ATOM     20  O   UNL     1      10.517  12.575  20.275  0.00  0.00    +0.000 OA
ATOM     21  H   UNL     1       9.686  13.034  20.059  0.00  0.00    +0.000 HD
ENDBRANCH  18  20
ENDBRANCH  17  18
ENDBRANCH  15  16
ENDBRANCH  14  15
ENDBRANCH  13  14
ENDBRANCH  12  13
ENDBRANCH   1  12
TORSDOF 15
ENDMDL
MODEL 9
REMARK VINA RESULT:      -5.5      5.900      8.021
REMARK  Name = 
REMARK  16 active torsions:
REMARK  status: ('A' for Active; 'I' for Inactive)
REMARK    1  A    between atoms: C_1  and  C_2
REMARK    2  A    between atoms: C_2  and  C_3
REMARK    3  A    between atoms: C_3  and  C_4
REMARK    4  A    between atoms: C_4  and  C_5
REMARK    5  A    between atoms: C_5  and  C_6
REMARK    6  A    between atoms: C_6  and  C_7
REMARK    7  A    between atoms: C_7  and  C_8
REMARK    8  A    between atoms: C_8  and  C_9
REMARK    9  A    between atoms: C_10  and  C_11
REMARK   10  A    between atoms: C_11  and  C_12
REMARK   11  A    between atoms: C_12  and  C_13
REMARK   12  A    between atoms: C_13  and  C_14
REMARK   13  A    between atoms: C_14  and  C_15
REMARK   14  A    between atoms: C_15  and  C_16
REMARK   15  A    between atoms: C_17  and  C_18
REMARK   16  A    between atoms: C_18  and  O_20
REMARK                            x       y       z     vdW  Elec       q    Type
REMARK                         _______ _______ _______ _____ _____    ______ ____
ROOT
ATOM      1  C   UNL     1       2.795   6.553  18.477  0.00  0.00    +0.000 C 
ENDROOT
BRANCH   1   3
ATOM      2  C   UNL     1       4.532   4.791  18.906  0.00  0.00    +0.000 C 
ATOM      3  C   UNL     1       3.951   5.959  19.227  0.00  0.00    +0.000 C 
BRANCH   2   4
ATOM      4  C   UNL     1       4.068   3.959  17.752  0.00  0.00    +0.000 C 
BRANCH   4   5
ATOM      5  C   UNL     1       3.715   2.542  18.160  0.00  0.00    +0.000 C 
BRANCH   5   6
ATOM      6  C   UNL     1       2.341   2.186  17.609  0.00  0.00    +0.000 C 
BRANCH   6   7
ATOM      7  C   UNL     1       1.303   3.160  18.136  0.00  0.00    +0.000 C 
BRANCH   7   8
ATOM      8  C   UNL     1       0.935   2.821  19.573  0.00  0.00    +0.000 C 
BRANCH   8   9
ATOM      9  C   UNL     1       0.992   4.075  20.434  0.00  0.00    +0.000 C 
BRANCH   9  11
ATOM     10  C   UNL     1       2.555   2.507  21.593  0.00  0.00    +0.000 C 
ATOM     11  C   UNL     1       2.040   3.932  21.529  0.00  0.00    +0.000 C 
ENDBRANCH   9  11
ENDBRANCH   8   9
ENDBRANCH   7   8
ENDBRANCH   6   7
ENDBRANCH   5   6
ENDBRANCH   4   5
ENDBRANCH   2   4
ENDBRANCH   1   3
BRANCH   1  12
ATOM     12  C   UNL     1       3.250   7.704  17.590  0.00  0.00    +0.000 C 
BRANCH  12  13
ATOM     13  C   UNL     1       2.342   8.911  17.801  0.00  0.00    +0.000 C 
BRANCH  13  14
ATOM     14  C   UNL     1       1.176   8.565  18.718  0.00  0.00    +0.000 C 
BRANCH  14  15
ATOM     15  C   UNL     1       0.992   9.642  19.788  0.00  0.00    +0.000 C 
BRANCH  15  16
ATOM     16  C   UNL     1       0.379  10.873  19.205  0.00  0.00    +0.000 C 
ATOM     17  C   UNL     1      -0.818  10.906  18.599  0.00  0.00    +0.000 C 
BRANCH  17  18
ATOM     18  C   UNL     1      -1.326  12.181  18.056  0.00  0.00    +0.000 C 
ATOM     19  O   UNL     1      -0.672  13.206  17.961  0.00  0.00    +0.000 OA
BRANCH  18  20
ATOM     20  O   UNL     1      -2.614  12.093  17.670  0.00  0.00    +0.000 OA
ATOM     21  H   UNL     1      -2.803  11.423  16.989  0.00  0.00    +0.000 HD
ENDBRANCH  18  20
ENDBRANCH  17  18
ENDBRANCH  15  16
ENDBRANCH  14  15
ENDBRANCH  13  14
ENDBRANCH  12  13
ENDBRANCH   1  12
TORSDOF 15
ENDMDL
