MODEL 1
REMARK VINA RESULT:      -8.9      0.000      0.000
REMARK  Name = 
REMARK  9 active torsions:
REMARK  status: ('A' for Active; 'I' for Inactive)
REMARK    1  A    between atoms: C_1  and  C_2
REMARK    2  A    between atoms: C_2  and  C_3
REMARK    3  A    between atoms: C_2  and  C_4
REMARK    4  A    between atoms: C_4  and  C_5
REMARK    5  A    between atoms: C_4  and  N_6
REMARK    6  A    between atoms: C_9  and  C_10
REMARK    7  A    between atoms: C_12  and  S_13
REMARK    8  A    between atoms: S_13  and  C_14
REMARK    9  A    between atoms: C_17  and  C_18
REMARK                            x       y       z     vdW  Elec       q    Type
REMARK                         _______ _______ _______ _____ _____    ______ ____
ROOT
ATOM      1  C   UNL     1       3.271   6.422  17.949  0.00  0.00    +0.000 A 
ATOM      2  N   UNL     1       4.149   6.708  16.923  0.00  0.00    +0.000 N 
ATOM      3  C   UNL     1       4.815   5.564  16.583  0.00  0.00    +0.000 A 
ATOM      4  N   UNL     1       4.387   4.537  17.280  0.00  0.00    +0.000 NA
ATOM      5  C   UNL     1       3.418   5.046  18.121  0.00  0.00    +0.000 A 
ATOM      6  H   UNL     1       4.352   7.617  16.529  0.00  0.00    +0.000 HD
ENDROOT
BRANCH   1  10
ATOM      7  N   UNL     1       0.818  10.688  17.967  0.00  0.00    +0.000 N 
ATOM      8  C   UNL     1       1.236   9.524  18.645  0.00  0.00    +0.000 A 
ATOM      9  C   UNL     1       1.969   8.566  17.955  0.00  0.00    +0.000 A 
ATOM     10  C   UNL     1       2.482   7.455  18.638  0.00  0.00    +0.000 A 
ATOM     11  C   UNL     1       2.222   7.354  20.003  0.00  0.00    +0.000 A 
ATOM     12  C   UNL     1       1.396   8.288  20.593  0.00  0.00    +0.000 A 
ATOM     13  N   UNL     1       0.900   9.353  19.941  0.00  0.00    +0.000 NA
ATOM     14  H   UNL     1       1.509  10.932  17.266  0.00  0.00    +0.000 HD
BRANCH   7  15
ATOM     15  C   UNL     1       0.549  11.836  18.856  0.00  0.00    +0.000 C 
ATOM     16  C   UNL     1       1.435  13.032  18.459  0.00  0.00    +0.000 C 
BRANCH  15  18
ATOM     17  C   UNL     1      -1.647  12.075  20.163  0.00  0.00    +0.000 C 
ATOM     18  C   UNL     1      -0.954  12.237  18.806  0.00  0.00    +0.000 C 
ATOM     19  C   UNL     1      -1.762  11.511  17.726  0.00  0.00    +0.000 C 
ENDBRANCH  15  18
ENDBRANCH   7  15
ENDBRANCH   1  10
BRANCH   5  20
ATOM     20  C   UNL     1       2.745   4.210  19.104  0.00  0.00    +0.000 A 
ATOM     21  C   UNL     1       3.485   3.667  20.167  0.00  0.00    +0.000 A 
ATOM     22  C   UNL     1       2.839   2.984  21.201  0.00  0.00    +0.000 A 
ATOM     23  C   UNL     1       1.458   2.844  21.171  0.00  0.00    +0.000 A 
ATOM     24  F   UNL     1       0.833   2.240  22.190  0.00  0.00    +0.000 F 
ATOM     25  C   UNL     1       0.712   3.328  20.106  0.00  0.00    +0.000 A 
ATOM     26  C   UNL     1       1.361   3.979  19.055  0.00  0.00    +0.000 A 
ENDBRANCH   5  20
BRANCH   3  27
ATOM     27  S   UNL     1       6.068   5.520  15.386  0.00  0.00    +0.000 S 
ATOM     28  C   UNL     1       6.147   3.732  15.162  0.00  0.00    +0.000 C 
ATOM     29  O   UNL     1       7.366   6.033  16.109  0.00  0.00    +0.000 OA
ENDBRANCH   3  27
TORSDOF 5
ENDMDL
MODEL 2
REMARK VINA RESULT:      -8.3      0.749      1.264
REMARK  Name = 
REMARK  9 active torsions:
REMARK  status: ('A' for Active; 'I' for Inactive)
REMARK    1  A    between atoms: C_1  and  C_2
REMARK    2  A    between atoms: C_2  and  C_3
REMARK    3  A    between atoms: C_2  and  C_4
REMARK    4  A    between atoms: C_4  and  C_5
REMARK    5  A    between atoms: C_4  and  N_6
REMARK    6  A    between atoms: C_9  and  C_10
REMARK    7  A    between atoms: C_12  and  S_13
REMARK    8  A    between atoms: S_13  and  C_14
REMARK    9  A    between atoms: C_17  and  C_18
REMARK                            x       y       z     vdW  Elec       q    Type
REMARK                         _______ _______ _______ _____ _____    ______ ____
ROOT
ATOM      1  C   UNL     1       3.170   6.738  18.054  0.00  0.00    +0.000 A 
ATOM      2  N   UNL     1       4.064   6.921  17.018  0.00  0.00    +0.000 N 
ATOM      3  C   UNL     1       4.678   5.730  16.752  0.00  0.00    +0.000 A 
ATOM      4  N   UNL     1       4.200   4.767  17.506  0.00  0.00    +0.000 NA
ATOM      5  C   UNL     1       3.252   5.369  18.309  0.00  0.00    +0.000 A 
ATOM      6  H   UNL     1       4.310   7.795  16.573  0.00  0.00    +0.000 HD
ENDROOT
BRANCH   1  10
ATOM      7  N   UNL     1       1.361  11.314  17.962  0.00  0.00    +0.000 N 
ATOM      8  C   UNL     1       1.495  10.073  18.620  0.00  0.00    +0.000 A 
ATOM      9  C   UNL     1       2.194   9.048  17.993  0.00  0.00    +0.000 A 
ATOM     10  C   UNL     1       2.427   7.845  18.675  0.00  0.00    +0.000 A 
ATOM     11  C   UNL     1       1.931   7.726  19.971  0.00  0.00    +0.000 A 
ATOM     12  C   UNL     1       1.154   8.746  20.482  0.00  0.00    +0.000 A 
ATOM     13  N   UNL     1       0.926   9.898  19.831  0.00  0.00    +0.000 NA
ATOM     14  H   UNL     1       2.187  11.483  17.398  0.00  0.00    +0.000 HD
BRANCH   7  15
ATOM     15  C   UNL     1       1.108  12.450  18.870  0.00  0.00    +0.000 C 
ATOM     16  C   UNL     1       2.294  13.432  18.834  0.00  0.00    +0.000 C 
BRANCH  15  18
ATOM     17  C   UNL     1      -0.145  14.687  18.768  0.00  0.00    +0.000 C 
ATOM     18  C   UNL     1      -0.212  13.182  18.490  0.00  0.00    +0.000 C 
ATOM     19  C   UNL     1      -1.467  12.592  19.142  0.00  0.00    +0.000 C 
ENDBRANCH  15  18
ENDBRANCH   7  15
ENDBRANCH   1  10
BRANCH   5  20
ATOM     20  C   UNL     1       2.538   4.625  19.335  0.00  0.00    +0.000 A 
ATOM     21  C   UNL     1       1.439   3.831  18.969  0.00  0.00    +0.000 A 
ATOM     22  C   UNL     1       0.827   2.995  19.907  0.00  0.00    +0.000 A 
ATOM     23  C   UNL     1       1.313   2.955  21.207  0.00  0.00    +0.000 A 
ATOM     24  F   UNL     1       0.765   2.111  22.092  0.00  0.00    +0.000 F 
ATOM     25  C   UNL     1       2.365   3.768  21.604  0.00  0.00    +0.000 A 
ATOM     26  C   UNL     1       2.954   4.629  20.675  0.00  0.00    +0.000 A 
ENDBRANCH   5  20
BRANCH   3  27
ATOM     27  S   UNL     1       5.932   5.556  15.567  0.00  0.00    +0.000 S 
ATOM     28  C   UNL     1       5.992   3.754  15.519  0.00  0.00    +0.000 C 
ATOM     29  O   UNL     1       7.234   6.123  16.240  0.00  0.00    +0.000 OA
ENDBRANCH   3  27
TORSDOF 5
ENDMDL
MODEL 3
REMARK VINA RESULT:      -8.0      1.439      2.290
REMARK  Name = 
REMARK  9 active torsions:
REMARK  status: ('A' for Active; 'I' for Inactive)
REMARK    1  A    between atoms: C_1  and  C_2
REMARK    2  A    between atoms: C_2  and  C_3
REMARK    3  A    between atoms: C_2  and  C_4
REMARK    4  A    between atoms: C_4  and  C_5
REMARK    5  A    between atoms: C_4  and  N_6
REMARK    6  A    between atoms: C_9  and  C_10
REMARK    7  A    between atoms: C_12  and  S_13
REMARK    8  A    between atoms: S_13  and  C_14
REMARK    9  A    between atoms: C_17  and  C_18
REMARK                            x       y       z     vdW  Elec       q    Type
REMARK                         _______ _______ _______ _____ _____    ______ ____
ROOT
ATOM      1  C   UNL     1       3.693   6.166  17.844  0.00  0.00    +0.000 A 
ATOM      2  N   UNL     1       4.728   6.350  16.950  0.00  0.00    +0.000 N 
ATOM      3  C   UNL     1       5.449   5.192  16.867  0.00  0.00    +0.000 A 
ATOM      4  N   UNL     1       4.916   4.245  17.605  0.00  0.00    +0.000 NA
ATOM      5  C   UNL     1       3.817   4.825  18.205  0.00  0.00    +0.000 A 
ATOM      6  H   UNL     1       4.988   7.210  16.487  0.00  0.00    +0.000 HD
ENDROOT
BRANCH   1  10
ATOM      7  N   UNL     1       1.274   8.679  21.316  0.00  0.00    +0.000 N 
ATOM      8  C   UNL     1       1.640   8.521  19.963  0.00  0.00    +0.000 A 
ATOM      9  C   UNL     1       2.503   7.489  19.611  0.00  0.00    +0.000 A 
ATOM     10  C   UNL     1       2.794   7.252  18.261  0.00  0.00    +0.000 A 
ATOM     11  C   UNL     1       2.201   8.084  17.313  0.00  0.00    +0.000 A 
ATOM     12  C   UNL     1       1.444   9.153  17.747  0.00  0.00    +0.000 A 
ATOM     13  N   UNL     1       1.165   9.384  19.041  0.00  0.00    +0.000 NA
ATOM     14  H   UNL     1       1.243   7.768  21.761  0.00  0.00    +0.000 HD
BRANCH   7  15
ATOM     15  C   UNL     1       0.000   9.399  21.512  0.00  0.00    +0.000 C 
ATOM     16  C   UNL     1      -0.916   8.604  22.462  0.00  0.00    +0.000 C 
BRANCH  15  18
ATOM     17  C   UNL     1      -0.900  11.319  22.957  0.00  0.00    +0.000 C 
ATOM     18  C   UNL     1       0.251  10.829  22.073  0.00  0.00    +0.000 C 
ATOM     19  C   UNL     1       0.560  11.878  21.000  0.00  0.00    +0.000 C 
ENDBRANCH  15  18
ENDBRANCH   7  15
ENDBRANCH   1  10
BRANCH   5  20
ATOM     20  C   UNL     1       2.994   4.095  19.157  0.00  0.00    +0.000 A 
ATOM     21  C   UNL     1       3.611   3.421  20.224  0.00  0.00    +0.000 A 
ATOM     22  C   UNL     1       2.840   2.836  21.232  0.00  0.00    +0.000 A 
ATOM     23  C   UNL     1       1.455   2.926  21.172  0.00  0.00    +0.000 A 
ATOM     24  F   UNL     1       0.717   2.417  22.167  0.00  0.00    +0.000 F 
ATOM     25  C   UNL     1       0.823   3.543  20.103  0.00  0.00    +0.000 A 
ATOM     26  C   UNL     1       1.593   4.096  19.077  0.00  0.00    +0.000 A 
ENDBRANCH   5  20
BRANCH   3  27
ATOM     27  S   UNL     1       6.885   5.038  15.908  0.00  0.00    +0.000 S 
ATOM     28  C   UNL     1       6.255   3.868  14.689  0.00  0.00    +0.000 C 
ATOM     29  O   UNL     1       7.943   4.336  16.835  0.00  0.00    +0.000 OA
ENDBRANCH   3  27
TORSDOF 5
ENDMDL
MODEL 4
REMARK VINA RESULT:      -7.7      0.703      1.371
REMARK  Name = 
REMARK  9 active torsions:
REMARK  status: ('A' for Active; 'I' for Inactive)
REMARK    1  A    between atoms: C_1  and  C_2
REMARK    2  A    between atoms: C_2  and  C_3
REMARK    3  A    between atoms: C_2  and  C_4
REMARK    4  A    between atoms: C_4  and  C_5
REMARK    5  A    between atoms: C_4  and  N_6
REMARK    6  A    between atoms: C_9  and  C_10
REMARK    7  A    between atoms: C_12  and  S_13
REMARK    8  A    between atoms: S_13  and  C_14
REMARK    9  A    between atoms: C_17  and  C_18
REMARK                            x       y       z     vdW  Elec       q    Type
REMARK                         _______ _______ _______ _____ _____    ______ ____
ROOT
ATOM      1  C   UNL     1       3.365   6.323  18.027  0.00  0.00    +0.000 A 
ATOM      2  N   UNL     1       4.286   6.604  17.038  0.00  0.00    +0.000 N 
ATOM      3  C   UNL     1       4.976   5.462  16.743  0.00  0.00    +0.000 A 
ATOM      4  N   UNL     1       4.525   4.440  17.433  0.00  0.00    +0.000 NA
ATOM      5  C   UNL     1       3.515   4.950  18.223  0.00  0.00    +0.000 A 
ATOM      6  H   UNL     1       4.499   7.509  16.643  0.00  0.00    +0.000 HD
ENDROOT
BRANCH   1  10
ATOM      7  N   UNL     1       0.652  10.424  17.820  0.00  0.00    +0.000 N 
ATOM      8  C   UNL     1       1.165   9.343  18.568  0.00  0.00    +0.000 A 
ATOM      9  C   UNL     1       1.933   8.379  17.923  0.00  0.00    +0.000 A 
ATOM     10  C   UNL     1       2.538   7.357  18.667  0.00  0.00    +0.000 A 
ATOM     11  C   UNL     1       2.332   7.348  20.045  0.00  0.00    +0.000 A 
ATOM     12  C   UNL     1       1.471   8.274  20.595  0.00  0.00    +0.000 A 
ATOM     13  N   UNL     1       0.887   9.253  19.885  0.00  0.00    +0.000 NA
ATOM     14  H   UNL     1       1.302  10.653  17.076  0.00  0.00    +0.000 HD
BRANCH   7  15
ATOM     15  C   UNL     1       0.343  11.619  18.630  0.00  0.00    +0.000 C 
ATOM     16  C   UNL     1      -0.725  11.282  19.687  0.00  0.00    +0.000 C 
BRANCH  15  18
ATOM     17  C   UNL     1       1.308  13.036  20.539  0.00  0.00    +0.000 C 
ATOM     18  C   UNL     1       1.627  12.173  19.315  0.00  0.00    +0.000 C 
ATOM     19  C   UNL     1       2.561  12.939  18.373  0.00  0.00    +0.000 C 
ENDBRANCH  15  18
ENDBRANCH   7  15
ENDBRANCH   1  10
BRANCH   5  20
ATOM     20  C   UNL     1       2.805   4.120  19.185  0.00  0.00    +0.000 A 
ATOM     21  C   UNL     1       3.525   3.493  20.215  0.00  0.00    +0.000 A 
ATOM     22  C   UNL     1       2.853   2.813  21.234  0.00  0.00    +0.000 A 
ATOM     23  C   UNL     1       1.465   2.759  21.221  0.00  0.00    +0.000 A 
ATOM     24  F   UNL     1       0.818   2.157  22.228  0.00  0.00    +0.000 F 
ATOM     25  C   UNL     1       0.736   3.328  20.187  0.00  0.00    +0.000 A 
ATOM     26  C   UNL     1       1.409   3.978  19.150  0.00  0.00    +0.000 A 
ENDBRANCH   5  20
BRANCH   3  27
ATOM     27  S   UNL     1       6.282   5.413  15.604  0.00  0.00    +0.000 S 
ATOM     28  C   UNL     1       5.564   4.236  14.440  0.00  0.00    +0.000 C 
ATOM     29  O   UNL     1       7.488   4.754  16.366  0.00  0.00    +0.000 OA
ENDBRANCH   3  27
TORSDOF 5
ENDMDL
MODEL 5
REMARK VINA RESULT:      -7.5      0.963      1.484
REMARK  Name = 
REMARK  9 active torsions:
REMARK  status: ('A' for Active; 'I' for Inactive)
REMARK    1  A    between atoms: C_1  and  C_2
REMARK    2  A    between atoms: C_2  and  C_3
REMARK    3  A    between atoms: C_2  and  C_4
REMARK    4  A    between atoms: C_4  and  C_5
REMARK    5  A    between atoms: C_4  and  N_6
REMARK    6  A    between atoms: C_9  and  C_10
REMARK    7  A    between atoms: C_12  and  S_13
REMARK    8  A    between atoms: S_13  and  C_14
REMARK    9  A    between atoms: C_17  and  C_18
REMARK                            x       y       z     vdW  Elec       q    Type
REMARK                         _______ _______ _______ _____ _____    ______ ____
ROOT
ATOM      1  C   UNL     1       3.046   6.648  18.359  0.00  0.00    +0.000 A 
ATOM      2  N   UNL     1       3.928   6.847  17.316  0.00  0.00    +0.000 N 
ATOM      3  C   UNL     1       4.565   5.669  17.048  0.00  0.00    +0.000 A 
ATOM      4  N   UNL     1       4.114   4.698  17.808  0.00  0.00    +0.000 NA
ATOM      5  C   UNL     1       3.160   5.282  18.616  0.00  0.00    +0.000 A 
ATOM      6  H   UNL     1       4.152   7.725  16.866  0.00  0.00    +0.000 HD
ENDROOT
BRANCH   1  10
ATOM      7  N   UNL     1       0.996  11.119  18.207  0.00  0.00    +0.000 N 
ATOM      8  C   UNL     1       1.234   9.914  18.902  0.00  0.00    +0.000 A 
ATOM      9  C   UNL     1       1.948   8.901  18.272  0.00  0.00    +0.000 A 
ATOM     10  C   UNL     1       2.284   7.740  18.982  0.00  0.00    +0.000 A 
ATOM     11  C   UNL     1       1.873   7.649  20.310  0.00  0.00    +0.000 A 
ATOM     12  C   UNL     1       1.076   8.648  20.830  0.00  0.00    +0.000 A 
ATOM     13  N   UNL     1       0.749   9.761  20.151  0.00  0.00    +0.000 NA
ATOM     14  H   UNL     1       1.777  11.307  17.587  0.00  0.00    +0.000 HD
BRANCH   7  15
ATOM     15  C   UNL     1       0.738  12.277  19.086  0.00  0.00    +0.000 C 
ATOM     16  C   UNL     1       1.354  13.551  18.478  0.00  0.00    +0.000 C 
BRANCH  15  18
ATOM     17  C   UNL     1      -1.610  12.186  18.055  0.00  0.00    +0.000 C 
ATOM     18  C   UNL     1      -0.789  12.471  19.316  0.00  0.00    +0.000 C 
ATOM     19  C   UNL     1      -1.170  13.843  19.880  0.00  0.00    +0.000 C 
ENDBRANCH  15  18
ENDBRANCH   7  15
ENDBRANCH   1  10
BRANCH   5  20
ATOM     20  C   UNL     1       2.469   4.525  19.650  0.00  0.00    +0.000 A 
ATOM     21  C   UNL     1       1.237   3.919  19.351  0.00  0.00    +0.000 A 
ATOM     22  C   UNL     1       0.625   3.069  20.275  0.00  0.00    +0.000 A 
ATOM     23  C   UNL     1       1.243   2.826  21.495  0.00  0.00    +0.000 A 
ATOM     24  F   UNL     1       0.686   1.967  22.358  0.00  0.00    +0.000 F 
ATOM     25  C   UNL     1       2.434   3.453  21.832  0.00  0.00    +0.000 A 
ATOM     26  C   UNL     1       3.028   4.331  20.922  0.00  0.00    +0.000 A 
ENDBRANCH   5  20
BRANCH   3  27
ATOM     27  S   UNL     1       5.815   5.519  15.854  0.00  0.00    +0.000 S 
ATOM     28  C   UNL     1       7.195   6.115  16.851  0.00  0.00    +0.000 C 
ATOM     29  O   UNL     1       5.462   6.565  14.736  0.00  0.00    +0.000 OA
ENDBRANCH   3  27
TORSDOF 5
ENDMDL
MODEL 6
REMARK VINA RESULT:      -7.4      1.443      2.367
REMARK  Name = 
REMARK  9 active torsions:
REMARK  status: ('A' for Active; 'I' for Inactive)
REMARK    1  A    between atoms: C_1  and  C_2
REMARK    2  A    between atoms: C_2  and  C_3
REMARK    3  A    between atoms: C_2  and  C_4
REMARK    4  A    between atoms: C_4  and  C_5
REMARK    5  A    between atoms: C_4  and  N_6
REMARK    6  A    between atoms: C_9  and  C_10
REMARK    7  A    between atoms: C_12  and  S_13
REMARK    8  A    between atoms: S_13  and  C_14
REMARK    9  A    between atoms: C_17  and  C_18
REMARK                            x       y       z     vdW  Elec       q    Type
REMARK                         _______ _______ _______ _____ _____    ______ ____
ROOT
ATOM      1  C   UNL     1       3.117   6.917  17.940  0.00  0.00    +0.000 A 
ATOM      2  N   UNL     1       4.108   7.145  17.006  0.00  0.00    +0.000 N 
ATOM      3  C   UNL     1       4.882   6.023  16.903  0.00  0.00    +0.000 A 
ATOM      4  N   UNL     1       4.425   5.057  17.666  0.00  0.00    +0.000 NA
ATOM      5  C   UNL     1       3.322   5.586  18.304  0.00  0.00    +0.000 A 
ATOM      6  H   UNL     1       4.307   8.013  16.528  0.00  0.00    +0.000 HD
ENDROOT
BRANCH   1  10
ATOM      7  N   UNL     1       1.055   9.649  21.475  0.00  0.00    +0.000 N 
ATOM      8  C   UNL     1       1.197   9.340  20.106  0.00  0.00    +0.000 A 
ATOM      9  C   UNL     1       2.102   8.355  19.727  0.00  0.00    +0.000 A 
ATOM     10  C   UNL     1       2.181   7.960  18.384  0.00  0.00    +0.000 A 
ATOM     11  C   UNL     1       1.338   8.591  17.471  0.00  0.00    +0.000 A 
ATOM     12  C   UNL     1       0.546   9.633  17.907  0.00  0.00    +0.000 A 
ATOM     13  N   UNL     1       0.470  10.016  19.193  0.00  0.00    +0.000 NA
ATOM     14  H   UNL     1       1.210   8.811  22.025  0.00  0.00    +0.000 HD
BRANCH   7  15
ATOM     15  C   UNL     1      -0.242  10.265  21.819  0.00  0.00    +0.000 C 
ATOM     16  C   UNL     1      -0.886   9.519  23.002  0.00  0.00    +0.000 C 
BRANCH  15  18
ATOM     17  C   UNL     1      -1.242  12.327  22.974  0.00  0.00    +0.000 C 
ATOM     18  C   UNL     1      -0.068  11.773  22.161  0.00  0.00    +0.000 C 
ATOM     19  C   UNL     1       0.183  12.668  20.943  0.00  0.00    +0.000 C 
ENDBRANCH  15  18
ENDBRANCH   7  15
ENDBRANCH   1  10
BRANCH   5  20
ATOM     20  C   UNL     1       2.573   4.824  19.292  0.00  0.00    +0.000 A 
ATOM     21  C   UNL     1       1.571   3.939  18.862  0.00  0.00    +0.000 A 
ATOM     22  C   UNL     1       0.939   3.090  19.774  0.00  0.00    +0.000 A 
ATOM     23  C   UNL     1       1.308   3.127  21.113  0.00  0.00    +0.000 A 
ATOM     24  F   UNL     1       0.744   2.274  21.977  0.00  0.00    +0.000 F 
ATOM     25  C   UNL     1       2.259   4.028  21.568  0.00  0.00    +0.000 A 
ATOM     26  C   UNL     1       2.865   4.901  20.662  0.00  0.00    +0.000 A 
ENDBRANCH   5  20
BRANCH   3  27
ATOM     27  S   UNL     1       6.287   5.933  15.891  0.00  0.00    +0.000 S 
ATOM     28  C   UNL     1       6.573   4.156  16.007  0.00  0.00    +0.000 C 
ATOM     29  O   UNL     1       7.415   6.714  16.658  0.00  0.00    +0.000 OA
ENDBRANCH   3  27
TORSDOF 5
ENDMDL
MODEL 7
REMARK VINA RESULT:      -7.3      4.472      6.165
REMARK  Name = 
REMARK  9 active torsions:
REMARK  status: ('A' for Active; 'I' for Inactive)
REMARK    1  A    between atoms: C_1  and  C_2
REMARK    2  A    between atoms: C_2  and  C_3
REMARK    3  A    between atoms: C_2  and  C_4
REMARK    4  A    between atoms: C_4  and  C_5
REMARK    5  A    between atoms: C_4  and  N_6
REMARK    6  A    between atoms: C_9  and  C_10
REMARK    7  A    between atoms: C_12  and  S_13
REMARK    8  A    between atoms: S_13  and  C_14
REMARK    9  A    between atoms: C_17  and  C_18
REMARK                            x       y       z     vdW  Elec       q    Type
REMARK                         _______ _______ _______ _____ _____    ______ ____
ROOT
ATOM      1  C   UNL     1       6.512   5.752  16.254  0.00  0.00    +0.000 A 
ATOM      2  N   UNL     1       7.072   5.298  15.077  0.00  0.00    +0.000 N 
ATOM      3  C   UNL     1       6.168   4.494  14.442  0.00  0.00    +0.000 A 
ATOM      4  N   UNL     1       5.032   4.440  15.099  0.00  0.00    +0.000 NA
ATOM      5  C   UNL     1       5.220   5.227  16.216  0.00  0.00    +0.000 A 
ATOM      6  H   UNL     1       8.019   5.447  14.755  0.00  0.00    +0.000 HD
ENDROOT
BRANCH   1  10
ATOM      7  N   UNL     1       8.383  10.015  17.847  0.00  0.00    +0.000 N 
ATOM      8  C   UNL     1       8.141   8.642  18.056  0.00  0.00    +0.000 A 
ATOM      9  C   UNL     1       7.419   7.931  17.104  0.00  0.00    +0.000 A 
ATOM     10  C   UNL     1       7.259   6.545  17.242  0.00  0.00    +0.000 A 
ATOM     11  C   UNL     1       7.834   5.932  18.353  0.00  0.00    +0.000 A 
ATOM     12  C   UNL     1       8.441   6.721  19.308  0.00  0.00    +0.000 A 
ATOM     13  N   UNL     1       8.593   8.050  19.181  0.00  0.00    +0.000 NA
ATOM     14  H   UNL     1       8.474  10.191  16.852  0.00  0.00    +0.000 HD
BRANCH   7  15
ATOM     15  C   UNL     1       9.557  10.534  18.577  0.00  0.00    +0.000 C 
ATOM     16  C   UNL     1      10.544  11.192  17.594  0.00  0.00    +0.000 C 
BRANCH  15  18
ATOM     17  C   UNL     1       9.031  12.984  19.133  0.00  0.00    +0.000 C 
ATOM     18  C   UNL     1       9.125  11.553  19.672  0.00  0.00    +0.000 C 
ATOM     19  C   UNL     1      10.000  11.532  20.929  0.00  0.00    +0.000 C 
ENDBRANCH  15  18
ENDBRANCH   7  15
ENDBRANCH   1  10
BRANCH   5  20
ATOM     20  C   UNL     1       4.188   5.367  17.233  0.00  0.00    +0.000 A 
ATOM     21  C   UNL     1       3.802   4.242  17.980  0.00  0.00    +0.000 A 
ATOM     22  C   UNL     1       2.923   4.377  19.058  0.00  0.00    +0.000 A 
ATOM     23  C   UNL     1       2.431   5.633  19.386  0.00  0.00    +0.000 A 
ATOM     24  F   UNL     1       1.634   5.772  20.453  0.00  0.00    +0.000 F 
ATOM     25  C   UNL     1       2.758   6.750  18.631  0.00  0.00    +0.000 A 
ATOM     26  C   UNL     1       3.609   6.610  17.533  0.00  0.00    +0.000 A 
ENDBRANCH   5  20
BRANCH   3  27
ATOM     27  S   UNL     1       6.520   3.658  12.964  0.00  0.00    +0.000 S 
ATOM     28  C   UNL     1       7.551   4.923  12.194  0.00  0.00    +0.000 C 
ATOM     29  O   UNL     1       5.150   3.541  12.204  0.00  0.00    +0.000 OA
ENDBRANCH   3  27
TORSDOF 5
ENDMDL
MODEL 8
REMARK VINA RESULT:      -7.3      1.376      2.198
REMARK  Name = 
REMARK  9 active torsions:
REMARK  status: ('A' for Active; 'I' for Inactive)
REMARK    1  A    between atoms: C_1  and  C_2
REMARK    2  A    between atoms: C_2  and  C_3
REMARK    3  A    between atoms: C_2  and  C_4
REMARK    4  A    between atoms: C_4  and  C_5
REMARK    5  A    between atoms: C_4  and  N_6
REMARK    6  A    between atoms: C_9  and  C_10
REMARK    7  A    between atoms: C_12  and  S_13
REMARK    8  A    between atoms: S_13  and  C_14
REMARK    9  A    between atoms: C_17  and  C_18
REMARK                            x       y       z     vdW  Elec       q    Type
REMARK                         _______ _______ _______ _____ _____    ______ ____
ROOT
ATOM      1  C   UNL     1       3.647   6.271  18.170  0.00  0.00    +0.000 A 
ATOM      2  N   UNL     1       4.740   6.501  17.358  0.00  0.00    +0.000 N 
ATOM      3  C   UNL     1       5.510   5.372  17.328  0.00  0.00    +0.000 A 
ATOM      4  N   UNL     1       4.961   4.401  18.020  0.00  0.00    +0.000 NA
ATOM      5  C   UNL     1       3.797   4.933  18.535  0.00  0.00    +0.000 A 
ATOM      6  H   UNL     1       5.001   7.373  16.919  0.00  0.00    +0.000 HD
ENDROOT
BRANCH   1  10
ATOM      7  N   UNL     1       1.069   8.837  21.484  0.00  0.00    +0.000 N 
ATOM      8  C   UNL     1       1.443   8.616  20.142  0.00  0.00    +0.000 A 
ATOM      9  C   UNL     1       2.373   7.624  19.854  0.00  0.00    +0.000 A 
ATOM     10  C   UNL     1       2.677   7.319  18.520  0.00  0.00    +0.000 A 
ATOM     11  C   UNL     1       2.026   8.043  17.524  0.00  0.00    +0.000 A 
ATOM     12  C   UNL     1       1.199   9.084  17.891  0.00  0.00    +0.000 A 
ATOM     13  N   UNL     1       0.908   9.382  19.168  0.00  0.00    +0.000 NA
ATOM     14  H   UNL     1       1.102   7.958  21.989  0.00  0.00    +0.000 HD
BRANCH   7  15
ATOM     15  C   UNL     1      -0.251   9.480  21.641  0.00  0.00    +0.000 C 
ATOM     16  C   UNL     1      -0.739   9.340  23.095  0.00  0.00    +0.000 C 
BRANCH  15  18
ATOM     17  C   UNL     1      -0.445  11.918  22.418  0.00  0.00    +0.000 C 
ATOM     18  C   UNL     1      -0.190  10.981  21.233  0.00  0.00    +0.000 C 
ATOM     19  C   UNL     1      -1.116  11.354  20.072  0.00  0.00    +0.000 C 
ENDBRANCH  15  18
ENDBRANCH   7  15
ENDBRANCH   1  10
BRANCH   5  20
ATOM     20  C   UNL     1       2.933   4.166  19.421  0.00  0.00    +0.000 A 
ATOM     21  C   UNL     1       3.510   3.367  20.421  0.00  0.00    +0.000 A 
ATOM     22  C   UNL     1       2.706   2.737  21.374  0.00  0.00    +0.000 A 
ATOM     23  C   UNL     1       1.328   2.905  21.325  0.00  0.00    +0.000 A 
ATOM     24  F   UNL     1       0.560   2.349  22.272  0.00  0.00    +0.000 F 
ATOM     25  C   UNL     1       0.733   3.648  20.316  0.00  0.00    +0.000 A 
ATOM     26  C   UNL     1       1.535   4.249  19.343  0.00  0.00    +0.000 A 
ENDBRANCH   5  20
BRANCH   3  27
ATOM     27  S   UNL     1       7.021   5.280  16.481  0.00  0.00    +0.000 S 
ATOM     28  C   UNL     1       7.965   4.393  17.736  0.00  0.00    +0.000 C 
ATOM     29  O   UNL     1       7.534   6.761  16.363  0.00  0.00    +0.000 OA
ENDBRANCH   3  27
TORSDOF 5
ENDMDL
MODEL 9
REMARK VINA RESULT:      -7.3      4.402      6.119
REMARK  Name = 
REMARK  9 active torsions:
REMARK  status: ('A' for Active; 'I' for Inactive)
REMARK    1  A    between atoms: C_1  and  C_2
REMARK    2  A    between atoms: C_2  and  C_3
REMARK    3  A    between atoms: C_2  and  C_4
REMARK    4  A    between atoms: C_4  and  C_5
REMARK    5  A    between atoms: C_4  and  N_6
REMARK    6  A    between atoms: C_9  and  C_10
REMARK    7  A    between atoms: C_12  and  S_13
REMARK    8  A    between atoms: S_13  and  C_14
REMARK    9  A    between atoms: C_17  and  C_18
REMARK                            x       y       z     vdW  Elec       q    Type
REMARK                         _______ _______ _______ _____ _____    ______ ____
ROOT
ATOM      1  C   UNL     1       6.534   5.591  16.243  0.00  0.00    +0.000 A 
ATOM      2  N   UNL     1       7.070   5.257  15.015  0.00  0.00    +0.000 N 
ATOM      3  C   UNL     1       6.215   4.398  14.382  0.00  0.00    +0.000 A 
ATOM      4  N   UNL     1       5.129   4.197  15.091  0.00  0.00    +0.000 NA
ATOM      5  C   UNL     1       5.300   4.941  16.241  0.00  0.00    +0.000 A 
ATOM      6  H   UNL     1       7.978   5.516  14.655  0.00  0.00    +0.000 HD
ENDROOT
BRANCH   1  10
ATOM      7  N   UNL     1       8.314   9.896  17.828  0.00  0.00    +0.000 N 
ATOM      8  C   UNL     1       8.090   8.521  18.044  0.00  0.00    +0.000 A 
ATOM      9  C   UNL     1       7.395   7.790  17.087  0.00  0.00    +0.000 A 
ATOM     10  C   UNL     1       7.254   6.404  17.235  0.00  0.00    +0.000 A 
ATOM     11  C   UNL     1       7.822   5.809  18.360  0.00  0.00    +0.000 A 
ATOM     12  C   UNL     1       8.402   6.615  19.317  0.00  0.00    +0.000 A 
ATOM     13  N   UNL     1       8.536   7.945  19.181  0.00  0.00    +0.000 NA
ATOM     14  H   UNL     1       8.417  10.065  16.832  0.00  0.00    +0.000 HD
BRANCH   7  15
ATOM     15  C   UNL     1       9.469  10.440  18.570  0.00  0.00    +0.000 C 
ATOM     16  C   UNL     1      10.457  11.111  17.597  0.00  0.00    +0.000 C 
BRANCH  15  18
ATOM     17  C   UNL     1       9.534  12.869  19.397  0.00  0.00    +0.000 C 
ATOM     18  C   UNL     1       9.004  11.455  19.655  0.00  0.00    +0.000 C 
ATOM     19  C   UNL     1       9.335  11.035  21.091  0.00  0.00    +0.000 C 
ENDBRANCH  15  18
ENDBRANCH   7  15
ENDBRANCH   1  10
BRANCH   5  20
ATOM     20  C   UNL     1       4.318   4.924  17.314  0.00  0.00    +0.000 A 
ATOM     21  C   UNL     1       3.628   6.105  17.633  0.00  0.00    +0.000 A 
ATOM     22  C   UNL     1       2.579   6.084  18.557  0.00  0.00    +0.000 A 
ATOM     23  C   UNL     1       2.223   4.885  19.160  0.00  0.00    +0.000 A 
ATOM     24  F   UNL     1       1.181   4.852  20.001  0.00  0.00    +0.000 F 
ATOM     25  C   UNL     1       2.923   3.716  18.898  0.00  0.00    +0.000 A 
ATOM     26  C   UNL     1       3.994   3.745  18.001  0.00  0.00    +0.000 A 
ENDBRANCH   5  20
BRANCH   3  27
ATOM     27  S   UNL     1       6.565   3.679  12.843  0.00  0.00    +0.000 S 
ATOM     28  C   UNL     1       7.519   5.037  12.136  0.00  0.00    +0.000 C 
ATOM     29  O   UNL     1       5.181   3.550  12.110  0.00  0.00    +0.000 OA
ENDBRANCH   3  27
TORSDOF 5
ENDMDL
