MODEL 1
REMARK VINA RESULT:      -8.6      0.000      0.000
REMARK  Name = 
REMARK  6 active torsions:
REMARK  status: ('A' for Active; 'I' for Inactive)
REMARK    1  A    between atoms: C_4  and  C_5
REMARK    2  A    between atoms: C_4  and  C_7
REMARK    3  A    between atoms: C_9  and  N_10
REMARK    4  A    between atoms: N_10  and  C_11
REMARK    5  A    between atoms: C_11  and  C_13
REMARK    6  A    between atoms: C_25  and  C_26
REMARK                            x       y       z     vdW  Elec       q    Type
REMARK                         _______ _______ _______ _____ _____    ______ ____
ROOT
ATOM      1  C   UNL     1       3.203   5.453  18.820  0.00  0.00    +0.000 A 
ATOM      2  C   UNL     1       2.789   6.789  18.586  0.00  0.00    +0.000 A 
ATOM      3  C   UNL     1       1.962   7.484  19.495  0.00  0.00    +0.000 A 
ATOM      4  C   UNL     1       1.582   6.832  20.671  0.00  0.00    +0.000 A 
ATOM      5  C   UNL     1       1.947   5.510  20.909  0.00  0.00    +0.000 A 
ATOM      6  C   UNL     1       2.735   4.836  19.989  0.00  0.00    +0.000 A 
ATOM      7  F   UNL     1       3.050   3.563  20.259  0.00  0.00    +0.000 F 
ENDROOT
BRANCH   1  11
ATOM      8  N   UNL     1       5.488   6.499  14.997  0.00  0.00    +0.000 N 
ATOM      9  C   UNL     1       5.291   5.977  16.221  0.00  0.00    +0.000 C 
ATOM     10  N   UNL     1       4.237   5.325  16.541  0.00  0.00    +0.000 NA
ATOM     11  C   UNL     1       4.124   4.674  17.861  0.00  0.00    +0.000 C 
ATOM     12  C   UNL     1       5.544   4.473  18.433  0.00  0.00    +0.000 C 
ATOM     13  C   UNL     1       6.264   5.807  18.395  0.00  0.00    +0.000 C 
ATOM     14  O   UNL     1       6.338   6.248  17.025  0.00  0.00    +0.000 OA
ATOM     15  H   UNL     1       4.679   6.552  14.396  0.00  0.00    +0.000 HD
ATOM     16  H   UNL     1       6.188   7.220  14.910  0.00  0.00    +0.000 HD
BRANCH  13  17
ATOM     17  C   UNL     1       7.659   5.736  19.029  0.00  0.00    +0.000 C 
ATOM     18  F   UNL     1       7.617   5.599  20.373  0.00  0.00    +0.000 F 
ATOM     19  F   UNL     1       8.399   4.714  18.542  0.00  0.00    +0.000 F 
ATOM     20  F   UNL     1       8.347   6.876  18.768  0.00  0.00    +0.000 F 
ENDBRANCH  13  17
BRANCH  11  21
ATOM     21  C   UNL     1       3.501   3.270  17.610  0.00  0.00    +0.000 C 
ATOM     22  F   UNL     1       2.331   3.390  16.918  0.00  0.00    +0.000 F 
ENDBRANCH  11  21
ENDBRANCH   1  11
BRANCH   3  23
ATOM     23  N   UNL     1       1.632   8.835  19.218  0.00  0.00    +0.000 N 
ATOM     24  H   UNL     1       2.133   9.264  18.438  0.00  0.00    +0.000 HD
BRANCH  23  25
ATOM     25  C   UNL     1       0.787   9.729  19.886  0.00  0.00    +0.000 C 
ATOM     26  S   UNL     1       0.921  10.247  21.487  0.00  0.00    +0.000 S 
BRANCH  25  27
ATOM     27  C   UNL     1      -0.374  10.173  19.023  0.00  0.00    +0.000 A 
ATOM     28  C   UNL     1      -0.645   9.578  17.786  0.00  0.00    +0.000 A 
ATOM     29  C   UNL     1      -1.776   9.979  17.074  0.00  0.00    +0.000 A 
ATOM     30  C   UNL     1      -2.595  10.964  17.613  0.00  0.00    +0.000 A 
ATOM     31 CL   UNL     1      -4.004  11.475  16.779  0.00  0.00    +0.000 Cl
ATOM     32  C   UNL     1      -2.254  11.506  18.845  0.00  0.00    +0.000 A 
ATOM     33  N   UNL     1      -1.174  11.125  19.578  0.00  0.00    +0.000 NA
ENDBRANCH  25  27
ENDBRANCH  23  25
ENDBRANCH   3  23
TORSDOF 6
ENDMDL
MODEL 2
REMARK VINA RESULT:      -8.5      2.080      2.367
REMARK  Name = 
REMARK  6 active torsions:
REMARK  status: ('A' for Active; 'I' for Inactive)
REMARK    1  A    between atoms: C_4  and  C_5
REMARK    2  A    between atoms: C_4  and  C_7
REMARK    3  A    between atoms: C_9  and  N_10
REMARK    4  A    between atoms: N_10  and  C_11
REMARK    5  A    between atoms: C_11  and  C_13
REMARK    6  A    between atoms: C_25  and  C_26
REMARK                            x       y       z     vdW  Elec       q    Type
REMARK                         _______ _______ _______ _____ _____    ______ ____
ROOT
ATOM      1  C   UNL     1       3.336   4.809  18.900  0.00  0.00    +0.000 A 
ATOM      2  C   UNL     1       3.088   6.178  19.178  0.00  0.00    +0.000 A 
ATOM      3  C   UNL     1       2.192   6.583  20.189  0.00  0.00    +0.000 A 
ATOM      4  C   UNL     1       1.570   5.594  20.955  0.00  0.00    +0.000 A 
ATOM      5  C   UNL     1       1.770   4.242  20.682  0.00  0.00    +0.000 A 
ATOM      6  C   UNL     1       2.631   3.866  19.662  0.00  0.00    +0.000 A 
ATOM      7  F   UNL     1       2.782   2.556  19.433  0.00  0.00    +0.000 F 
ENDROOT
BRANCH   1  11
ATOM      8  N   UNL     1       5.319   6.762  15.269  0.00  0.00    +0.000 N 
ATOM      9  C   UNL     1       5.239   6.031  16.395  0.00  0.00    +0.000 C 
ATOM     10  N   UNL     1       4.299   5.191  16.618  0.00  0.00    +0.000 NA
ATOM     11  C   UNL     1       4.324   4.332  17.819  0.00  0.00    +0.000 C 
ATOM     12  C   UNL     1       5.777   4.251  18.335  0.00  0.00    +0.000 C 
ATOM     13  C   UNL     1       6.300   5.665  18.504  0.00  0.00    +0.000 C 
ATOM     14  O   UNL     1       6.264   6.321  17.221  0.00  0.00    +0.000 OA
ATOM     15  H   UNL     1       4.490   6.790  14.693  0.00  0.00    +0.000 HD
ATOM     16  H   UNL     1       5.906   7.581  15.290  0.00  0.00    +0.000 HD
BRANCH  13  17
ATOM     17  C   UNL     1       7.711   5.698  19.102  0.00  0.00    +0.000 C 
ATOM     18  F   UNL     1       7.710   5.616  20.451  0.00  0.00    +0.000 F 
ATOM     19  F   UNL     1       8.496   4.699  18.638  0.00  0.00    +0.000 F 
ATOM     20  F   UNL     1       8.327   6.863  18.776  0.00  0.00    +0.000 F 
ENDBRANCH  13  17
BRANCH  11  21
ATOM     21  C   UNL     1       3.898   2.909  17.353  0.00  0.00    +0.000 C 
ATOM     22  F   UNL     1       2.760   2.979  16.603  0.00  0.00    +0.000 F 
ENDBRANCH  11  21
ENDBRANCH   1  11
BRANCH   3  23
ATOM     23  N   UNL     1       2.036   7.970  20.443  0.00  0.00    +0.000 N 
ATOM     24  H   UNL     1       2.505   8.325  21.276  0.00  0.00    +0.000 HD
BRANCH  23  25
ATOM     25  C   UNL     1       1.270   8.942  19.788  0.00  0.00    +0.000 C 
ATOM     26  S   UNL     1       1.313   9.330  18.146  0.00  0.00    +0.000 S 
BRANCH  25  27
ATOM     27  C   UNL     1       0.392   9.719  20.744  0.00  0.00    +0.000 A 
ATOM     28  C   UNL     1       0.019   9.203  21.990  0.00  0.00    +0.000 A 
ATOM     29  C   UNL     1      -0.728  10.000  22.858  0.00  0.00    +0.000 A 
ATOM     30  C   UNL     1      -1.086  11.281  22.454  0.00  0.00    +0.000 A 
ATOM     31 CL   UNL     1      -1.991  12.300  23.495  0.00  0.00    +0.000 Cl
ATOM     32  C   UNL     1      -0.679  11.717  21.200  0.00  0.00    +0.000 A 
ATOM     33  N   UNL     1       0.068  10.978  20.337  0.00  0.00    +0.000 NA
ENDBRANCH  25  27
ENDBRANCH  23  25
ENDBRANCH   3  23
TORSDOF 6
ENDMDL
MODEL 3
REMARK VINA RESULT:      -8.4      1.934      2.332
REMARK  Name = 
REMARK  6 active torsions:
REMARK  status: ('A' for Active; 'I' for Inactive)
REMARK    1  A    between atoms: C_4  and  C_5
REMARK    2  A    between atoms: C_4  and  C_7
REMARK    3  A    between atoms: C_9  and  N_10
REMARK    4  A    between atoms: N_10  and  C_11
REMARK    5  A    between atoms: C_11  and  C_13
REMARK    6  A    between atoms: C_25  and  C_26
REMARK                            x       y       z     vdW  Elec       q    Type
REMARK                         _______ _______ _______ _____ _____    ______ ____
ROOT
ATOM      1  C   UNL     1       3.313   4.910  18.913  0.00  0.00    +0.000 A 
ATOM      2  C   UNL     1       3.018   6.274  19.167  0.00  0.00    +0.000 A 
ATOM      3  C   UNL     1       2.152   6.668  20.209  0.00  0.00    +0.000 A 
ATOM      4  C   UNL     1       1.610   5.674  21.028  0.00  0.00    +0.000 A 
ATOM      5  C   UNL     1       1.857   4.326  20.780  0.00  0.00    +0.000 A 
ATOM      6  C   UNL     1       2.686   3.959  19.731  0.00  0.00    +0.000 A 
ATOM      7  F   UNL     1       2.884   2.651  19.528  0.00  0.00    +0.000 F 
ENDROOT
BRANCH   1  11
ATOM      8  N   UNL     1       5.269   6.934  15.306  0.00  0.00    +0.000 N 
ATOM      9  C   UNL     1       5.195   6.170  16.411  0.00  0.00    +0.000 C 
ATOM     10  N   UNL     1       4.241   5.344  16.626  0.00  0.00    +0.000 NA
ATOM     11  C   UNL     1       4.270   4.447  17.799  0.00  0.00    +0.000 C 
ATOM     12  C   UNL     1       5.731   4.320  18.284  0.00  0.00    +0.000 C 
ATOM     13  C   UNL     1       6.286   5.717  18.486  0.00  0.00    +0.000 C 
ATOM     14  O   UNL     1       6.241   6.413  17.225  0.00  0.00    +0.000 OA
ATOM     15  H   UNL     1       4.430   6.998  14.748  0.00  0.00    +0.000 HD
ATOM     16  H   UNL     1       5.874   7.740  15.342  0.00  0.00    +0.000 HD
BRANCH  13  17
ATOM     17  C   UNL     1       7.709   5.702  19.058  0.00  0.00    +0.000 C 
ATOM     18  F   UNL     1       8.458   4.687  18.574  0.00  0.00    +0.000 F 
ATOM     19  F   UNL     1       8.380   6.851  18.812  0.00  0.00    +0.000 F 
ATOM     20  F   UNL     1       7.667   5.555  20.407  0.00  0.00    +0.000 F 
ENDBRANCH  13  17
BRANCH  11  21
ATOM     21  C   UNL     1       3.805   3.048  17.297  0.00  0.00    +0.000 C 
ATOM     22  F   UNL     1       2.600   3.150  16.666  0.00  0.00    +0.000 F 
ENDBRANCH  11  21
ENDBRANCH   1  11
BRANCH   3  23
ATOM     23  N   UNL     1       1.946   8.053  20.435  0.00  0.00    +0.000 N 
ATOM     24  H   UNL     1       2.294   8.415  21.324  0.00  0.00    +0.000 HD
BRANCH  23  25
ATOM     25  C   UNL     1       1.266   9.015  19.679  0.00  0.00    +0.000 C 
ATOM     26  S   UNL     1       1.397   9.277  18.017  0.00  0.00    +0.000 S 
BRANCH  25  27
ATOM     27  C   UNL     1       0.397   9.909  20.537  0.00  0.00    +0.000 A 
ATOM     28  C   UNL     1      -0.418  10.901  19.983  0.00  0.00    +0.000 A 
ATOM     29  C   UNL     1      -1.254  11.639  20.821  0.00  0.00    +0.000 A 
ATOM     30  C   UNL     1      -1.245  11.371  22.184  0.00  0.00    +0.000 A 
ATOM     31 CL   UNL     1      -2.268  12.243  23.249  0.00  0.00    +0.000 Cl
ATOM     32  C   UNL     1      -0.404  10.371  22.656  0.00  0.00    +0.000 A 
ATOM     33  N   UNL     1       0.407   9.616  21.868  0.00  0.00    +0.000 NA
ENDBRANCH  25  27
ENDBRANCH  23  25
ENDBRANCH   3  23
TORSDOF 6
ENDMDL
MODEL 4
REMARK VINA RESULT:      -8.4      2.490      2.871
REMARK  Name = 
REMARK  6 active torsions:
REMARK  status: ('A' for Active; 'I' for Inactive)
REMARK    1  A    between atoms: C_4  and  C_5
REMARK    2  A    between atoms: C_4  and  C_7
REMARK    3  A    between atoms: C_9  and  N_10
REMARK    4  A    between atoms: N_10  and  C_11
REMARK    5  A    between atoms: C_11  and  C_13
REMARK    6  A    between atoms: C_25  and  C_26
REMARK                            x       y       z     vdW  Elec       q    Type
REMARK                         _______ _______ _______ _____ _____    ______ ____
ROOT
ATOM      1  C   UNL     1       3.252   5.946  18.569  0.00  0.00    +0.000 A 
ATOM      2  C   UNL     1       2.898   7.205  18.021  0.00  0.00    +0.000 A 
ATOM      3  C   UNL     1       2.125   8.141  18.740  0.00  0.00    +0.000 A 
ATOM      4  C   UNL     1       1.740   7.816  20.043  0.00  0.00    +0.000 A 
ATOM      5  C   UNL     1       2.046   6.574  20.594  0.00  0.00    +0.000 A 
ATOM      6  C   UNL     1       2.780   5.657  19.858  0.00  0.00    +0.000 A 
ATOM      7  F   UNL     1       3.040   4.474  20.428  0.00  0.00    +0.000 F 
ENDROOT
BRANCH   1  11
ATOM      8  N   UNL     1       5.826   6.034  14.788  0.00  0.00    +0.000 N 
ATOM      9  C   UNL     1       5.509   5.762  16.066  0.00  0.00    +0.000 C 
ATOM     10  N   UNL     1       4.368   5.301  16.420  0.00  0.00    +0.000 NA
ATOM     11  C   UNL     1       4.113   4.910  17.821  0.00  0.00    +0.000 C 
ATOM     12  C   UNL     1       5.469   4.653  18.514  0.00  0.00    +0.000 C 
ATOM     13  C   UNL     1       6.350   5.869  18.299  0.00  0.00    +0.000 C 
ATOM     14  O   UNL     1       6.542   6.049  16.882  0.00  0.00    +0.000 OA
ATOM     15  H   UNL     1       5.058   6.072  14.133  0.00  0.00    +0.000 HD
ATOM     16  H   UNL     1       6.613   6.644  14.627  0.00  0.00    +0.000 HD
BRANCH  13  17
ATOM     17  C   UNL     1       7.694   5.752  19.028  0.00  0.00    +0.000 C 
ATOM     18  F   UNL     1       8.485   6.832  18.844  0.00  0.00    +0.000 F 
ATOM     19  F   UNL     1       7.548   5.583  20.362  0.00  0.00    +0.000 F 
ATOM     20  F   UNL     1       8.380   4.675  18.570  0.00  0.00    +0.000 F 
ENDBRANCH  13  17
BRANCH  11  21
ATOM     21  C   UNL     1       3.334   3.564  17.770  0.00  0.00    +0.000 C 
ATOM     22  F   UNL     1       2.080   3.763  17.271  0.00  0.00    +0.000 F 
ENDBRANCH  11  21
ENDBRANCH   1  11
BRANCH   3  23
ATOM     23  N   UNL     1       1.855   9.400  18.144  0.00  0.00    +0.000 N 
ATOM     24  H   UNL     1       2.483   9.679  17.390  0.00  0.00    +0.000 HD
BRANCH  23  25
ATOM     25  C   UNL     1       0.914  10.385  18.467  0.00  0.00    +0.000 C 
ATOM     26  S   UNL     1      -0.767  10.245  18.393  0.00  0.00    +0.000 S 
BRANCH  25  27
ATOM     27  C   UNL     1       1.565  11.697  18.848  0.00  0.00    +0.000 A 
ATOM     28  C   UNL     1       2.511  12.319  18.025  0.00  0.00    +0.000 A 
ATOM     29  C   UNL     1       3.017  13.565  18.395  0.00  0.00    +0.000 A 
ATOM     30  C   UNL     1       2.571  14.147  19.576  0.00  0.00    +0.000 A 
ATOM     31 CL   UNL     1       3.155  15.685  20.061  0.00  0.00    +0.000 Cl
ATOM     32  C   UNL     1       1.633  13.463  20.338  0.00  0.00    +0.000 A 
ATOM     33  N   UNL     1       1.101  12.258  19.998  0.00  0.00    +0.000 NA
ENDBRANCH  25  27
ENDBRANCH  23  25
ENDBRANCH   3  23
TORSDOF 6
ENDMDL
MODEL 5
REMARK VINA RESULT:      -8.3      2.513      2.942
REMARK  Name = 
REMARK  6 active torsions:
REMARK  status: ('A' for Active; 'I' for Inactive)
REMARK    1  A    between atoms: C_4  and  C_5
REMARK    2  A    between atoms: C_4  and  C_7
REMARK    3  A    between atoms: C_9  and  N_10
REMARK    4  A    between atoms: N_10  and  C_11
REMARK    5  A    between atoms: C_11  and  C_13
REMARK    6  A    between atoms: C_25  and  C_26
REMARK                            x       y       z     vdW  Elec       q    Type
REMARK                         _______ _______ _______ _____ _____    ______ ____
ROOT
ATOM      1  C   UNL     1       3.279   5.945  18.559  0.00  0.00    +0.000 A 
ATOM      2  C   UNL     1       2.910   7.196  18.001  0.00  0.00    +0.000 A 
ATOM      3  C   UNL     1       2.133   8.131  18.717  0.00  0.00    +0.000 A 
ATOM      4  C   UNL     1       1.759   7.815  20.026  0.00  0.00    +0.000 A 
ATOM      5  C   UNL     1       2.080   6.580  20.585  0.00  0.00    +0.000 A 
ATOM      6  C   UNL     1       2.818   5.663  19.853  0.00  0.00    +0.000 A 
ATOM      7  F   UNL     1       3.093   4.488  20.432  0.00  0.00    +0.000 F 
ENDROOT
BRANCH   1  11
ATOM      8  N   UNL     1       5.879   6.041  14.796  0.00  0.00    +0.000 N 
ATOM      9  C   UNL     1       5.553   5.766  16.071  0.00  0.00    +0.000 C 
ATOM     10  N   UNL     1       4.409   5.305  16.416  0.00  0.00    +0.000 NA
ATOM     11  C   UNL     1       4.144   4.911  17.814  0.00  0.00    +0.000 C 
ATOM     12  C   UNL     1       5.496   4.651  18.516  0.00  0.00    +0.000 C 
ATOM     13  C   UNL     1       6.379   5.867  18.310  0.00  0.00    +0.000 C 
ATOM     14  O   UNL     1       6.581   6.050  16.895  0.00  0.00    +0.000 OA
ATOM     15  H   UNL     1       5.116   6.081  14.136  0.00  0.00    +0.000 HD
ATOM     16  H   UNL     1       6.668   6.651  14.642  0.00  0.00    +0.000 HD
BRANCH  13  17
ATOM     17  C   UNL     1       7.717   5.747  19.048  0.00  0.00    +0.000 C 
ATOM     18  F   UNL     1       7.567   5.590  20.382  0.00  0.00    +0.000 F 
ATOM     19  F   UNL     1       8.466   4.714  18.602  0.00  0.00    +0.000 F 
ATOM     20  F   UNL     1       8.453   6.873  18.863  0.00  0.00    +0.000 F 
ENDBRANCH  13  17
BRANCH  11  21
ATOM     21  C   UNL     1       3.365   3.565  17.754  0.00  0.00    +0.000 C 
ATOM     22  F   UNL     1       2.105   3.771  17.272  0.00  0.00    +0.000 F 
ENDBRANCH  11  21
ENDBRANCH   1  11
BRANCH   3  23
ATOM     23  N   UNL     1       1.847   9.382  18.112  0.00  0.00    +0.000 N 
ATOM     24  H   UNL     1       2.475   9.666  17.360  0.00  0.00    +0.000 HD
BRANCH  23  25
ATOM     25  C   UNL     1       0.889  10.355  18.423  0.00  0.00    +0.000 C 
ATOM     26  S   UNL     1      -0.784  10.225  18.240  0.00  0.00    +0.000 S 
BRANCH  25  27
ATOM     27  C   UNL     1       1.518  11.644  18.905  0.00  0.00    +0.000 A 
ATOM     28  C   UNL     1       1.318  12.124  20.203  0.00  0.00    +0.000 A 
ATOM     29  C   UNL     1       1.987  13.278  20.610  0.00  0.00    +0.000 A 
ATOM     30  C   UNL     1       2.827  13.921  19.710  0.00  0.00    +0.000 A 
ATOM     31 CL   UNL     1       3.683  15.333  20.173  0.00  0.00    +0.000 Cl
ATOM     32  C   UNL     1       2.970  13.382  18.437  0.00  0.00    +0.000 A 
ATOM     33  N   UNL     1       2.351  12.247  18.012  0.00  0.00    +0.000 NA
ENDBRANCH  25  27
ENDBRANCH  23  25
ENDBRANCH   3  23
TORSDOF 6
ENDMDL
MODEL 6
REMARK VINA RESULT:      -8.3      1.152      1.578
REMARK  Name = 
REMARK  6 active torsions:
REMARK  status: ('A' for Active; 'I' for Inactive)
REMARK    1  A    between atoms: C_4  and  C_5
REMARK    2  A    between atoms: C_4  and  C_7
REMARK    3  A    between atoms: C_9  and  N_10
REMARK    4  A    between atoms: N_10  and  C_11
REMARK    5  A    between atoms: C_11  and  C_13
REMARK    6  A    between atoms: C_25  and  C_26
REMARK                            x       y       z     vdW  Elec       q    Type
REMARK                         _______ _______ _______ _____ _____    ______ ____
ROOT
ATOM      1  C   UNL     1       3.156   6.218  18.463  0.00  0.00    +0.000 A 
ATOM      2  C   UNL     1       2.724   7.408  17.824  0.00  0.00    +0.000 A 
ATOM      3  C   UNL     1       1.987   8.397  18.509  0.00  0.00    +0.000 A 
ATOM      4  C   UNL     1       1.718   8.198  19.866  0.00  0.00    +0.000 A 
ATOM      5  C   UNL     1       2.102   7.023  20.509  0.00  0.00    +0.000 A 
ATOM      6  C   UNL     1       2.799   6.051  19.809  0.00  0.00    +0.000 A 
ATOM      7  F   UNL     1       3.137   4.936  20.469  0.00  0.00    +0.000 F 
ENDROOT
BRANCH   1  11
ATOM      8  N   UNL     1       5.772   6.103  14.711  0.00  0.00    +0.000 N 
ATOM      9  C   UNL     1       5.430   5.877  15.992  0.00  0.00    +0.000 C 
ATOM     10  N   UNL     1       4.267   5.473  16.343  0.00  0.00    +0.000 NA
ATOM     11  C   UNL     1       3.981   5.129  17.751  0.00  0.00    +0.000 C 
ATOM     12  C   UNL     1       5.318   4.833  18.465  0.00  0.00    +0.000 C 
ATOM     13  C   UNL     1       6.251   6.006  18.231  0.00  0.00    +0.000 C 
ATOM     14  O   UNL     1       6.465   6.142  16.812  0.00  0.00    +0.000 OA
ATOM     15  H   UNL     1       5.013   6.156  14.046  0.00  0.00    +0.000 HD
ATOM     16  H   UNL     1       6.585   6.676  14.544  0.00  0.00    +0.000 HD
BRANCH  13  17
ATOM     17  C   UNL     1       7.581   5.853  18.978  0.00  0.00    +0.000 C 
ATOM     18  F   UNL     1       8.318   4.813  18.529  0.00  0.00    +0.000 F 
ATOM     19  F   UNL     1       8.353   6.960  18.896  0.00  0.00    +0.000 F 
ATOM     20  F   UNL     1       7.350   5.634  20.298  0.00  0.00    +0.000 F 
ENDBRANCH  13  17
BRANCH  11  21
ATOM     21  C   UNL     1       3.147   3.815  17.724  0.00  0.00    +0.000 C 
ATOM     22  F   UNL     1       1.862   4.079  17.349  0.00  0.00    +0.000 F 
ENDBRANCH  11  21
ENDBRANCH   1  11
BRANCH   3  23
ATOM     23  N   UNL     1       1.634   9.584  17.817  0.00  0.00    +0.000 N 
ATOM     24  H   UNL     1       1.849   9.597  16.820  0.00  0.00    +0.000 HD
BRANCH  23  25
ATOM     25  C   UNL     1       1.110  10.796  18.281  0.00  0.00    +0.000 C 
ATOM     26  S   UNL     1       1.978  12.114  18.880  0.00  0.00    +0.000 S 
BRANCH  25  27
ATOM     27  C   UNL     1      -0.403  10.807  18.268  0.00  0.00    +0.000 A 
ATOM     28  C   UNL     1      -1.141  11.756  18.984  0.00  0.00    +0.000 A 
ATOM     29  C   UNL     1      -2.531  11.761  18.869  0.00  0.00    +0.000 A 
ATOM     30  C   UNL     1      -3.142  10.818  18.051  0.00  0.00    +0.000 A 
ATOM     31 CL   UNL     1      -4.847  10.798  17.868  0.00  0.00    +0.000 Cl
ATOM     32  C   UNL     1      -2.337   9.908  17.376  0.00  0.00    +0.000 A 
ATOM     33  N   UNL     1      -0.979   9.887  17.447  0.00  0.00    +0.000 NA
ENDBRANCH  25  27
ENDBRANCH  23  25
ENDBRANCH   3  23
TORSDOF 6
ENDMDL
MODEL 7
REMARK VINA RESULT:      -8.2      1.496      1.962
REMARK  Name = 
REMARK  6 active torsions:
REMARK  status: ('A' for Active; 'I' for Inactive)
REMARK    1  A    between atoms: C_4  and  C_5
REMARK    2  A    between atoms: C_4  and  C_7
REMARK    3  A    between atoms: C_9  and  N_10
REMARK    4  A    between atoms: N_10  and  C_11
REMARK    5  A    between atoms: C_11  and  C_13
REMARK    6  A    between atoms: C_25  and  C_26
REMARK                            x       y       z     vdW  Elec       q    Type
REMARK                         _______ _______ _______ _____ _____    ______ ____
ROOT
ATOM      1  C   UNL     1       3.332   4.931  18.949  0.00  0.00    +0.000 A 
ATOM      2  C   UNL     1       2.915   6.277  19.109  0.00  0.00    +0.000 A 
ATOM      3  C   UNL     1       2.057   6.672  20.158  0.00  0.00    +0.000 A 
ATOM      4  C   UNL     1       1.649   5.701  21.077  0.00  0.00    +0.000 A 
ATOM      5  C   UNL     1       2.018   4.367  20.924  0.00  0.00    +0.000 A 
ATOM      6  C   UNL     1       2.836   3.995  19.868  0.00  0.00    +0.000 A 
ATOM      7  F   UNL     1       3.154   2.700  19.759  0.00  0.00    +0.000 F 
ENDROOT
BRANCH   1  11
ATOM      8  N   UNL     1       5.260   6.959  15.329  0.00  0.00    +0.000 N 
ATOM      9  C   UNL     1       5.195   6.196  16.435  0.00  0.00    +0.000 C 
ATOM     10  N   UNL     1       4.246   5.366  16.656  0.00  0.00    +0.000 NA
ATOM     11  C   UNL     1       4.285   4.470  17.829  0.00  0.00    +0.000 C 
ATOM     12  C   UNL     1       5.749   4.349  18.307  0.00  0.00    +0.000 C 
ATOM     13  C   UNL     1       6.300   5.748  18.504  0.00  0.00    +0.000 C 
ATOM     14  O   UNL     1       6.245   6.443  17.243  0.00  0.00    +0.000 OA
ATOM     15  H   UNL     1       4.418   7.019  14.775  0.00  0.00    +0.000 HD
ATOM     16  H   UNL     1       5.862   7.767  15.360  0.00  0.00    +0.000 HD
BRANCH  13  17
ATOM     17  C   UNL     1       7.727   5.740  19.068  0.00  0.00    +0.000 C 
ATOM     18  F   UNL     1       8.404   6.877  18.796  0.00  0.00    +0.000 F 
ATOM     19  F   UNL     1       7.754   5.565  20.409  0.00  0.00    +0.000 F 
ATOM     20  F   UNL     1       8.435   4.717  18.525  0.00  0.00    +0.000 F 
ENDBRANCH  13  17
BRANCH  11  21
ATOM     21  C   UNL     1       3.823   3.069  17.332  0.00  0.00    +0.000 C 
ATOM     22  F   UNL     1       2.624   3.169  16.688  0.00  0.00    +0.000 F 
ENDBRANCH  11  21
ENDBRANCH   1  11
BRANCH   3  23
ATOM     23  N   UNL     1       1.725   8.045  20.284  0.00  0.00    +0.000 N 
ATOM     24  H   UNL     1       1.672   8.403  21.238  0.00  0.00    +0.000 HD
BRANCH  23  25
ATOM     25  C   UNL     1       1.370   8.996  19.320  0.00  0.00    +0.000 C 
ATOM     26  S   UNL     1       2.005   9.147  17.763  0.00  0.00    +0.000 S 
BRANCH  25  27
ATOM     27  C   UNL     1       0.354   9.988  19.841  0.00  0.00    +0.000 A 
ATOM     28  C   UNL     1       0.427  10.509  21.137  0.00  0.00    +0.000 A 
ATOM     29  C   UNL     1      -0.496  11.478  21.531  0.00  0.00    +0.000 A 
ATOM     30  C   UNL     1      -1.465  11.891  20.626  0.00  0.00    +0.000 A 
ATOM     31 CL   UNL     1      -2.609  13.092  21.063  0.00  0.00    +0.000 Cl
ATOM     32  C   UNL     1      -1.471  11.322  19.358  0.00  0.00    +0.000 A 
ATOM     33  N   UNL     1      -0.575  10.392  18.931  0.00  0.00    +0.000 NA
ENDBRANCH  25  27
ENDBRANCH  23  25
ENDBRANCH   3  23
TORSDOF 6
ENDMDL
MODEL 8
REMARK VINA RESULT:      -8.1      1.988      2.144
REMARK  Name = 
REMARK  6 active torsions:
REMARK  status: ('A' for Active; 'I' for Inactive)
REMARK    1  A    between atoms: C_4  and  C_5
REMARK    2  A    between atoms: C_4  and  C_7
REMARK    3  A    between atoms: C_9  and  N_10
REMARK    4  A    between atoms: N_10  and  C_11
REMARK    5  A    between atoms: C_11  and  C_13
REMARK    6  A    between atoms: C_25  and  C_26
REMARK                            x       y       z     vdW  Elec       q    Type
REMARK                         _______ _______ _______ _____ _____    ______ ____
ROOT
ATOM      1  C   UNL     1       3.301   5.206  18.912  0.00  0.00    +0.000 A 
ATOM      2  C   UNL     1       2.819   6.534  18.790  0.00  0.00    +0.000 A 
ATOM      3  C   UNL     1       1.979   7.115  19.763  0.00  0.00    +0.000 A 
ATOM      4  C   UNL     1       1.655   6.357  20.892  0.00  0.00    +0.000 A 
ATOM      5  C   UNL     1       2.088   5.040  21.020  0.00  0.00    +0.000 A 
ATOM      6  C   UNL     1       2.888   4.478  20.037  0.00  0.00    +0.000 A 
ATOM      7  F   UNL     1       3.269   3.206  20.202  0.00  0.00    +0.000 F 
ENDROOT
BRANCH   1  11
ATOM      8  N   UNL     1       5.424   6.643  15.122  0.00  0.00    +0.000 N 
ATOM      9  C   UNL     1       5.288   6.027  16.310  0.00  0.00    +0.000 C 
ATOM     10  N   UNL     1       4.280   5.295  16.606  0.00  0.00    +0.000 NA
ATOM     11  C   UNL     1       4.238   4.549  17.879  0.00  0.00    +0.000 C 
ATOM     12  C   UNL     1       5.682   4.389  18.403  0.00  0.00    +0.000 C 
ATOM     13  C   UNL     1       6.326   5.761  18.444  0.00  0.00    +0.000 C 
ATOM     14  O   UNL     1       6.339   6.300  17.107  0.00  0.00    +0.000 OA
ATOM     15  H   UNL     1       4.597   6.692  14.545  0.00  0.00    +0.000 HD
ATOM     16  H   UNL     1       6.080   7.407  15.070  0.00  0.00    +0.000 HD
BRANCH  13  17
ATOM     17  C   UNL     1       7.739   5.725  19.039  0.00  0.00    +0.000 C 
ATOM     18  F   UNL     1       7.737   5.578  20.383  0.00  0.00    +0.000 F 
ATOM     19  F   UNL     1       8.493   4.728  18.525  0.00  0.00    +0.000 F 
ATOM     20  F   UNL     1       8.387   6.886  18.769  0.00  0.00    +0.000 F 
ENDBRANCH  13  17
BRANCH  11  21
ATOM     21  C   UNL     1       3.687   3.132  17.543  0.00  0.00    +0.000 C 
ATOM     22  F   UNL     1       2.518   3.234  16.846  0.00  0.00    +0.000 F 
ENDBRANCH  11  21
ENDBRANCH   1  11
BRANCH   3  23
ATOM     23  N   UNL     1       1.580   8.466  19.598  0.00  0.00    +0.000 N 
ATOM     24  H   UNL     1       1.914   8.927  18.751  0.00  0.00    +0.000 HD
BRANCH  23  25
ATOM     25  C   UNL     1       0.863   9.321  20.443  0.00  0.00    +0.000 C 
ATOM     26  S   UNL     1      -0.217   8.874  21.661  0.00  0.00    +0.000 S 
BRANCH  25  27
ATOM     27  C   UNL     1       1.096  10.780  20.113  0.00  0.00    +0.000 A 
ATOM     28  C   UNL     1       1.322  11.214  18.802  0.00  0.00    +0.000 A 
ATOM     29  C   UNL     1       1.453  12.580  18.553  0.00  0.00    +0.000 A 
ATOM     30  C   UNL     1       1.362  13.468  19.617  0.00  0.00    +0.000 A 
ATOM     31 CL   UNL     1       1.500  15.158  19.354  0.00  0.00    +0.000 Cl
ATOM     32  C   UNL     1       1.139  12.957  20.889  0.00  0.00    +0.000 A 
ATOM     33  N   UNL     1       0.984  11.634  21.167  0.00  0.00    +0.000 NA
ENDBRANCH  25  27
ENDBRANCH  23  25
ENDBRANCH   3  23
TORSDOF 6
ENDMDL
MODEL 9
REMARK VINA RESULT:      -8.1      0.867      1.137
REMARK  Name = 
REMARK  6 active torsions:
REMARK  status: ('A' for Active; 'I' for Inactive)
REMARK    1  A    between atoms: C_4  and  C_5
REMARK    2  A    between atoms: C_4  and  C_7
REMARK    3  A    between atoms: C_9  and  N_10
REMARK    4  A    between atoms: N_10  and  C_11
REMARK    5  A    between atoms: C_11  and  C_13
REMARK    6  A    between atoms: C_25  and  C_26
REMARK                            x       y       z     vdW  Elec       q    Type
REMARK                         _______ _______ _______ _____ _____    ______ ____
ROOT
ATOM      1  C   UNL     1       3.095   5.968  18.760  0.00  0.00    +0.000 A 
ATOM      2  C   UNL     1       2.663   7.243  18.313  0.00  0.00    +0.000 A 
ATOM      3  C   UNL     1       1.908   8.105  19.137  0.00  0.00    +0.000 A 
ATOM      4  C   UNL     1       1.622   7.689  20.440  0.00  0.00    +0.000 A 
ATOM      5  C   UNL     1       2.006   6.429  20.892  0.00  0.00    +0.000 A 
ATOM      6  C   UNL     1       2.720   5.585  20.056  0.00  0.00    +0.000 A 
ATOM      7  F   UNL     1       3.058   4.382  20.534  0.00  0.00    +0.000 F 
ENDROOT
BRANCH   1  11
ATOM      8  N   UNL     1       5.527   6.413  14.910  0.00  0.00    +0.000 N 
ATOM      9  C   UNL     1       5.260   6.029  16.171  0.00  0.00    +0.000 C 
ATOM     10  N   UNL     1       4.138   5.524  16.525  0.00  0.00    +0.000 NA
ATOM     11  C   UNL     1       3.939   5.012  17.896  0.00  0.00    +0.000 C 
ATOM     12  C   UNL     1       5.323   4.716  18.515  0.00  0.00    +0.000 C 
ATOM     13  C   UNL     1       6.182   5.958  18.373  0.00  0.00    +0.000 C 
ATOM     14  O   UNL     1       6.319   6.261  16.971  0.00  0.00    +0.000 OA
ATOM     15  H   UNL     1       4.735   6.496  14.289  0.00  0.00    +0.000 HD
ATOM     16  H   UNL     1       6.300   7.046  14.774  0.00  0.00    +0.000 HD
BRANCH  13  17
ATOM     17  C   UNL     1       7.553   5.799  19.041  0.00  0.00    +0.000 C 
ATOM     18  F   UNL     1       7.464   5.557  20.368  0.00  0.00    +0.000 F 
ATOM     19  F   UNL     1       8.283   4.799  18.497  0.00  0.00    +0.000 F 
ATOM     20  F   UNL     1       8.277   6.937  18.894  0.00  0.00    +0.000 F 
ENDBRANCH  13  17
BRANCH  11  21
ATOM     21  C   UNL     1       3.174   3.664  17.758  0.00  0.00    +0.000 C 
ATOM     22  F   UNL     1       3.874   2.660  18.361  0.00  0.00    +0.000 F 
ENDBRANCH  11  21
ENDBRANCH   1  11
BRANCH   3  23
ATOM     23  N   UNL     1       1.556   9.385  18.639  0.00  0.00    +0.000 N 
ATOM     24  H   UNL     1       1.921   9.618  17.715  0.00  0.00    +0.000 HD
BRANCH  23  25
ATOM     25  C   UNL     1       0.852  10.440  19.232  0.00  0.00    +0.000 C 
ATOM     26  S   UNL     1       1.376  11.422  20.501  0.00  0.00    +0.000 S 
BRANCH  25  27
ATOM     27  C   UNL     1      -0.538  10.597  18.655  0.00  0.00    +0.000 A 
ATOM     28  C   UNL     1      -1.452  11.523  19.169  0.00  0.00    +0.000 A 
ATOM     29  C   UNL     1      -2.689  11.673  18.544  0.00  0.00    +0.000 A 
ATOM     30  C   UNL     1      -2.980  10.892  17.432  0.00  0.00    +0.000 A 
ATOM     31 CL   UNL     1      -4.483  11.056  16.623  0.00  0.00    +0.000 Cl
ATOM     32  C   UNL     1      -2.020   9.993  16.986  0.00  0.00    +0.000 A 
ATOM     33  N   UNL     1      -0.795   9.835  17.556  0.00  0.00    +0.000 NA
ENDBRANCH  25  27
ENDBRANCH  23  25
ENDBRANCH   3  23
TORSDOF 6
ENDMDL
