MODEL 1
REMARK VINA RESULT:      -7.2      0.000      0.000
REMARK  Name = 
REMARK  4 active torsions:
REMARK  status: ('A' for Active; 'I' for Inactive)
REMARK    1  A    between atoms: C_1  and  C_2
REMARK    2  A    between atoms: C_2  and  N_3
REMARK    3  A    between atoms: C_17  and  C_18
REMARK    4  A    between atoms: C_21  and  C_22
REMARK                            x       y       z     vdW  Elec       q    Type
REMARK                         _______ _______ _______ _____ _____    ______ ____
ROOT
ATOM      1  N   UNL     1       4.275   2.632  19.561  0.00  0.00    +0.000 NA
ATOM      2  C   UNL     1       2.846   2.929  19.280  0.00  0.00    +0.000 C 
ATOM      3  C   UNL     1       2.327   4.128  20.097  0.00  0.00    +0.000 C 
ATOM      4  N   UNL     1       3.184   5.266  19.832  0.00  0.00    +0.000 N 
ATOM      5  C   UNL     1       2.625   6.554  19.508  0.00  0.00    +0.000 C 
ATOM      6  N   UNL     1       1.864   7.075  20.413  0.00  0.00    +0.000 NA
ATOM      7  C   UNL     1       1.159   8.295  20.571  0.00  0.00    +0.000 A 
ATOM      8  C   UNL     1       0.495   8.433  21.807  0.00  0.00    +0.000 A 
ATOM      9  C   UNL     1      -0.233   9.576  22.130  0.00  0.00    +0.000 A 
ATOM     10  C   UNL     1      -0.321  10.616  21.217  0.00  0.00    +0.000 A 
ATOM     11  C   UNL     1       0.323  10.511  19.988  0.00  0.00    +0.000 A 
ATOM     12  C   UNL     1       1.076   9.365  19.640  0.00  0.00    +0.000 A 
ATOM     13  C   UNL     1       1.708   9.452  18.282  0.00  0.00    +0.000 C 
ATOM     14  C   UNL     1       2.571   8.379  17.709  0.00  0.00    +0.000 C 
ATOM     15  C   UNL     1       2.968   7.190  18.195  0.00  0.00    +0.000 C 
ATOM     16  C   UNL     1       4.601   5.073  20.103  0.00  0.00    +0.000 C 
ATOM     17  C   UNL     1       5.126   3.830  19.357  0.00  0.00    +0.000 C 
ENDROOT
BRANCH  15  18
ATOM     18  C   UNL     1       3.769   6.372  17.268  0.00  0.00    +0.000 A 
ATOM     19  C   UNL     1       3.336   5.098  16.880  0.00  0.00    +0.000 A 
ATOM     20  C   UNL     1       4.075   4.364  15.949  0.00  0.00    +0.000 A 
ATOM     21  C   UNL     1       5.263   4.893  15.407  0.00  0.00    +0.000 A 
ATOM     22  C   UNL     1       5.711   6.154  15.836  0.00  0.00    +0.000 A 
ATOM     23  C   UNL     1       4.967   6.891  16.757  0.00  0.00    +0.000 A 
BRANCH  21  24
ATOM     24  C   UNL     1       6.054   4.153  14.363  0.00  0.00    +0.000 C 
ATOM     25  F   UNL     1       7.213   4.831  14.026  0.00  0.00    +0.000 F 
ATOM     26  F   UNL     1       6.403   2.909  14.856  0.00  0.00    +0.000 F 
ATOM     27  F   UNL     1       5.285   3.989  13.225  0.00  0.00    +0.000 F 
ENDBRANCH  21  24
ENDBRANCH  15  18
BRANCH   1  29
ATOM     28  C   UNL     1       5.302   0.598  20.559  0.00  0.00    +0.000 C 
ATOM     29  C   UNL     1       4.536   1.898  20.823  0.00  0.00    +0.000 C 
ENDBRANCH   1  29
TORSDOF 3
ENDMDL
MODEL 2
REMARK VINA RESULT:      -7.1      7.266      9.364
REMARK  Name = 
REMARK  4 active torsions:
REMARK  status: ('A' for Active; 'I' for Inactive)
REMARK    1  A    between atoms: C_1  and  C_2
REMARK    2  A    between atoms: C_2  and  N_3
REMARK    3  A    between atoms: C_17  and  C_18
REMARK    4  A    between atoms: C_21  and  C_22
REMARK                            x       y       z     vdW  Elec       q    Type
REMARK                         _______ _______ _______ _____ _____    ______ ____
ROOT
ATOM      1  N   UNL     1      -2.560  12.223  22.241  0.00  0.00    +0.000 NA
ATOM      2  C   UNL     1      -2.247  13.593  21.757  0.00  0.00    +0.000 C 
ATOM      3  C   UNL     1      -0.807  14.021  22.104  0.00  0.00    +0.000 C 
ATOM      4  N   UNL     1       0.105  13.030  21.569  0.00  0.00    +0.000 N 
ATOM      5  C   UNL     1       1.263  13.424  20.807  0.00  0.00    +0.000 C 
ATOM      6  N   UNL     1       2.112  14.172  21.431  0.00  0.00    +0.000 NA
ATOM      7  C   UNL     1       3.375  14.745  21.133  0.00  0.00    +0.000 A 
ATOM      8  C   UNL     1       3.962  15.456  22.199  0.00  0.00    +0.000 A 
ATOM      9  C   UNL     1       5.207  16.070  22.080  0.00  0.00    +0.000 A 
ATOM     10  C   UNL     1       5.899  15.992  20.881  0.00  0.00    +0.000 A 
ATOM     11  C   UNL     1       5.347  15.298  19.809  0.00  0.00    +0.000 A 
ATOM     12  C   UNL     1       4.089  14.659  19.908  0.00  0.00    +0.000 A 
ATOM     13  C   UNL     1       3.677  13.948  18.653  0.00  0.00    +0.000 C 
ATOM     14  C   UNL     1       2.405  13.178  18.526  0.00  0.00    +0.000 C 
ATOM     15  C   UNL     1       1.408  12.942  19.395  0.00  0.00    +0.000 C 
ATOM     16  C   UNL     1      -0.113  11.660  22.010  0.00  0.00    +0.000 C 
ATOM     17  C   UNL     1      -1.571  11.236  21.743  0.00  0.00    +0.000 C 
ENDROOT
BRANCH  15  18
ATOM     18  C   UNL     1       0.267  12.187  18.848  0.00  0.00    +0.000 A 
ATOM     19  C   UNL     1      -0.907  12.845  18.459  0.00  0.00    +0.000 A 
ATOM     20  C   UNL     1      -1.952  12.122  17.880  0.00  0.00    +0.000 A 
ATOM     21  C   UNL     1      -1.839  10.729  17.698  0.00  0.00    +0.000 A 
ATOM     22  C   UNL     1      -0.674  10.073  18.131  0.00  0.00    +0.000 A 
ATOM     23  C   UNL     1       0.375  10.798  18.698  0.00  0.00    +0.000 A 
BRANCH  21  24
ATOM     24  C   UNL     1      -2.922   9.928  17.029  0.00  0.00    +0.000 C 
ATOM     25  F   UNL     1      -3.456   8.979  17.885  0.00  0.00    +0.000 F 
ATOM     26  F   UNL     1      -3.937  10.780  16.634  0.00  0.00    +0.000 F 
ATOM     27  F   UNL     1      -2.409   9.288  15.916  0.00  0.00    +0.000 F 
ENDBRANCH  21  24
ENDBRANCH  15  18
BRANCH   1  29
ATOM     28  C   UNL     1      -4.215  12.762  24.018  0.00  0.00    +0.000 C 
ATOM     29  C   UNL     1      -2.866  12.115  23.688  0.00  0.00    +0.000 C 
ENDBRANCH   1  29
TORSDOF 3
ENDMDL
MODEL 3
REMARK VINA RESULT:      -7.1      9.706     12.040
REMARK  Name = 
REMARK  4 active torsions:
REMARK  status: ('A' for Active; 'I' for Inactive)
REMARK    1  A    between atoms: C_1  and  C_2
REMARK    2  A    between atoms: C_2  and  N_3
REMARK    3  A    between atoms: C_17  and  C_18
REMARK    4  A    between atoms: C_21  and  C_22
REMARK                            x       y       z     vdW  Elec       q    Type
REMARK                         _______ _______ _______ _____ _____    ______ ____
ROOT
ATOM      1  N   UNL     1       4.422  15.325  23.528  0.00  0.00    +0.000 NA
ATOM      2  C   UNL     1       4.409  14.461  22.319  0.00  0.00    +0.000 C 
ATOM      3  C   UNL     1       5.549  14.807  21.342  0.00  0.00    +0.000 C 
ATOM      4  N   UNL     1       6.806  14.725  22.058  0.00  0.00    +0.000 N 
ATOM      5  C   UNL     1       7.928  14.009  21.507  0.00  0.00    +0.000 C 
ATOM      6  N   UNL     1       8.365  14.447  20.372  0.00  0.00    +0.000 NA
ATOM      7  C   UNL     1       9.434  14.120  19.499  0.00  0.00    +0.000 A 
ATOM      8  C   UNL     1       9.544  14.957  18.369  0.00  0.00    +0.000 A 
ATOM      9  C   UNL     1      10.546  14.783  17.418  0.00  0.00    +0.000 A 
ATOM     10  C   UNL     1      11.467  13.757  17.569  0.00  0.00    +0.000 A 
ATOM     11  C   UNL     1      11.386  12.914  18.672  0.00  0.00    +0.000 A 
ATOM     12  C   UNL     1      10.383  13.076  19.657  0.00  0.00    +0.000 A 
ATOM     13  C   UNL     1      10.476  12.081  20.777  0.00  0.00    +0.000 C 
ATOM     14  C   UNL     1       9.547  12.071  21.944  0.00  0.00    +0.000 C 
ATOM     15  C   UNL     1       8.505  12.855  22.269  0.00  0.00    +0.000 C 
ATOM     16  C   UNL     1       6.917  15.559  23.246  0.00  0.00    +0.000 C 
ATOM     17  C   UNL     1       5.741  15.286  24.206  0.00  0.00    +0.000 C 
ENDROOT
BRANCH  15  18
ATOM     18  C   UNL     1       7.783  12.460  23.491  0.00  0.00    +0.000 A 
ATOM     19  C   UNL     1       6.558  11.785  23.412  0.00  0.00    +0.000 A 
ATOM     20  C   UNL     1       5.920  11.359  24.579  0.00  0.00    +0.000 A 
ATOM     21  C   UNL     1       6.495  11.617  25.839  0.00  0.00    +0.000 A 
ATOM     22  C   UNL     1       7.703  12.333  25.909  0.00  0.00    +0.000 A 
ATOM     23  C   UNL     1       8.345  12.747  24.741  0.00  0.00    +0.000 A 
BRANCH  21  24
ATOM     24  C   UNL     1       5.864  11.126  27.113  0.00  0.00    +0.000 C 
ATOM     25  F   UNL     1       6.555  10.049  27.642  0.00  0.00    +0.000 F 
ATOM     26  F   UNL     1       5.868  12.148  28.045  0.00  0.00    +0.000 F 
ATOM     27  F   UNL     1       4.558  10.742  26.868  0.00  0.00    +0.000 F 
ENDBRANCH  21  24
ENDBRANCH  15  18
BRANCH   1  29
ATOM     28  C   UNL     1       2.451  16.629  22.752  0.00  0.00    +0.000 C 
ATOM     29  C   UNL     1       3.863  16.686  23.343  0.00  0.00    +0.000 C 
ENDBRANCH   1  29
TORSDOF 3
ENDMDL
MODEL 4
REMARK VINA RESULT:      -7.1      9.555     12.186
REMARK  Name = 
REMARK  4 active torsions:
REMARK  status: ('A' for Active; 'I' for Inactive)
REMARK    1  A    between atoms: C_1  and  C_2
REMARK    2  A    between atoms: C_2  and  N_3
REMARK    3  A    between atoms: C_17  and  C_18
REMARK    4  A    between atoms: C_21  and  C_22
REMARK                            x       y       z     vdW  Elec       q    Type
REMARK                         _______ _______ _______ _____ _____    ______ ____
ROOT
ATOM      1  N   UNL     1       5.928  16.089  23.820  0.00  0.00    +0.000 NA
ATOM      2  C   UNL     1       5.519  15.471  22.533  0.00  0.00    +0.000 C 
ATOM      3  C   UNL     1       6.646  15.507  21.482  0.00  0.00    +0.000 C 
ATOM      4  N   UNL     1       7.816  14.867  22.047  0.00  0.00    +0.000 N 
ATOM      5  C   UNL     1       8.549  13.873  21.303  0.00  0.00    +0.000 C 
ATOM      6  N   UNL     1       9.052  14.274  20.183  0.00  0.00    +0.000 NA
ATOM      7  C   UNL     1       9.864  13.703  19.170  0.00  0.00    +0.000 A 
ATOM      8  C   UNL     1      10.217  14.590  18.133  0.00  0.00    +0.000 A 
ATOM      9  C   UNL     1      11.021  14.196  17.065  0.00  0.00    +0.000 A 
ATOM     10  C   UNL     1      11.491  12.892  17.005  0.00  0.00    +0.000 A 
ATOM     11  C   UNL     1      11.160  11.991  18.012  0.00  0.00    +0.000 A 
ATOM     12  C   UNL     1      10.353  12.371  19.111  0.00  0.00    +0.000 A 
ATOM     13  C   UNL     1      10.127  11.265  20.099  0.00  0.00    +0.000 C 
ATOM     14  C   UNL     1       9.333  11.433  21.351  0.00  0.00    +0.000 C 
ATOM     15  C   UNL     1       8.687  12.492  21.869  0.00  0.00    +0.000 C 
ATOM     16  C   UNL     1       8.305  15.424  23.300  0.00  0.00    +0.000 C 
ATOM     17  C   UNL     1       7.171  15.471  24.344  0.00  0.00    +0.000 C 
ENDROOT
BRANCH  15  18
ATOM     18  C   UNL     1       7.942  12.222  23.111  0.00  0.00    +0.000 A 
ATOM     19  C   UNL     1       6.561  11.989  23.081  0.00  0.00    +0.000 A 
ATOM     20  C   UNL     1       5.883  11.669  24.259  0.00  0.00    +0.000 A 
ATOM     21  C   UNL     1       6.577  11.594  25.483  0.00  0.00    +0.000 A 
ATOM     22  C   UNL     1       7.955  11.873  25.508  0.00  0.00    +0.000 A 
ATOM     23  C   UNL     1       8.634  12.181  24.329  0.00  0.00    +0.000 A 
BRANCH  21  24
ATOM     24  C   UNL     1       5.888  11.200  26.761  0.00  0.00    +0.000 C 
ATOM     25  F   UNL     1       6.739  10.508  27.605  0.00  0.00    +0.000 F 
ATOM     26  F   UNL     1       5.458  12.341  27.414  0.00  0.00    +0.000 F 
ATOM     27  F   UNL     1       4.796  10.403  26.475  0.00  0.00    +0.000 F 
ENDBRANCH  21  24
ENDBRANCH  15  18
BRANCH   1  29
ATOM     28  C   UNL     1       4.654  18.128  23.184  0.00  0.00    +0.000 C 
ATOM     29  C   UNL     1       5.919  17.572  23.846  0.00  0.00    +0.000 C 
ENDBRANCH   1  29
TORSDOF 3
ENDMDL
MODEL 5
REMARK VINA RESULT:      -7.1      9.666     12.155
REMARK  Name = 
REMARK  4 active torsions:
REMARK  status: ('A' for Active; 'I' for Inactive)
REMARK    1  A    between atoms: C_1  and  C_2
REMARK    2  A    between atoms: C_2  and  N_3
REMARK    3  A    between atoms: C_17  and  C_18
REMARK    4  A    between atoms: C_21  and  C_22
REMARK                            x       y       z     vdW  Elec       q    Type
REMARK                         _______ _______ _______ _____ _____    ______ ____
ROOT
ATOM      1  N   UNL     1       5.173  15.619  23.211  0.00  0.00    +0.000 NA
ATOM      2  C   UNL     1       5.019  14.759  22.010  0.00  0.00    +0.000 C 
ATOM      3  C   UNL     1       6.158  14.965  20.993  0.00  0.00    +0.000 C 
ATOM      4  N   UNL     1       7.419  14.738  21.668  0.00  0.00    +0.000 N 
ATOM      5  C   UNL     1       8.431  13.892  21.085  0.00  0.00    +0.000 C 
ATOM      6  N   UNL     1       8.878  14.271  19.934  0.00  0.00    +0.000 NA
ATOM      7  C   UNL     1       9.871  13.818  19.029  0.00  0.00    +0.000 A 
ATOM      8  C   UNL     1      10.041  14.631  17.890  0.00  0.00    +0.000 A 
ATOM      9  C   UNL     1      10.983  14.337  16.907  0.00  0.00    +0.000 A 
ATOM     10  C   UNL     1      11.781  13.210  17.035  0.00  0.00    +0.000 A 
ATOM     11  C   UNL     1      11.638  12.386  18.147  0.00  0.00    +0.000 A 
ATOM     12  C   UNL     1      10.695  12.669  19.163  0.00  0.00    +0.000 A 
ATOM     13  C   UNL     1      10.708  11.675  20.286  0.00  0.00    +0.000 C 
ATOM     14  C   UNL     1       9.824  11.778  21.484  0.00  0.00    +0.000 C 
ATOM     15  C   UNL     1       8.892  12.681  21.837  0.00  0.00    +0.000 C 
ATOM     16  C   UNL     1       7.668  15.557  22.845  0.00  0.00    +0.000 C 
ATOM     17  C   UNL     1       6.501  15.428  23.845  0.00  0.00    +0.000 C 
ENDROOT
BRANCH  15  18
ATOM     18  C   UNL     1       8.171  12.378  23.085  0.00  0.00    +0.000 A 
ATOM     19  C   UNL     1       8.768  12.605  24.331  0.00  0.00    +0.000 A 
ATOM     20  C   UNL     1       8.044  12.375  25.504  0.00  0.00    +0.000 A 
ATOM     21  C   UNL     1       6.719  11.901  25.441  0.00  0.00    +0.000 A 
ATOM     22  C   UNL     1       6.144  11.634  24.186  0.00  0.00    +0.000 A 
ATOM     23  C   UNL     1       6.864  11.876  23.015  0.00  0.00    +0.000 A 
BRANCH  21  24
ATOM     24  C   UNL     1       5.893  11.694  26.681  0.00  0.00    +0.000 C 
ATOM     25  F   UNL     1       4.917  12.667  26.811  0.00  0.00    +0.000 F 
ATOM     26  F   UNL     1       5.273  10.459  26.611  0.00  0.00    +0.000 F 
ATOM     27  F   UNL     1       6.710  11.727  27.796  0.00  0.00    +0.000 F 
ENDBRANCH  21  24
ENDBRANCH  15  18
BRANCH   1  29
ATOM     28  C   UNL     1       3.377  17.143  22.413  0.00  0.00    +0.000 C 
ATOM     29  C   UNL     1       4.773  17.036  23.034  0.00  0.00    +0.000 C 
ENDBRANCH   1  29
TORSDOF 3
ENDMDL
MODEL 6
REMARK VINA RESULT:      -7.0      7.225      9.298
REMARK  Name = 
REMARK  4 active torsions:
REMARK  status: ('A' for Active; 'I' for Inactive)
REMARK    1  A    between atoms: C_1  and  C_2
REMARK    2  A    between atoms: C_2  and  N_3
REMARK    3  A    between atoms: C_17  and  C_18
REMARK    4  A    between atoms: C_21  and  C_22
REMARK                            x       y       z     vdW  Elec       q    Type
REMARK                         _______ _______ _______ _____ _____    ______ ____
ROOT
ATOM      1  N   UNL     1      -2.382  12.100  22.072  0.00  0.00    +0.000 NA
ATOM      2  C   UNL     1      -2.093  13.488  21.627  0.00  0.00    +0.000 C 
ATOM      3  C   UNL     1      -0.672  13.942  22.013  0.00  0.00    +0.000 C 
ATOM      4  N   UNL     1       0.275  12.988  21.474  0.00  0.00    +0.000 N 
ATOM      5  C   UNL     1       1.438  13.428  20.745  0.00  0.00    +0.000 C 
ATOM      6  N   UNL     1       2.255  14.182  21.404  0.00  0.00    +0.000 NA
ATOM      7  C   UNL     1       3.509  14.792  21.144  0.00  0.00    +0.000 A 
ATOM      8  C   UNL     1       4.057  15.492  22.239  0.00  0.00    +0.000 A 
ATOM      9  C   UNL     1       5.288  16.139  22.159  0.00  0.00    +0.000 A 
ATOM     10  C   UNL     1       6.006  16.107  20.973  0.00  0.00    +0.000 A 
ATOM     11  C   UNL     1       5.492  15.425  19.874  0.00  0.00    +0.000 A 
ATOM     12  C   UNL     1       4.249  14.753  19.933  0.00  0.00    +0.000 A 
ATOM     13  C   UNL     1       3.880  14.062  18.653  0.00  0.00    +0.000 C 
ATOM     14  C   UNL     1       2.630  13.264  18.482  0.00  0.00    +0.000 C 
ATOM     15  C   UNL     1       1.622  12.983  19.326  0.00  0.00    +0.000 C 
ATOM     16  C   UNL     1       0.083  11.603  21.878  0.00  0.00    +0.000 C 
ATOM     17  C   UNL     1      -1.359  11.149  21.573  0.00  0.00    +0.000 C 
ENDROOT
BRANCH  15  18
ATOM     18  C   UNL     1       0.513  12.213  18.738  0.00  0.00    +0.000 A 
ATOM     19  C   UNL     1       0.607  10.824  18.586  0.00  0.00    +0.000 A 
ATOM     20  C   UNL     1      -0.481  10.102  18.089  0.00  0.00    +0.000 A 
ATOM     21  C   UNL     1      -1.669  10.766  17.724  0.00  0.00    +0.000 A 
ATOM     22  C   UNL     1      -1.737  12.165  17.840  0.00  0.00    +0.000 A 
ATOM     23  C   UNL     1      -0.654  12.884  18.348  0.00  0.00    +0.000 A 
BRANCH  21  24
ATOM     24  C   UNL     1      -2.878  10.014  17.237  0.00  0.00    +0.000 C 
ATOM     25  F   UNL     1      -3.957  10.858  17.039  0.00  0.00    +0.000 F 
ATOM     26  F   UNL     1      -2.576   9.403  16.034  0.00  0.00    +0.000 F 
ATOM     27  F   UNL     1      -3.229   9.047  18.160  0.00  0.00    +0.000 F 
ENDBRANCH  21  24
ENDBRANCH  15  18
BRANCH   1  29
ATOM     28  C   UNL     1      -4.019  12.673  23.855  0.00  0.00    +0.000 C 
ATOM     29  C   UNL     1      -2.713  11.949  23.510  0.00  0.00    +0.000 C 
ENDBRANCH   1  29
TORSDOF 3
ENDMDL
MODEL 7
REMARK VINA RESULT:      -7.0      0.436      1.187
REMARK  Name = 
REMARK  4 active torsions:
REMARK  status: ('A' for Active; 'I' for Inactive)
REMARK    1  A    between atoms: C_1  and  C_2
REMARK    2  A    between atoms: C_2  and  N_3
REMARK    3  A    between atoms: C_17  and  C_18
REMARK    4  A    between atoms: C_21  and  C_22
REMARK                            x       y       z     vdW  Elec       q    Type
REMARK                         _______ _______ _______ _____ _____    ______ ____
ROOT
ATOM      1  N   UNL     1       3.890   2.745  19.637  0.00  0.00    +0.000 NA
ATOM      2  C   UNL     1       2.494   3.110  19.284  0.00  0.00    +0.000 C 
ATOM      3  C   UNL     1       1.982   4.317  20.094  0.00  0.00    +0.000 C 
ATOM      4  N   UNL     1       2.901   5.420  19.897  0.00  0.00    +0.000 N 
ATOM      5  C   UNL     1       2.418   6.738  19.568  0.00  0.00    +0.000 C 
ATOM      6  N   UNL     1       1.631   7.276  20.440  0.00  0.00    +0.000 NA
ATOM      7  C   UNL     1       0.972   8.524  20.581  0.00  0.00    +0.000 A 
ATOM      8  C   UNL     1       0.248   8.671  21.782  0.00  0.00    +0.000 A 
ATOM      9  C   UNL     1      -0.447   9.840  22.087  0.00  0.00    +0.000 A 
ATOM     10  C   UNL     1      -0.439  10.897  21.189  0.00  0.00    +0.000 A 
ATOM     11  C   UNL     1       0.266  10.784  19.995  0.00  0.00    +0.000 A 
ATOM     12  C   UNL     1       0.987   9.612  19.668  0.00  0.00    +0.000 A 
ATOM     13  C   UNL     1       1.696   9.693  18.348  0.00  0.00    +0.000 C 
ATOM     14  C   UNL     1       2.543   8.592  17.803  0.00  0.00    +0.000 C 
ATOM     15  C   UNL     1       2.860   7.379  18.287  0.00  0.00    +0.000 C 
ATOM     16  C   UNL     1       4.291   5.160  20.242  0.00  0.00    +0.000 C 
ATOM     17  C   UNL     1       4.802   3.907  19.502  0.00  0.00    +0.000 C 
ENDROOT
BRANCH  15  18
ATOM     18  C   UNL     1       3.675   6.542  17.390  0.00  0.00    +0.000 A 
ATOM     19  C   UNL     1       4.941   6.967  16.968  0.00  0.00    +0.000 A 
ATOM     20  C   UNL     1       5.728   6.130  16.172  0.00  0.00    +0.000 A 
ATOM     21  C   UNL     1       5.248   4.866  15.778  0.00  0.00    +0.000 A 
ATOM     22  C   UNL     1       3.959   4.467  16.171  0.00  0.00    +0.000 A 
ATOM     23  C   UNL     1       3.179   5.298  16.977  0.00  0.00    +0.000 A 
BRANCH  21  24
ATOM     24  C   UNL     1       6.089   3.918  14.966  0.00  0.00    +0.000 C 
ATOM     25  F   UNL     1       5.671   3.868  13.648  0.00  0.00    +0.000 F 
ATOM     26  F   UNL     1       7.404   4.345  14.992  0.00  0.00    +0.000 F 
ATOM     27  F   UNL     1       6.014   2.648  15.508  0.00  0.00    +0.000 F 
ENDBRANCH  21  24
ENDBRANCH  15  18
BRANCH   1  29
ATOM     28  C   UNL     1       5.330   1.140  20.877  0.00  0.00    +0.000 C 
ATOM     29  C   UNL     1       4.049   1.980  20.898  0.00  0.00    +0.000 C 
ENDBRANCH   1  29
TORSDOF 3
ENDMDL
MODEL 8
REMARK VINA RESULT:      -7.0      8.160     10.739
REMARK  Name = 
REMARK  4 active torsions:
REMARK  status: ('A' for Active; 'I' for Inactive)
REMARK    1  A    between atoms: C_1  and  C_2
REMARK    2  A    between atoms: C_2  and  N_3
REMARK    3  A    between atoms: C_17  and  C_18
REMARK    4  A    between atoms: C_21  and  C_22
REMARK                            x       y       z     vdW  Elec       q    Type
REMARK                         _______ _______ _______ _____ _____    ______ ____
ROOT
ATOM      1  N   UNL     1      -1.537  10.567  18.771  0.00  0.00    +0.000 NA
ATOM      2  C   UNL     1      -0.236  10.283  19.430  0.00  0.00    +0.000 C 
ATOM      3  C   UNL     1       0.902  11.166  18.882  0.00  0.00    +0.000 C 
ATOM      4  N   UNL     1       0.511  12.554  19.021  0.00  0.00    +0.000 N 
ATOM      5  C   UNL     1       1.412  13.524  19.588  0.00  0.00    +0.000 C 
ATOM      6  N   UNL     1       2.528  13.686  18.956  0.00  0.00    +0.000 NA
ATOM      7  C   UNL     1       3.661  14.527  19.092  0.00  0.00    +0.000 A 
ATOM      8  C   UNL     1       4.632  14.369  18.082  0.00  0.00    +0.000 A 
ATOM      9  C   UNL     1       5.801  15.126  18.057  0.00  0.00    +0.000 A 
ATOM     10  C   UNL     1       6.033  16.065  19.051  0.00  0.00    +0.000 A 
ATOM     11  C   UNL     1       5.094  16.245  20.062  0.00  0.00    +0.000 A 
ATOM     12  C   UNL     1       3.896  15.495  20.105  0.00  0.00    +0.000 A 
ATOM     13  C   UNL     1       3.007  15.850  21.259  0.00  0.00    +0.000 C 
ATOM     14  C   UNL     1       1.678  15.214  21.497  0.00  0.00    +0.000 C 
ATOM     15  C   UNL     1       1.001  14.269  20.823  0.00  0.00    +0.000 C 
ATOM     16  C   UNL     1      -0.742  12.929  18.382  0.00  0.00    +0.000 C 
ATOM     17  C   UNL     1      -1.884  12.007  18.857  0.00  0.00    +0.000 C 
ENDROOT
BRANCH  15  18
ATOM     18  C   UNL     1      -0.269  13.850  21.439  0.00  0.00    +0.000 A 
ATOM     19  C   UNL     1      -0.354  12.654  22.163  0.00  0.00    +0.000 A 
ATOM     20  C   UNL     1      -1.549  12.306  22.798  0.00  0.00    +0.000 A 
ATOM     21  C   UNL     1      -2.677  13.145  22.701  0.00  0.00    +0.000 A 
ATOM     22  C   UNL     1      -2.594  14.321  21.936  0.00  0.00    +0.000 A 
ATOM     23  C   UNL     1      -1.396  14.674  21.313  0.00  0.00    +0.000 A 
BRANCH  21  24
ATOM     24  C   UNL     1      -3.962  12.828  23.415  0.00  0.00    +0.000 C 
ATOM     25  F   UNL     1      -4.439  13.922  24.116  0.00  0.00    +0.000 F 
ATOM     26  F   UNL     1      -4.916  12.454  22.486  0.00  0.00    +0.000 F 
ATOM     27  F   UNL     1      -3.759  11.785  24.300  0.00  0.00    +0.000 F 
ENDBRANCH  21  24
ENDBRANCH  15  18
BRANCH   1  29
ATOM     28  C   UNL     1      -3.192   9.896  17.039  0.00  0.00    +0.000 C 
ATOM     29  C   UNL     1      -1.711   9.972  17.423  0.00  0.00    +0.000 C 
ENDBRANCH   1  29
TORSDOF 3
ENDMDL
MODEL 9
REMARK VINA RESULT:      -6.9      3.449      5.143
REMARK  Name = 
REMARK  4 active torsions:
REMARK  status: ('A' for Active; 'I' for Inactive)
REMARK    1  A    between atoms: C_1  and  C_2
REMARK    2  A    between atoms: C_2  and  N_3
REMARK    3  A    between atoms: C_17  and  C_18
REMARK    4  A    between atoms: C_21  and  C_22
REMARK                            x       y       z     vdW  Elec       q    Type
REMARK                         _______ _______ _______ _____ _____    ______ ____
ROOT
ATOM      1  N   UNL     1       8.157   7.251  17.971  0.00  0.00    +0.000 NA
ATOM      2  C   UNL     1       8.153   5.905  18.601  0.00  0.00    +0.000 C 
ATOM      3  C   UNL     1       6.858   5.634  19.391  0.00  0.00    +0.000 C 
ATOM      4  N   UNL     1       5.731   5.823  18.501  0.00  0.00    +0.000 N 
ATOM      5  C   UNL     1       4.676   4.845  18.423  0.00  0.00    +0.000 C 
ATOM      6  N   UNL     1       4.035   4.628  19.524  0.00  0.00    +0.000 NA
ATOM      7  C   UNL     1       2.930   3.832  19.917  0.00  0.00    +0.000 A 
ATOM      8  C   UNL     1       2.546   3.987  21.265  0.00  0.00    +0.000 A 
ATOM      9  C   UNL     1       1.472   3.289  21.812  0.00  0.00    +0.000 A 
ATOM     10  C   UNL     1       0.751   2.407  21.021  0.00  0.00    +0.000 A 
ATOM     11  C   UNL     1       1.104   2.231  19.686  0.00  0.00    +0.000 A 
ATOM     12  C   UNL     1       2.185   2.935  19.106  0.00  0.00    +0.000 A 
ATOM     13  C   UNL     1       2.393   2.623  17.653  0.00  0.00    +0.000 C 
ATOM     14  C   UNL     1       3.453   3.263  16.820  0.00  0.00    +0.000 C 
ATOM     15  C   UNL     1       4.390   4.181  17.110  0.00  0.00    +0.000 C 
ATOM     16  C   UNL     1       5.641   7.125  17.856  0.00  0.00    +0.000 C 
ATOM     17  C   UNL     1       6.957   7.454  17.123  0.00  0.00    +0.000 C 
ENDROOT
BRANCH  15  18
ATOM     18  C   UNL     1       5.314   4.500  16.008  0.00  0.00    +0.000 A 
ATOM     19  C   UNL     1       6.620   3.993  15.999  0.00  0.00    +0.000 A 
ATOM     20  C   UNL     1       7.461   4.250  14.914  0.00  0.00    +0.000 A 
ATOM     21  C   UNL     1       7.007   5.030  13.832  0.00  0.00    +0.000 A 
ATOM     22  C   UNL     1       5.710   5.570  13.870  0.00  0.00    +0.000 A 
ATOM     23  C   UNL     1       4.867   5.302  14.950  0.00  0.00    +0.000 A 
BRANCH  21  24
ATOM     24  C   UNL     1       7.866   5.282  12.622  0.00  0.00    +0.000 C 
ATOM     25  F   UNL     1       7.490   6.439  11.962  0.00  0.00    +0.000 F 
ATOM     26  F   UNL     1       9.183   5.417  13.023  0.00  0.00    +0.000 F 
ATOM     27  F   UNL     1       7.766   4.215  11.749  0.00  0.00    +0.000 F 
ENDBRANCH  21  24
ENDBRANCH  15  18
BRANCH   1  29
ATOM     28  C   UNL     1       8.452   9.715  18.133  0.00  0.00    +0.000 C 
ATOM     29  C   UNL     1       8.465   8.379  18.883  0.00  0.00    +0.000 C 
ENDBRANCH   1  29
TORSDOF 3
ENDMDL
