MODEL 1
REMARK VINA RESULT:      -7.0      0.000      0.000
REMARK  Name = 
REMARK  5 active torsions:
REMARK  status: ('A' for Active; 'I' for Inactive)
REMARK    1  A    between atoms: C_1  and  C_2
REMARK    2  A    between atoms: C_2  and  O_3
REMARK    3  A    between atoms: O_3  and  C_4
REMARK    4  A    between atoms: C_7  and  C_8
REMARK    5  A    between atoms: C_22  and  C_23
REMARK                            x       y       z     vdW  Elec       q    Type
REMARK                         _______ _______ _______ _____ _____    ______ ____
ROOT
ATOM      1  C   UNL     1      -0.711  14.412  22.179  0.00  0.00    +0.000 C 
ATOM      2  O   UNL     1      -0.358  14.636  23.353  0.00  0.00    +0.000 OA
ATOM      3  N   UNL     1      -2.068  14.171  21.796  0.00  0.00    +0.000 N 
ATOM      4  C   UNL     1      -2.968  14.645  22.868  0.00  0.00    +0.000 C 
ATOM      5  C   UNL     1      -3.567  13.386  23.452  0.00  0.00    +0.000 C 
ATOM      6  N   UNL     1      -3.666  12.563  22.276  0.00  0.00    +0.000 N 
ATOM      7  C   UNL     1      -4.897  12.746  21.616  0.00  0.00    +0.000 C 
ATOM      8  O   UNL     1      -5.988  12.982  22.111  0.00  0.00    +0.000 OA
ATOM      9  C   UNL     1      -4.672  12.690  20.190  0.00  0.00    +0.000 A 
ATOM     10  C   UNL     1      -5.682  12.401  19.261  0.00  0.00    +0.000 A 
ATOM     11  C   UNL     1      -5.327  11.774  18.076  0.00  0.00    +0.000 A 
ATOM     12  C   UNL     1      -3.996  11.438  17.879  0.00  0.00    +0.000 A 
ATOM     13  C   UNL     1      -3.014  11.821  18.815  0.00  0.00    +0.000 A 
ATOM     14  C   UNL     1      -3.307  12.549  19.985  0.00  0.00    +0.000 A 
ATOM     15  C   UNL     1      -2.512  12.776  21.340  0.00  0.00    +0.000 C 
ENDROOT
BRANCH  15  16
ATOM     16  C   UNL     1      -1.356  11.754  21.445  0.00  0.00    +0.000 A 
ATOM     17  C   UNL     1      -0.614  11.413  20.289  0.00  0.00    +0.000 A 
ATOM     18  C   UNL     1       0.154  10.261  20.211  0.00  0.00    +0.000 A 
ATOM     19  C   UNL     1       0.384   9.549  21.368  0.00  0.00    +0.000 A 
ATOM     20 CL   UNL     1       1.212   8.048  21.289  0.00  0.00    +0.000 Cl
ATOM     21  C   UNL     1      -0.064  10.054  22.589  0.00  0.00    +0.000 A 
ATOM     22  C   UNL     1      -0.944  11.146  22.629  0.00  0.00    +0.000 A 
ENDBRANCH  15  16
BRANCH   1  26
ATOM     23  C   UNL     1       2.241  14.251  19.110  0.00  0.00    +0.000 A 
ATOM     24  C   UNL     1       2.561  13.871  20.414  0.00  0.00    +0.000 A 
ATOM     25  C   UNL     1       1.605  13.966  21.424  0.00  0.00    +0.000 A 
ATOM     26  C   UNL     1       0.322  14.445  21.126  0.00  0.00    +0.000 A 
ATOM     27  C   UNL     1       0.034  14.927  19.848  0.00  0.00    +0.000 A 
ATOM     28  C   UNL     1       0.993  14.822  18.838  0.00  0.00    +0.000 A 
BRANCH  23  29
ATOM     29  O   UNL     1       3.212  14.020  18.176  0.00  0.00    +0.000 OA
BRANCH  29  31
ATOM     30  C   UNL     1       5.453  14.782  17.869  0.00  0.00    +0.000 C 
ATOM     31  C   UNL     1       3.986  15.162  17.808  0.00  0.00    +0.000 C 
ENDBRANCH  29  31
ENDBRANCH  23  29
ENDBRANCH   1  26
TORSDOF 4
ENDMDL
MODEL 2
REMARK VINA RESULT:      -6.9      1.072      1.309
REMARK  Name = 
REMARK  5 active torsions:
REMARK  status: ('A' for Active; 'I' for Inactive)
REMARK    1  A    between atoms: C_1  and  C_2
REMARK    2  A    between atoms: C_2  and  O_3
REMARK    3  A    between atoms: O_3  and  C_4
REMARK    4  A    between atoms: C_7  and  C_8
REMARK    5  A    between atoms: C_22  and  C_23
REMARK                            x       y       z     vdW  Elec       q    Type
REMARK                         _______ _______ _______ _____ _____    ______ ____
ROOT
ATOM      1  C   UNL     1      -1.228  14.651  22.906  0.00  0.00    +0.000 C 
ATOM      2  O   UNL     1      -0.736  14.781  24.044  0.00  0.00    +0.000 OA
ATOM      3  N   UNL     1      -2.615  14.390  22.671  0.00  0.00    +0.000 N 
ATOM      4  C   UNL     1      -3.385  14.727  23.887  0.00  0.00    +0.000 C 
ATOM      5  C   UNL     1      -3.868  13.395  24.416  0.00  0.00    +0.000 C 
ATOM      6  N   UNL     1      -4.091  12.680  23.188  0.00  0.00    +0.000 N 
ATOM      7  C   UNL     1      -5.401  12.872  22.705  0.00  0.00    +0.000 C 
ATOM      8  O   UNL     1      -6.427  13.016  23.351  0.00  0.00    +0.000 OA
ATOM      9  C   UNL     1      -5.356  12.956  21.263  0.00  0.00    +0.000 A 
ATOM     10  C   UNL     1      -6.466  12.712  20.442  0.00  0.00    +0.000 A 
ATOM     11  C   UNL     1      -6.246  12.212  19.167  0.00  0.00    +0.000 A 
ATOM     12  C   UNL     1      -4.941  11.951  18.777  0.00  0.00    +0.000 A 
ATOM     13  C   UNL     1      -3.860  12.286  19.617  0.00  0.00    +0.000 A 
ATOM     14  C   UNL     1      -4.024  12.891  20.879  0.00  0.00    +0.000 A 
ATOM     15  C   UNL     1      -3.072  13.025  22.141  0.00  0.00    +0.000 C 
ENDROOT
BRANCH  15  16
ATOM     16  C   UNL     1      -1.882  12.047  22.005  0.00  0.00    +0.000 A 
ATOM     17  C   UNL     1      -1.280  11.848  20.740  0.00  0.00    +0.000 A 
ATOM     18  C   UNL     1      -0.494  10.741  20.456  0.00  0.00    +0.000 A 
ATOM     19  C   UNL     1      -0.100   9.933  21.501  0.00  0.00    +0.000 A 
ATOM     20 CL   UNL     1       0.755   8.482  21.175  0.00  0.00    +0.000 Cl
ATOM     21  C   UNL     1      -0.408  10.302  22.811  0.00  0.00    +0.000 A 
ATOM     22  C   UNL     1      -1.307  11.348  23.064  0.00  0.00    +0.000 A 
ENDBRANCH  15  16
BRANCH   1  26
ATOM     23  C   UNL     1       1.340  14.890  19.514  0.00  0.00    +0.000 A 
ATOM     24  C   UNL     1       1.855  14.540  20.763  0.00  0.00    +0.000 A 
ATOM     25  C   UNL     1       1.020  14.504  21.878  0.00  0.00    +0.000 A 
ATOM     26  C   UNL     1      -0.337  14.824  21.742  0.00  0.00    +0.000 A 
ATOM     27  C   UNL     1      -0.831  15.279  20.518  0.00  0.00    +0.000 A 
ATOM     28  C   UNL     1       0.008  15.304  19.402  0.00  0.00    +0.000 A 
BRANCH  23  29
ATOM     29  O   UNL     1       2.215  14.792  18.469  0.00  0.00    +0.000 OA
BRANCH  29  31
ATOM     30  C   UNL     1       2.231  12.423  18.179  0.00  0.00    +0.000 C 
ATOM     31  C   UNL     1       3.068  13.647  18.494  0.00  0.00    +0.000 C 
ENDBRANCH  29  31
ENDBRANCH  23  29
ENDBRANCH   1  26
TORSDOF 4
ENDMDL
MODEL 3
REMARK VINA RESULT:      -6.8      1.135      1.330
REMARK  Name = 
REMARK  5 active torsions:
REMARK  status: ('A' for Active; 'I' for Inactive)
REMARK    1  A    between atoms: C_1  and  C_2
REMARK    2  A    between atoms: C_2  and  O_3
REMARK    3  A    between atoms: O_3  and  C_4
REMARK    4  A    between atoms: C_7  and  C_8
REMARK    5  A    between atoms: C_22  and  C_23
REMARK                            x       y       z     vdW  Elec       q    Type
REMARK                         _______ _______ _______ _____ _____    ______ ____
ROOT
ATOM      1  C   UNL     1      -2.043  14.899  22.326  0.00  0.00    +0.000 C 
ATOM      2  O   UNL     1      -1.897  15.214  23.523  0.00  0.00    +0.000 OA
ATOM      3  N   UNL     1      -3.277  14.423  21.781  0.00  0.00    +0.000 N 
ATOM      4  C   UNL     1      -4.381  14.773  22.699  0.00  0.00    +0.000 C 
ATOM      5  C   UNL     1      -4.844  13.450  23.265  0.00  0.00    +0.000 C 
ATOM      6  N   UNL     1      -4.646  12.586  22.131  0.00  0.00    +0.000 N 
ATOM      7  C   UNL     1      -5.787  12.541  21.306  0.00  0.00    +0.000 C 
ATOM      8  O   UNL     1      -6.960  12.606  21.641  0.00  0.00    +0.000 OA
ATOM      9  C   UNL     1      -5.360  12.480  19.927  0.00  0.00    +0.000 A 
ATOM     10  C   UNL     1      -6.172  11.998  18.890  0.00  0.00    +0.000 A 
ATOM     11  C   UNL     1      -5.560  11.403  17.797  0.00  0.00    +0.000 A 
ATOM     12  C   UNL     1      -4.178  11.288  17.795  0.00  0.00    +0.000 A 
ATOM     13  C   UNL     1      -3.410  11.858  18.831  0.00  0.00    +0.000 A 
ATOM     14  C   UNL     1      -3.975  12.562  19.911  0.00  0.00    +0.000 A 
ATOM     15  C   UNL     1      -3.423  12.960  21.345  0.00  0.00    +0.000 C 
ENDROOT
BRANCH  15  16
ATOM     16  C   UNL     1      -2.143  12.149  21.656  0.00  0.00    +0.000 A 
ATOM     17  C   UNL     1      -1.203  11.901  20.627  0.00  0.00    +0.000 A 
ATOM     18  C   UNL     1      -0.256  10.892  20.712  0.00  0.00    +0.000 A 
ATOM     19  C   UNL     1      -0.076  10.265  21.926  0.00  0.00    +0.000 A 
ATOM     20 CL   UNL     1       0.986   8.921  22.036  0.00  0.00    +0.000 Cl
ATOM     21  C   UNL     1      -0.765  10.725  23.048  0.00  0.00    +0.000 A 
ATOM     22  C   UNL     1      -1.806  11.656  22.914  0.00  0.00    +0.000 A 
ENDBRANCH  15  16
BRANCH   1  26
ATOM     23  C   UNL     1       1.291  15.139  19.683  0.00  0.00    +0.000 A 
ATOM     24  C   UNL     1       1.483  14.845  21.033  0.00  0.00    +0.000 A 
ATOM     25  C   UNL     1       0.395  14.809  21.904  0.00  0.00    +0.000 A 
ATOM     26  C   UNL     1      -0.893  15.072  21.419  0.00  0.00    +0.000 A 
ATOM     27  C   UNL     1      -1.074  15.473  20.093  0.00  0.00    +0.000 A 
ATOM     28  C   UNL     1       0.019  15.498  19.224  0.00  0.00    +0.000 A 
BRANCH  23  29
ATOM     29  O   UNL     1       2.404  15.045  18.897  0.00  0.00    +0.000 OA
BRANCH  29  31
ATOM     30  C   UNL     1       2.396  12.768  18.180  0.00  0.00    +0.000 C 
ATOM     31  C   UNL     1       3.122  13.815  19.001  0.00  0.00    +0.000 C 
ENDBRANCH  29  31
ENDBRANCH  23  29
ENDBRANCH   1  26
TORSDOF 4
ENDMDL
MODEL 4
REMARK VINA RESULT:      -6.8      1.204      1.546
REMARK  Name = 
REMARK  5 active torsions:
REMARK  status: ('A' for Active; 'I' for Inactive)
REMARK    1  A    between atoms: C_1  and  C_2
REMARK    2  A    between atoms: C_2  and  O_3
REMARK    3  A    between atoms: O_3  and  C_4
REMARK    4  A    between atoms: C_7  and  C_8
REMARK    5  A    between atoms: C_22  and  C_23
REMARK                            x       y       z     vdW  Elec       q    Type
REMARK                         _______ _______ _______ _____ _____    ______ ____
ROOT
ATOM      1  C   UNL     1      -1.146  14.585  22.831  0.00  0.00    +0.000 C 
ATOM      2  O   UNL     1      -0.667  14.725  23.973  0.00  0.00    +0.000 OA
ATOM      3  N   UNL     1      -2.535  14.354  22.581  0.00  0.00    +0.000 N 
ATOM      4  C   UNL     1      -3.315  14.735  23.778  0.00  0.00    +0.000 C 
ATOM      5  C   UNL     1      -3.839  13.428  24.327  0.00  0.00    +0.000 C 
ATOM      6  N   UNL     1      -4.062  12.693  23.110  0.00  0.00    +0.000 N 
ATOM      7  C   UNL     1      -5.359  12.908  22.604  0.00  0.00    +0.000 C 
ATOM      8  O   UNL     1      -6.391  13.091  23.232  0.00  0.00    +0.000 OA
ATOM      9  C   UNL     1      -5.292  12.961  21.162  0.00  0.00    +0.000 A 
ATOM     10  C   UNL     1      -6.396  12.728  20.329  0.00  0.00    +0.000 A 
ATOM     11  C   UNL     1      -6.170  12.196  19.068  0.00  0.00    +0.000 A 
ATOM     12  C   UNL     1      -4.867  11.894  18.702  0.00  0.00    +0.000 A 
ATOM     13  C   UNL     1      -3.790  12.219  19.552  0.00  0.00    +0.000 A 
ATOM     14  C   UNL     1      -3.957  12.854  20.799  0.00  0.00    +0.000 A 
ATOM     15  C   UNL     1      -3.020  12.991  22.072  0.00  0.00    +0.000 C 
ENDROOT
BRANCH  15  16
ATOM     16  C   UNL     1      -1.853  11.980  21.973  0.00  0.00    +0.000 A 
ATOM     17  C   UNL     1      -1.246  11.730  20.719  0.00  0.00    +0.000 A 
ATOM     18  C   UNL     1      -0.486  10.596  20.474  0.00  0.00    +0.000 A 
ATOM     19  C   UNL     1      -0.121   9.809  21.545  0.00  0.00    +0.000 A 
ATOM     20 CL   UNL     1       0.701   8.329  21.267  0.00  0.00    +0.000 Cl
ATOM     21  C   UNL     1      -0.429  10.222  22.841  0.00  0.00    +0.000 A 
ATOM     22  C   UNL     1      -1.304  11.298  23.057  0.00  0.00    +0.000 A 
ENDBRANCH  15  16
BRANCH   1  26
ATOM     23  C   UNL     1       1.512  15.200  19.558  0.00  0.00    +0.000 A 
ATOM     24  C   UNL     1       0.167  15.553  19.447  0.00  0.00    +0.000 A 
ATOM     25  C   UNL     1      -0.709  15.311  20.504  0.00  0.00    +0.000 A 
ATOM     26  C   UNL     1      -0.234  14.710  21.678  0.00  0.00    +0.000 A 
ATOM     27  C   UNL     1       1.085  14.258  21.749  0.00  0.00    +0.000 A 
ATOM     28  C   UNL     1       1.960  14.511  20.690  0.00  0.00    +0.000 A 
BRANCH  23  29
ATOM     29  O   UNL     1       2.306  15.575  18.511  0.00  0.00    +0.000 OA
BRANCH  29  31
ATOM     30  C   UNL     1       2.675  17.178  16.781  0.00  0.00    +0.000 C 
ATOM     31  C   UNL     1       2.344  16.978  18.246  0.00  0.00    +0.000 C 
ENDBRANCH  29  31
ENDBRANCH  23  29
ENDBRANCH   1  26
TORSDOF 4
ENDMDL
MODEL 5
REMARK VINA RESULT:      -6.7      1.293      1.569
REMARK  Name = 
REMARK  5 active torsions:
REMARK  status: ('A' for Active; 'I' for Inactive)
REMARK    1  A    between atoms: C_1  and  C_2
REMARK    2  A    between atoms: C_2  and  O_3
REMARK    3  A    between atoms: O_3  and  C_4
REMARK    4  A    between atoms: C_7  and  C_8
REMARK    5  A    between atoms: C_22  and  C_23
REMARK                            x       y       z     vdW  Elec       q    Type
REMARK                         _______ _______ _______ _____ _____    ______ ____
ROOT
ATOM      1  C   UNL     1      -1.433  14.672  23.221  0.00  0.00    +0.000 C 
ATOM      2  O   UNL     1      -0.887  14.723  24.340  0.00  0.00    +0.000 OA
ATOM      3  N   UNL     1      -2.821  14.382  23.032  0.00  0.00    +0.000 N 
ATOM      4  C   UNL     1      -3.538  14.586  24.309  0.00  0.00    +0.000 C 
ATOM      5  C   UNL     1      -3.950  13.198  24.744  0.00  0.00    +0.000 C 
ATOM      6  N   UNL     1      -4.213  12.581  23.470  0.00  0.00    +0.000 N 
ATOM      7  C   UNL     1      -5.551  12.766  23.070  0.00  0.00    +0.000 C 
ATOM      8  O   UNL     1      -6.547  12.817  23.776  0.00  0.00    +0.000 OA
ATOM      9  C   UNL     1      -5.584  12.973  21.641  0.00  0.00    +0.000 A 
ATOM     10  C   UNL     1      -6.727  12.759  20.857  0.00  0.00    +0.000 A 
ATOM     11  C   UNL     1      -6.557  12.377  19.535  0.00  0.00    +0.000 A 
ATOM     12  C   UNL     1      -5.266  12.197  19.060  0.00  0.00    +0.000 A 
ATOM     13  C   UNL     1      -4.155  12.500  19.873  0.00  0.00    +0.000 A 
ATOM     14  C   UNL     1      -4.272  12.989  21.188  0.00  0.00    +0.000 A 
ATOM     15  C   UNL     1      -3.261  13.051  22.409  0.00  0.00    +0.000 C 
ENDROOT
BRANCH  15  16
ATOM     16  C   UNL     1      -2.049  12.131  22.131  0.00  0.00    +0.000 A 
ATOM     17  C   UNL     1      -1.526  12.039  20.819  0.00  0.00    +0.000 A 
ATOM     18  C   UNL     1      -0.722  10.985  20.412  0.00  0.00    +0.000 A 
ATOM     19  C   UNL     1      -0.231  10.127  21.372  0.00  0.00    +0.000 A 
ATOM     20 CL   UNL     1       0.652   8.736  20.894  0.00  0.00    +0.000 Cl
ATOM     21  C   UNL     1      -0.464  10.397  22.721  0.00  0.00    +0.000 A 
ATOM     22  C   UNL     1      -1.380  11.389  23.102  0.00  0.00    +0.000 A 
ENDBRANCH  15  16
BRANCH   1  26
ATOM     23  C   UNL     1       0.923  15.295  19.726  0.00  0.00    +0.000 A 
ATOM     24  C   UNL     1       1.494  14.735  20.868  0.00  0.00    +0.000 A 
ATOM     25  C   UNL     1       0.732  14.571  22.023  0.00  0.00    +0.000 A 
ATOM     26  C   UNL     1      -0.610  14.975  22.034  0.00  0.00    +0.000 A 
ATOM     27  C   UNL     1      -1.153  15.634  20.930  0.00  0.00    +0.000 A 
ATOM     28  C   UNL     1      -0.387  15.787  19.772  0.00  0.00    +0.000 A 
BRANCH  23  29
ATOM     29  O   UNL     1       1.722  15.313  18.617  0.00  0.00    +0.000 OA
BRANCH  29  31
ATOM     30  C   UNL     1       3.220  16.484  17.175  0.00  0.00    +0.000 C 
ATOM     31  C   UNL     1       2.711  16.343  18.595  0.00  0.00    +0.000 C 
ENDBRANCH  29  31
ENDBRANCH  23  29
ENDBRANCH   1  26
TORSDOF 4
ENDMDL
MODEL 6
REMARK VINA RESULT:      -6.6      0.831      1.201
REMARK  Name = 
REMARK  5 active torsions:
REMARK  status: ('A' for Active; 'I' for Inactive)
REMARK    1  A    between atoms: C_1  and  C_2
REMARK    2  A    between atoms: C_2  and  O_3
REMARK    3  A    between atoms: O_3  and  C_4
REMARK    4  A    between atoms: C_7  and  C_8
REMARK    5  A    between atoms: C_22  and  C_23
REMARK                            x       y       z     vdW  Elec       q    Type
REMARK                         _______ _______ _______ _____ _____    ______ ____
ROOT
ATOM      1  C   UNL     1      -1.556  14.716  22.304  0.00  0.00    +0.000 C 
ATOM      2  O   UNL     1      -1.400  15.006  23.506  0.00  0.00    +0.000 OA
ATOM      3  N   UNL     1      -2.810  14.318  21.744  0.00  0.00    +0.000 N 
ATOM      4  C   UNL     1      -3.900  14.717  22.660  0.00  0.00    +0.000 C 
ATOM      5  C   UNL     1      -4.440  13.414  23.203  0.00  0.00    +0.000 C 
ATOM      6  N   UNL     1      -4.282  12.556  22.059  0.00  0.00    +0.000 N 
ATOM      7  C   UNL     1      -5.418  12.587  21.226  0.00  0.00    +0.000 C 
ATOM      8  O   UNL     1      -6.588  12.713  21.554  0.00  0.00    +0.000 OA
ATOM      9  C   UNL     1      -4.986  12.521  19.849  0.00  0.00    +0.000 A 
ATOM     10  C   UNL     1      -5.815  12.100  18.800  0.00  0.00    +0.000 A 
ATOM     11  C   UNL     1      -5.230  11.487  17.702  0.00  0.00    +0.000 A 
ATOM     12  C   UNL     1      -3.856  11.295  17.707  0.00  0.00    +0.000 A 
ATOM     13  C   UNL     1      -3.065  11.806  18.756  0.00  0.00    +0.000 A 
ATOM     14  C   UNL     1      -3.598  12.526  19.843  0.00  0.00    +0.000 A 
ATOM     15  C   UNL     1      -3.035  12.871  21.286  0.00  0.00    +0.000 C 
ENDROOT
BRANCH  15  16
ATOM     16  C   UNL     1      -1.805  11.986  21.593  0.00  0.00    +0.000 A 
ATOM     17  C   UNL     1      -0.860  11.720  20.573  0.00  0.00    +0.000 A 
ATOM     18  C   UNL     1       0.032  10.660  20.643  0.00  0.00    +0.000 A 
ATOM     19  C   UNL     1       0.156   9.988  21.840  0.00  0.00    +0.000 A 
ATOM     20 CL   UNL     1       1.145   8.589  21.926  0.00  0.00    +0.000 Cl
ATOM     21  C   UNL     1      -0.528  10.450  22.964  0.00  0.00    +0.000 A 
ATOM     22  C   UNL     1      -1.517  11.438  22.841  0.00  0.00    +0.000 A 
ENDBRANCH  15  16
BRANCH   1  26
ATOM     23  C   UNL     1       1.799  15.323  19.747  0.00  0.00    +0.000 A 
ATOM     24  C   UNL     1       0.505  15.533  19.271  0.00  0.00    +0.000 A 
ATOM     25  C   UNL     1      -0.592  15.293  20.096  0.00  0.00    +0.000 A 
ATOM     26  C   UNL     1      -0.391  14.837  21.406  0.00  0.00    +0.000 A 
ATOM     27  C   UNL     1       0.896  14.523  21.848  0.00  0.00    +0.000 A 
ATOM     28  C   UNL     1       1.992  14.775  21.020  0.00  0.00    +0.000 A 
BRANCH  23  29
ATOM     29  O   UNL     1       2.804  15.689  18.897  0.00  0.00    +0.000 OA
BRANCH  29  31
ATOM     30  C   UNL     1       4.839  14.944  17.895  0.00  0.00    +0.000 C 
ATOM     31  C   UNL     1       3.377  14.625  18.136  0.00  0.00    +0.000 C 
ENDBRANCH  29  31
ENDBRANCH  23  29
ENDBRANCH   1  26
TORSDOF 4
ENDMDL
MODEL 7
REMARK VINA RESULT:      -6.6      1.069      1.533
REMARK  Name = 
REMARK  5 active torsions:
REMARK  status: ('A' for Active; 'I' for Inactive)
REMARK    1  A    between atoms: C_1  and  C_2
REMARK    2  A    between atoms: C_2  and  O_3
REMARK    3  A    between atoms: O_3  and  C_4
REMARK    4  A    between atoms: C_7  and  C_8
REMARK    5  A    between atoms: C_22  and  C_23
REMARK                            x       y       z     vdW  Elec       q    Type
REMARK                         _______ _______ _______ _____ _____    ______ ____
ROOT
ATOM      1  C   UNL     1      -1.064  14.569  22.666  0.00  0.00    +0.000 C 
ATOM      2  O   UNL     1      -0.496  14.675  23.770  0.00  0.00    +0.000 OA
ATOM      3  N   UNL     1      -2.485  14.539  22.509  0.00  0.00    +0.000 N 
ATOM      4  C   UNL     1      -3.121  15.070  23.733  0.00  0.00    +0.000 C 
ATOM      5  C   UNL     1      -3.793  13.873  24.367  0.00  0.00    +0.000 C 
ATOM      6  N   UNL     1      -4.200  13.140  23.197  0.00  0.00    +0.000 N 
ATOM      7  C   UNL     1      -5.482  13.528  22.760  0.00  0.00    +0.000 C 
ATOM      8  O   UNL     1      -6.433  13.882  23.440  0.00  0.00    +0.000 OA
ATOM      9  C   UNL     1      -5.502  13.523  21.316  0.00  0.00    +0.000 A 
ATOM     10  C   UNL     1      -6.680  13.429  20.561  0.00  0.00    +0.000 A 
ATOM     11  C   UNL     1      -6.616  12.829  19.312  0.00  0.00    +0.000 A 
ATOM     12  C   UNL     1      -5.398  12.325  18.883  0.00  0.00    +0.000 A 
ATOM     13  C   UNL     1      -4.232  12.515  19.653  0.00  0.00    +0.000 A 
ATOM     14  C   UNL     1      -4.223  13.208  20.879  0.00  0.00    +0.000 A 
ATOM     15  C   UNL     1      -3.195  13.246  22.087  0.00  0.00    +0.000 C 
ENDROOT
BRANCH  15  16
ATOM     16  C   UNL     1      -2.197  12.071  21.962  0.00  0.00    +0.000 A 
ATOM     17  C   UNL     1      -1.839  11.329  23.113  0.00  0.00    +0.000 A 
ATOM     18  C   UNL     1      -0.699  10.541  23.164  0.00  0.00    +0.000 A 
ATOM     19  C   UNL     1      -0.024  10.290  21.989  0.00  0.00    +0.000 A 
ATOM     20 CL   UNL     1       1.464   9.436  22.033  0.00  0.00    +0.000 Cl
ATOM     21  C   UNL     1      -0.553  10.741  20.780  0.00  0.00    +0.000 A 
ATOM     22  C   UNL     1      -1.630  11.640  20.764  0.00  0.00    +0.000 A 
ENDBRANCH  15  16
BRANCH   1  26
ATOM     23  C   UNL     1       1.318  14.174  19.155  0.00  0.00    +0.000 A 
ATOM     24  C   UNL     1       1.826  13.790  20.395  0.00  0.00    +0.000 A 
ATOM     25  C   UNL     1       1.060  13.960  21.548  0.00  0.00    +0.000 A 
ATOM     26  C   UNL     1      -0.221  14.521  21.456  0.00  0.00    +0.000 A 
ATOM     27  C   UNL     1      -0.687  15.005  20.233  0.00  0.00    +0.000 A 
ATOM     28  C   UNL     1       0.081  14.824  19.080  0.00  0.00    +0.000 A 
BRANCH  23  29
ATOM     29  O   UNL     1       2.102  13.868  18.078  0.00  0.00    +0.000 OA
BRANCH  29  31
ATOM     30  C   UNL     1       3.568  15.634  17.423  0.00  0.00    +0.000 C 
ATOM     31  C   UNL     1       3.455  14.316  18.162  0.00  0.00    +0.000 C 
ENDBRANCH  29  31
ENDBRANCH  23  29
ENDBRANCH   1  26
TORSDOF 4
ENDMDL
MODEL 8
REMARK VINA RESULT:      -6.4      0.864      1.596
REMARK  Name = 
REMARK  5 active torsions:
REMARK  status: ('A' for Active; 'I' for Inactive)
REMARK    1  A    between atoms: C_1  and  C_2
REMARK    2  A    between atoms: C_2  and  O_3
REMARK    3  A    between atoms: O_3  and  C_4
REMARK    4  A    between atoms: C_7  and  C_8
REMARK    5  A    between atoms: C_22  and  C_23
REMARK                            x       y       z     vdW  Elec       q    Type
REMARK                         _______ _______ _______ _____ _____    ______ ____
ROOT
ATOM      1  C   UNL     1      -0.797  14.467  22.303  0.00  0.00    +0.000 C 
ATOM      2  O   UNL     1      -0.266  14.648  23.416  0.00  0.00    +0.000 OA
ATOM      3  N   UNL     1      -2.211  14.480  22.092  0.00  0.00    +0.000 N 
ATOM      4  C   UNL     1      -2.867  15.144  23.238  0.00  0.00    +0.000 C 
ATOM      5  C   UNL     1      -3.614  14.037  23.947  0.00  0.00    +0.000 C 
ATOM      6  N   UNL     1      -4.010  13.219  22.831  0.00  0.00    +0.000 N 
ATOM      7  C   UNL     1      -5.257  13.618  22.310  0.00  0.00    +0.000 C 
ATOM      8  O   UNL     1      -6.215  14.069  22.918  0.00  0.00    +0.000 OA
ATOM      9  C   UNL     1      -5.224  13.484  20.872  0.00  0.00    +0.000 A 
ATOM     10  C   UNL     1      -6.376  13.370  20.082  0.00  0.00    +0.000 A 
ATOM     11  C   UNL     1      -6.294  12.658  18.895  0.00  0.00    +0.000 A 
ATOM     12  C   UNL     1      -5.083  12.070  18.560  0.00  0.00    +0.000 A 
ATOM     13  C   UNL     1      -3.939  12.281  19.357  0.00  0.00    +0.000 A 
ATOM     14  C   UNL     1      -3.944  13.080  20.517  0.00  0.00    +0.000 A 
ATOM     15  C   UNL     1      -2.961  13.184  21.758  0.00  0.00    +0.000 C 
ENDROOT
BRANCH  15  16
ATOM     16  C   UNL     1      -2.012  11.963  21.776  0.00  0.00    +0.000 A 
ATOM     17  C   UNL     1      -1.730  11.313  23.001  0.00  0.00    +0.000 A 
ATOM     18  C   UNL     1      -0.628  10.487  23.168  0.00  0.00    +0.000 A 
ATOM     19  C   UNL     1       0.079  10.106  22.048  0.00  0.00    +0.000 A 
ATOM     20 CL   UNL     1       1.525   9.199  22.228  0.00  0.00    +0.000 Cl
ATOM     21  C   UNL     1      -0.384  10.469  20.784  0.00  0.00    +0.000 A 
ATOM     22  C   UNL     1      -1.420  11.405  20.645  0.00  0.00    +0.000 A 
ENDBRANCH  15  16
BRANCH   1  26
ATOM     23  C   UNL     1       1.814  14.169  18.948  0.00  0.00    +0.000 A 
ATOM     24  C   UNL     1       0.521  14.669  18.791  0.00  0.00    +0.000 A 
ATOM     25  C   UNL     1      -0.345  14.725  19.881  0.00  0.00    +0.000 A 
ATOM     26  C   UNL     1       0.087  14.276  21.137  0.00  0.00    +0.000 A 
ATOM     27  C   UNL     1       1.341  13.677  21.273  0.00  0.00    +0.000 A 
ATOM     28  C   UNL     1       2.207  13.631  20.179  0.00  0.00    +0.000 A 
BRANCH  23  29
ATOM     29  O   UNL     1       2.616  14.256  17.845  0.00  0.00    +0.000 OA
BRANCH  29  31
ATOM     30  C   UNL     1       3.244  16.509  17.369  0.00  0.00    +0.000 C 
ATOM     31  C   UNL     1       3.697  15.183  17.948  0.00  0.00    +0.000 C 
ENDBRANCH  29  31
ENDBRANCH  23  29
ENDBRANCH   1  26
TORSDOF 4
ENDMDL
MODEL 9
REMARK VINA RESULT:      -6.4      1.110      1.404
REMARK  Name = 
REMARK  5 active torsions:
REMARK  status: ('A' for Active; 'I' for Inactive)
REMARK    1  A    between atoms: C_1  and  C_2
REMARK    2  A    between atoms: C_2  and  O_3
REMARK    3  A    between atoms: O_3  and  C_4
REMARK    4  A    between atoms: C_7  and  C_8
REMARK    5  A    between atoms: C_22  and  C_23
REMARK                            x       y       z     vdW  Elec       q    Type
REMARK                         _______ _______ _______ _____ _____    ______ ____
ROOT
ATOM      1  C   UNL     1      -1.041  14.339  21.161  0.00  0.00    +0.000 C 
ATOM      2  O   UNL     1      -1.073  14.688  22.357  0.00  0.00    +0.000 OA
ATOM      3  N   UNL     1      -2.198  13.925  20.429  0.00  0.00    +0.000 N 
ATOM      4  C   UNL     1      -3.412  14.380  21.139  0.00  0.00    +0.000 C 
ATOM      5  C   UNL     1      -4.054  13.111  21.653  0.00  0.00    +0.000 C 
ATOM      6  N   UNL     1      -3.732  12.195  20.591  0.00  0.00    +0.000 N 
ATOM      7  C   UNL     1      -4.720  12.194  19.587  0.00  0.00    +0.000 C 
ATOM      8  O   UNL     1      -5.925  12.347  19.718  0.00  0.00    +0.000 OA
ATOM      9  C   UNL     1      -4.077  12.054  18.302  0.00  0.00    +0.000 A 
ATOM     10  C   UNL     1      -4.737  11.588  17.156  0.00  0.00    +0.000 A 
ATOM     11  C   UNL     1      -3.995  10.914  16.196  0.00  0.00    +0.000 A 
ATOM     12  C   UNL     1      -2.644  10.710  16.429  0.00  0.00    +0.000 A 
ATOM     13  C   UNL     1      -2.020  11.266  17.564  0.00  0.00    +0.000 A 
ATOM     14  C   UNL     1      -2.705  12.045  18.517  0.00  0.00    +0.000 A 
ATOM     15  C   UNL     1      -2.372  12.459  20.012  0.00  0.00    +0.000 C 
ENDROOT
BRANCH  15  16
ATOM     16  C   UNL     1      -1.222  11.578  20.554  0.00  0.00    +0.000 A 
ATOM     17  C   UNL     1      -0.193  11.153  19.680  0.00  0.00    +0.000 A 
ATOM     18  C   UNL     1       0.637  10.081  19.973  0.00  0.00    +0.000 A 
ATOM     19  C   UNL     1       0.609   9.563  21.250  0.00  0.00    +0.000 A 
ATOM     20 CL   UNL     1       1.517   8.153  21.612  0.00  0.00    +0.000 Cl
ATOM     21  C   UNL     1      -0.163  10.187  22.230  0.00  0.00    +0.000 A 
ATOM     22  C   UNL     1      -1.086  11.185  21.883  0.00  0.00    +0.000 A 
ENDBRANCH  15  16
BRANCH   1  26
ATOM     23  C   UNL     1       2.692  14.264  19.108  0.00  0.00    +0.000 A 
ATOM     24  C   UNL     1       2.636  13.993  20.475  0.00  0.00    +0.000 A 
ATOM     25  C   UNL     1       1.420  14.060  21.153  0.00  0.00    +0.000 A 
ATOM     26  C   UNL     1       0.253  14.403  20.456  0.00  0.00    +0.000 A 
ATOM     27  C   UNL     1       0.324  14.780  19.113  0.00  0.00    +0.000 A 
ATOM     28  C   UNL     1       1.544  14.702  18.438  0.00  0.00    +0.000 A 
BRANCH  23  29
ATOM     29  O   UNL     1       3.909  14.067  18.519  0.00  0.00    +0.000 OA
BRANCH  29  31
ATOM     30  C   UNL     1       6.046  14.917  17.878  0.00  0.00    +0.000 C 
ATOM     31  C   UNL     1       4.926  14.995  18.897  0.00  0.00    +0.000 C 
ENDBRANCH  29  31
ENDBRANCH  23  29
ENDBRANCH   1  26
TORSDOF 4
ENDMDL
