MODEL 1
REMARK VINA RESULT:      -6.6      0.000      0.000
REMARK  Name = 
REMARK  9 active torsions:
REMARK  status: ('A' for Active; 'I' for Inactive)
REMARK    1  A    between atoms: C_1  and  C_2
REMARK    2  A    between atoms: C_2  and  C_3
REMARK    3  A    between atoms: C_2  and  C_4
REMARK    4  A    between atoms: C_6  and  C_7
REMARK    5  A    between atoms: C_7  and  N_8
REMARK    6  A    between atoms: N_8  and  C_9
REMARK    7  A    between atoms: N_8  and  C_10
REMARK    8  A    between atoms: C_10  and  C_11
REMARK    9  A    between atoms: N_15  and  C_16
REMARK                            x       y       z     vdW  Elec       q    Type
REMARK                         _______ _______ _______ _____ _____    ______ ____
ROOT
ATOM      1  C   UNL     1       6.225   5.619  16.401  0.00  0.00    +0.000 C 
ENDROOT
BRANCH   1   4
ATOM      2  C   UNL     1       6.163   3.888  13.328  0.00  0.00    +0.000 A 
ATOM      3  N   UNL     1       5.610   4.111  14.497  0.00  0.00    +0.000 NA
ATOM      4  C   UNL     1       6.444   5.065  15.030  0.00  0.00    +0.000 A 
ATOM      5  N   UNL     1       7.462   5.431  14.236  0.00  0.00    +0.000 NA
ATOM      6  O   UNL     1       7.274   4.644  13.095  0.00  0.00    +0.000 OA
BRANCH   2   8
ATOM      7  C   UNL     1       4.583   3.365  11.521  0.00  0.00    +0.000 C 
ATOM      8  C   UNL     1       5.799   2.871  12.307  0.00  0.00    +0.000 C 
ATOM      9  C   UNL     1       6.969   2.593  11.364  0.00  0.00    +0.000 C 
ENDBRANCH   2   8
ENDBRANCH   1   4
BRANCH   1  10
ATOM     10  N   UNL     1       6.393   4.585  17.455  0.00  0.00    +0.000 NA
ATOM     11  C   UNL     1       7.735   4.678  18.054  0.00  0.00    +0.000 C 
BRANCH  10  12
ATOM     12  C   UNL     1       5.377   4.745  18.505  0.00  0.00    +0.000 C 
BRANCH  12  13
ATOM     13  C   UNL     1       4.012   4.307  18.089  0.00  0.00    +0.000 A 
ATOM     14  C   UNL     1       3.582   3.058  17.686  0.00  0.00    +0.000 A 
ATOM     15  N   UNL     1       2.255   3.067  17.356  0.00  0.00    +0.000 NA
ATOM     16  C   UNL     1       1.865   4.304  17.561  0.00  0.00    +0.000 A 
ATOM     17  N   UNL     1       2.881   5.088  18.023  0.00  0.00    +0.000 N 
ATOM     18  C   UNL     1       2.730   6.478  18.383  0.00  0.00    +0.000 C 
ENDBRANCH  12  13
ENDBRANCH  10  12
ENDBRANCH   1  10
TORSDOF 5
ENDMDL
MODEL 2
REMARK VINA RESULT:      -6.5      1.251      1.306
REMARK  Name = 
REMARK  9 active torsions:
REMARK  status: ('A' for Active; 'I' for Inactive)
REMARK    1  A    between atoms: C_1  and  C_2
REMARK    2  A    between atoms: C_2  and  C_3
REMARK    3  A    between atoms: C_2  and  C_4
REMARK    4  A    between atoms: C_6  and  C_7
REMARK    5  A    between atoms: C_7  and  N_8
REMARK    6  A    between atoms: N_8  and  C_9
REMARK    7  A    between atoms: N_8  and  C_10
REMARK    8  A    between atoms: C_10  and  C_11
REMARK    9  A    between atoms: N_15  and  C_16
REMARK                            x       y       z     vdW  Elec       q    Type
REMARK                         _______ _______ _______ _____ _____    ______ ____
ROOT
ATOM      1  C   UNL     1       5.529   5.810  17.362  0.00  0.00    +0.000 C 
ENDROOT
BRANCH   1   4
ATOM      2  C   UNL     1       6.393   4.520  14.194  0.00  0.00    +0.000 A 
ATOM      3  N   UNL     1       5.515   4.605  15.166  0.00  0.00    +0.000 NA
ATOM      4  C   UNL     1       6.151   5.441  16.053  0.00  0.00    +0.000 A 
ATOM      5  N   UNL     1       7.359   5.869  15.658  0.00  0.00    +0.000 NA
ATOM      6  O   UNL     1       7.522   5.254  14.412  0.00  0.00    +0.000 OA
BRANCH   2   8
ATOM      7  C   UNL     1       4.912   3.589  12.470  0.00  0.00    +0.000 C 
ATOM      8  C   UNL     1       6.353   3.668  12.977  0.00  0.00    +0.000 C 
ATOM      9  C   UNL     1       7.274   4.218  11.889  0.00  0.00    +0.000 C 
ENDBRANCH   2   8
ENDBRANCH   1   4
BRANCH   1  10
ATOM     10  N   UNL     1       5.998   4.938  18.469  0.00  0.00    +0.000 NA
ATOM     11  C   UNL     1       7.119   5.572  19.182  0.00  0.00    +0.000 C 
BRANCH  10  12
ATOM     12  C   UNL     1       4.906   4.670  19.416  0.00  0.00    +0.000 C 
BRANCH  12  13
ATOM     13  C   UNL     1       3.783   3.881  18.827  0.00  0.00    +0.000 A 
ATOM     14  C   UNL     1       3.832   2.828  17.935  0.00  0.00    +0.000 A 
ATOM     15  N   UNL     1       2.579   2.388  17.610  0.00  0.00    +0.000 NA
ATOM     16  C   UNL     1       1.764   3.153  18.300  0.00  0.00    +0.000 A 
ATOM     17  N   UNL     1       2.440   4.055  19.067  0.00  0.00    +0.000 N 
ATOM     18  C   UNL     1       1.804   4.988  19.967  0.00  0.00    +0.000 C 
ENDBRANCH  12  13
ENDBRANCH  10  12
ENDBRANCH   1  10
TORSDOF 5
ENDMDL
MODEL 3
REMARK VINA RESULT:      -6.3      1.748      2.432
REMARK  Name = 
REMARK  9 active torsions:
REMARK  status: ('A' for Active; 'I' for Inactive)
REMARK    1  A    between atoms: C_1  and  C_2
REMARK    2  A    between atoms: C_2  and  C_3
REMARK    3  A    between atoms: C_2  and  C_4
REMARK    4  A    between atoms: C_6  and  C_7
REMARK    5  A    between atoms: C_7  and  N_8
REMARK    6  A    between atoms: N_8  and  C_9
REMARK    7  A    between atoms: N_8  and  C_10
REMARK    8  A    between atoms: C_10  and  C_11
REMARK    9  A    between atoms: N_15  and  C_16
REMARK                            x       y       z     vdW  Elec       q    Type
REMARK                         _______ _______ _______ _____ _____    ______ ____
ROOT
ATOM      1  C   UNL     1       5.332   5.427  17.289  0.00  0.00    +0.000 C 
ENDROOT
BRANCH   1   4
ATOM      2  C   UNL     1       6.604   4.573  14.112  0.00  0.00    +0.000 A 
ATOM      3  N   UNL     1       5.642   4.462  14.999  0.00  0.00    +0.000 NA
ATOM      4  C   UNL     1       6.101   5.263  16.017  0.00  0.00    +0.000 A 
ATOM      5  N   UNL     1       7.282   5.855  15.783  0.00  0.00    +0.000 NA
ATOM      6  O   UNL     1       7.620   5.394  14.506  0.00  0.00    +0.000 OA
BRANCH   2   8
ATOM      7  C   UNL     1       5.395   3.374  12.341  0.00  0.00    +0.000 C 
ATOM      8  C   UNL     1       6.766   3.853  12.821  0.00  0.00    +0.000 C 
ATOM      9  C   UNL     1       7.420   4.748  11.770  0.00  0.00    +0.000 C 
ENDBRANCH   2   8
ENDBRANCH   1   4
BRANCH   1  10
ATOM     10  N   UNL     1       4.509   4.231  17.604  0.00  0.00    +0.000 NA
ATOM     11  C   UNL     1       4.794   3.757  18.968  0.00  0.00    +0.000 C 
BRANCH  10  12
ATOM     12  C   UNL     1       3.077   4.539  17.482  0.00  0.00    +0.000 C 
BRANCH  12  13
ATOM     13  C   UNL     1       2.383   4.688  18.795  0.00  0.00    +0.000 A 
ATOM     14  C   UNL     1       2.398   5.755  19.672  0.00  0.00    +0.000 A 
ATOM     15  N   UNL     1       1.653   5.496  20.789  0.00  0.00    +0.000 NA
ATOM     16  C   UNL     1       1.175   4.287  20.602  0.00  0.00    +0.000 A 
ATOM     17  N   UNL     1       1.567   3.764  19.405  0.00  0.00    +0.000 N 
ATOM     18  C   UNL     1       1.151   2.472  18.912  0.00  0.00    +0.000 C 
ENDBRANCH  12  13
ENDBRANCH  10  12
ENDBRANCH   1  10
TORSDOF 5
ENDMDL
MODEL 4
REMARK VINA RESULT:      -6.2      1.163      1.772
REMARK  Name = 
REMARK  9 active torsions:
REMARK  status: ('A' for Active; 'I' for Inactive)
REMARK    1  A    between atoms: C_1  and  C_2
REMARK    2  A    between atoms: C_2  and  C_3
REMARK    3  A    between atoms: C_2  and  C_4
REMARK    4  A    between atoms: C_6  and  C_7
REMARK    5  A    between atoms: C_7  and  N_8
REMARK    6  A    between atoms: N_8  and  C_9
REMARK    7  A    between atoms: N_8  and  C_10
REMARK    8  A    between atoms: C_10  and  C_11
REMARK    9  A    between atoms: N_15  and  C_16
REMARK                            x       y       z     vdW  Elec       q    Type
REMARK                         _______ _______ _______ _____ _____    ______ ____
ROOT
ATOM      1  C   UNL     1       5.917   5.482  16.192  0.00  0.00    +0.000 C 
ENDROOT
BRANCH   1   4
ATOM      2  C   UNL     1       6.149   4.140  12.938  0.00  0.00    +0.000 A 
ATOM      3  N   UNL     1       5.423   4.354  14.011  0.00  0.00    +0.000 NA
ATOM      4  C   UNL     1       6.300   5.042  14.815  0.00  0.00    +0.000 A 
ATOM      5  N   UNL     1       7.510   5.258  14.277  0.00  0.00    +0.000 NA
ATOM      6  O   UNL     1       7.409   4.656  13.018  0.00  0.00    +0.000 OA
BRANCH   2   8
ATOM      7  C   UNL     1       6.445   1.954  11.858  0.00  0.00    +0.000 C 
ATOM      8  C   UNL     1       5.811   3.340  11.732  0.00  0.00    +0.000 C 
ATOM      9  C   UNL     1       4.298   3.223  11.553  0.00  0.00    +0.000 C 
ENDBRANCH   2   8
ENDBRANCH   1   4
BRANCH   1  10
ATOM     10  N   UNL     1       6.218   4.447  17.214  0.00  0.00    +0.000 NA
ATOM     11  C   UNL     1       7.585   4.620  17.732  0.00  0.00    +0.000 C 
BRANCH  10  12
ATOM     12  C   UNL     1       5.260   4.524  18.327  0.00  0.00    +0.000 C 
BRANCH  12  13
ATOM     13  C   UNL     1       4.112   3.579  18.194  0.00  0.00    +0.000 A 
ATOM     14  C   UNL     1       3.167   3.491  17.190  0.00  0.00    +0.000 A 
ATOM     15  N   UNL     1       2.253   2.507  17.447  0.00  0.00    +0.000 NA
ATOM     16  C   UNL     1       2.632   1.985  18.592  0.00  0.00    +0.000 A 
ATOM     17  N   UNL     1       3.759   2.581  19.074  0.00  0.00    +0.000 N 
ATOM     18  C   UNL     1       4.431   2.179  20.287  0.00  0.00    +0.000 C 
ENDBRANCH  12  13
ENDBRANCH  10  12
ENDBRANCH   1  10
TORSDOF 5
ENDMDL
MODEL 5
REMARK VINA RESULT:      -6.2      1.463      1.835
REMARK  Name = 
REMARK  9 active torsions:
REMARK  status: ('A' for Active; 'I' for Inactive)
REMARK    1  A    between atoms: C_1  and  C_2
REMARK    2  A    between atoms: C_2  and  C_3
REMARK    3  A    between atoms: C_2  and  C_4
REMARK    4  A    between atoms: C_6  and  C_7
REMARK    5  A    between atoms: C_7  and  N_8
REMARK    6  A    between atoms: N_8  and  C_9
REMARK    7  A    between atoms: N_8  and  C_10
REMARK    8  A    between atoms: C_10  and  C_11
REMARK    9  A    between atoms: N_15  and  C_16
REMARK                            x       y       z     vdW  Elec       q    Type
REMARK                         _______ _______ _______ _____ _____    ______ ____
ROOT
ATOM      1  C   UNL     1       6.226   4.605  17.729  0.00  0.00    +0.000 C 
ENDROOT
BRANCH   1   4
ATOM      2  C   UNL     1       6.575   4.245  14.237  0.00  0.00    +0.000 A 
ATOM      3  N   UNL     1       5.991   3.861  15.348  0.00  0.00    +0.000 NA
ATOM      4  C   UNL     1       6.567   4.696  16.275  0.00  0.00    +0.000 A 
ATOM      5  N   UNL     1       7.459   5.565  15.776  0.00  0.00    +0.000 NA
ATOM      6  O   UNL     1       7.463   5.265  14.410  0.00  0.00    +0.000 OA
BRANCH   2   8
ATOM      7  C   UNL     1       4.996   3.628  12.458  0.00  0.00    +0.000 C 
ATOM      8  C   UNL     1       6.467   3.652  12.878  0.00  0.00    +0.000 C 
ATOM      9  C   UNL     1       7.299   4.438  11.866  0.00  0.00    +0.000 C 
ENDBRANCH   2   8
ENDBRANCH   1   4
BRANCH   1  10
ATOM     10  N   UNL     1       5.416   5.763  18.187  0.00  0.00    +0.000 NA
ATOM     11  C   UNL     1       4.647   6.326  17.065  0.00  0.00    +0.000 C 
BRANCH  10  12
ATOM     12  C   UNL     1       4.495   5.360  19.259  0.00  0.00    +0.000 C 
BRANCH  12  13
ATOM     13  C   UNL     1       3.946   3.981  19.090  0.00  0.00    +0.000 A 
ATOM     14  C   UNL     1       4.468   2.777  19.523  0.00  0.00    +0.000 A 
ATOM     15  N   UNL     1       3.679   1.725  19.145  0.00  0.00    +0.000 NA
ATOM     16  C   UNL     1       2.677   2.272  18.495  0.00  0.00    +0.000 A 
ATOM     17  N   UNL     1       2.779   3.631  18.452  0.00  0.00    +0.000 N 
ATOM     18  C   UNL     1       1.794   4.497  17.848  0.00  0.00    +0.000 C 
ENDBRANCH  12  13
ENDBRANCH  10  12
ENDBRANCH   1  10
TORSDOF 5
ENDMDL
MODEL 6
REMARK VINA RESULT:      -6.2      1.322      1.891
REMARK  Name = 
REMARK  9 active torsions:
REMARK  status: ('A' for Active; 'I' for Inactive)
REMARK    1  A    between atoms: C_1  and  C_2
REMARK    2  A    between atoms: C_2  and  C_3
REMARK    3  A    between atoms: C_2  and  C_4
REMARK    4  A    between atoms: C_6  and  C_7
REMARK    5  A    between atoms: C_7  and  N_8
REMARK    6  A    between atoms: N_8  and  C_9
REMARK    7  A    between atoms: N_8  and  C_10
REMARK    8  A    between atoms: C_10  and  C_11
REMARK    9  A    between atoms: N_15  and  C_16
REMARK                            x       y       z     vdW  Elec       q    Type
REMARK                         _______ _______ _______ _____ _____    ______ ____
ROOT
ATOM      1  C   UNL     1       6.894   4.438  16.774  0.00  0.00    +0.000 C 
ENDROOT
BRANCH   1   4
ATOM      2  C   UNL     1       6.560   4.194  13.271  0.00  0.00    +0.000 A 
ATOM      3  N   UNL     1       6.203   3.770  14.460  0.00  0.00    +0.000 NA
ATOM      4  C   UNL     1       6.946   4.579  15.286  0.00  0.00    +0.000 A 
ATOM      5  N   UNL     1       7.722   5.472  14.653  0.00  0.00    +0.000 NA
ATOM      6  O   UNL     1       7.462   5.217  13.302  0.00  0.00    +0.000 OA
BRANCH   2   8
ATOM      7  C   UNL     1       7.040   2.403  11.660  0.00  0.00    +0.000 C 
ATOM      8  C   UNL     1       6.192   3.645  11.939  0.00  0.00    +0.000 C 
ATOM      9  C   UNL     1       4.705   3.303  11.875  0.00  0.00    +0.000 C 
ENDBRANCH   2   8
ENDBRANCH   1   4
BRANCH   1  10
ATOM     10  N   UNL     1       5.708   5.116  17.358  0.00  0.00    +0.000 NA
ATOM     11  C   UNL     1       5.554   6.463  16.785  0.00  0.00    +0.000 C 
BRANCH  10  12
ATOM     12  C   UNL     1       4.488   4.335  17.109  0.00  0.00    +0.000 C 
BRANCH  12  13
ATOM     13  C   UNL     1       3.911   3.716  18.339  0.00  0.00    +0.000 A 
ATOM     14  C   UNL     1       4.563   3.148  19.416  0.00  0.00    +0.000 A 
ATOM     15  N   UNL     1       3.677   2.660  20.337  0.00  0.00    +0.000 NA
ATOM     16  C   UNL     1       2.492   2.931  19.840  0.00  0.00    +0.000 A 
ATOM     17  N   UNL     1       2.577   3.586  18.647  0.00  0.00    +0.000 N 
ATOM     18  C   UNL     1       1.435   4.054  17.898  0.00  0.00    +0.000 C 
ENDBRANCH  12  13
ENDBRANCH  10  12
ENDBRANCH   1  10
TORSDOF 5
ENDMDL
MODEL 7
REMARK VINA RESULT:      -6.1      1.971      2.257
REMARK  Name = 
REMARK  9 active torsions:
REMARK  status: ('A' for Active; 'I' for Inactive)
REMARK    1  A    between atoms: C_1  and  C_2
REMARK    2  A    between atoms: C_2  and  C_3
REMARK    3  A    between atoms: C_2  and  C_4
REMARK    4  A    between atoms: C_6  and  C_7
REMARK    5  A    between atoms: C_7  and  N_8
REMARK    6  A    between atoms: N_8  and  C_9
REMARK    7  A    between atoms: N_8  and  C_10
REMARK    8  A    between atoms: C_10  and  C_11
REMARK    9  A    between atoms: N_15  and  C_16
REMARK                            x       y       z     vdW  Elec       q    Type
REMARK                         _______ _______ _______ _____ _____    ______ ____
ROOT
ATOM      1  C   UNL     1       5.807   4.487  17.711  0.00  0.00    +0.000 C 
ENDROOT
BRANCH   1   4
ATOM      2  C   UNL     1       6.554   4.305  14.269  0.00  0.00    +0.000 A 
ATOM      3  N   UNL     1       5.859   3.856  15.287  0.00  0.00    +0.000 NA
ATOM      4  C   UNL     1       6.307   4.656  16.312  0.00  0.00    +0.000 A 
ATOM      5  N   UNL     1       7.226   5.566  15.958  0.00  0.00    +0.000 NA
ATOM      6  O   UNL     1       7.391   5.334  14.588  0.00  0.00    +0.000 OA
BRANCH   2   8
ATOM      7  C   UNL     1       5.190   3.536  12.375  0.00  0.00    +0.000 C 
ATOM      8  C   UNL     1       6.614   3.778  12.880  0.00  0.00    +0.000 C 
ATOM      9  C   UNL     1       7.353   4.744  11.955  0.00  0.00    +0.000 C 
ENDBRANCH   2   8
ENDBRANCH   1   4
BRANCH   1  10
ATOM     10  N   UNL     1       4.628   5.346  17.992  0.00  0.00    +0.000 NA
ATOM     11  C   UNL     1       4.512   6.405  16.977  0.00  0.00    +0.000 C 
BRANCH  10  12
ATOM     12  C   UNL     1       3.395   4.546  18.007  0.00  0.00    +0.000 C 
BRANCH  12  13
ATOM     13  C   UNL     1       3.008   4.066  19.366  0.00  0.00    +0.000 A 
ATOM     14  C   UNL     1       3.197   2.823  19.939  0.00  0.00    +0.000 A 
ATOM     15  N   UNL     1       2.672   2.767  21.200  0.00  0.00    +0.000 NA
ATOM     16  C   UNL     1       2.173   3.964  21.411  0.00  0.00    +0.000 A 
ATOM     17  N   UNL     1       2.368   4.791  20.345  0.00  0.00    +0.000 N 
ATOM     18  C   UNL     1       1.969   6.179  20.315  0.00  0.00    +0.000 C 
ENDBRANCH  12  13
ENDBRANCH  10  12
ENDBRANCH   1  10
TORSDOF 5
ENDMDL
MODEL 8
REMARK VINA RESULT:      -6.1      1.202      1.759
REMARK  Name = 
REMARK  9 active torsions:
REMARK  status: ('A' for Active; 'I' for Inactive)
REMARK    1  A    between atoms: C_1  and  C_2
REMARK    2  A    between atoms: C_2  and  C_3
REMARK    3  A    between atoms: C_2  and  C_4
REMARK    4  A    between atoms: C_6  and  C_7
REMARK    5  A    between atoms: C_7  and  N_8
REMARK    6  A    between atoms: N_8  and  C_9
REMARK    7  A    between atoms: N_8  and  C_10
REMARK    8  A    between atoms: C_10  and  C_11
REMARK    9  A    between atoms: N_15  and  C_16
REMARK                            x       y       z     vdW  Elec       q    Type
REMARK                         _______ _______ _______ _____ _____    ______ ____
ROOT
ATOM      1  C   UNL     1       5.528   5.346  17.335  0.00  0.00    +0.000 C 
ENDROOT
BRANCH   1   4
ATOM      2  C   UNL     1       6.278   4.305  14.049  0.00  0.00    +0.000 A 
ATOM      3  N   UNL     1       5.485   4.232  15.092  0.00  0.00    +0.000 NA
ATOM      4  C   UNL     1       6.077   5.114  15.963  0.00  0.00    +0.000 A 
ATOM      5  N   UNL     1       7.179   5.719  15.493  0.00  0.00    +0.000 NA
ATOM      6  O   UNL     1       7.314   5.179  14.210  0.00  0.00    +0.000 OA
BRANCH   2   8
ATOM      7  C   UNL     1       4.822   3.496  12.244  0.00  0.00    +0.000 C 
ATOM      8  C   UNL     1       6.247   3.502  12.798  0.00  0.00    +0.000 C 
ATOM      9  C   UNL     1       7.223   4.057  11.762  0.00  0.00    +0.000 C 
ENDBRANCH   2   8
ENDBRANCH   1   4
BRANCH   1  10
ATOM     10  N   UNL     1       6.283   4.598  18.373  0.00  0.00    +0.000 NA
ATOM     11  C   UNL     1       7.077   5.523  19.197  0.00  0.00    +0.000 C 
BRANCH  10  12
ATOM     12  C   UNL     1       5.365   3.840  19.236  0.00  0.00    +0.000 C 
BRANCH  12  13
ATOM     13  C   UNL     1       3.950   4.312  19.167  0.00  0.00    +0.000 A 
ATOM     14  C   UNL     1       3.358   5.385  19.805  0.00  0.00    +0.000 A 
ATOM     15  N   UNL     1       2.026   5.472  19.507  0.00  0.00    +0.000 NA
ATOM     16  C   UNL     1       1.799   4.471  18.687  0.00  0.00    +0.000 A 
ATOM     17  N   UNL     1       2.930   3.754  18.433  0.00  0.00    +0.000 N 
ATOM     18  C   UNL     1       2.989   2.631  17.528  0.00  0.00    +0.000 C 
ENDBRANCH  12  13
ENDBRANCH  10  12
ENDBRANCH   1  10
TORSDOF 5
ENDMDL
MODEL 9
REMARK VINA RESULT:      -6.0      1.655      2.023
REMARK  Name = 
REMARK  9 active torsions:
REMARK  status: ('A' for Active; 'I' for Inactive)
REMARK    1  A    between atoms: C_1  and  C_2
REMARK    2  A    between atoms: C_2  and  C_3
REMARK    3  A    between atoms: C_2  and  C_4
REMARK    4  A    between atoms: C_6  and  C_7
REMARK    5  A    between atoms: C_7  and  N_8
REMARK    6  A    between atoms: N_8  and  C_9
REMARK    7  A    between atoms: N_8  and  C_10
REMARK    8  A    between atoms: C_10  and  C_11
REMARK    9  A    between atoms: N_15  and  C_16
REMARK                            x       y       z     vdW  Elec       q    Type
REMARK                         _______ _______ _______ _____ _____    ______ ____
ROOT
ATOM      1  C   UNL     1       5.640   4.692  17.582  0.00  0.00    +0.000 C 
ENDROOT
BRANCH   1   4
ATOM      2  C   UNL     1       6.564   4.342  14.196  0.00  0.00    +0.000 A 
ATOM      3  N   UNL     1       5.815   3.944  15.197  0.00  0.00    +0.000 NA
ATOM      4  C   UNL     1       6.213   4.792  16.204  0.00  0.00    +0.000 A 
ATOM      5  N   UNL     1       7.153   5.682  15.854  0.00  0.00    +0.000 NA
ATOM      6  O   UNL     1       7.389   5.383  14.509  0.00  0.00    +0.000 OA
BRANCH   2   8
ATOM      7  C   UNL     1       5.304   3.381  12.319  0.00  0.00    +0.000 C 
ATOM      8  C   UNL     1       6.695   3.748  12.839  0.00  0.00    +0.000 C 
ATOM      9  C   UNL     1       7.388   4.713  11.879  0.00  0.00    +0.000 C 
ENDBRANCH   2   8
ENDBRANCH   1   4
BRANCH   1  10
ATOM     10  N   UNL     1       4.631   3.608  17.691  0.00  0.00    +0.000 NA
ATOM     11  C   UNL     1       4.646   3.026  19.043  0.00  0.00    +0.000 C 
BRANCH  10  12
ATOM     12  C   UNL     1       3.285   4.120  17.394  0.00  0.00    +0.000 C 
BRANCH  12  13
ATOM     13  C   UNL     1       2.344   4.036  18.550  0.00  0.00    +0.000 A 
ATOM     14  C   UNL     1       1.487   3.011  18.903  0.00  0.00    +0.000 A 
ATOM     15  N   UNL     1       0.762   3.326  20.019  0.00  0.00    +0.000 NA
ATOM     16  C   UNL     1       1.172   4.528  20.358  0.00  0.00    +0.000 A 
ATOM     17  N   UNL     1       2.140   4.992  19.518  0.00  0.00    +0.000 N 
ATOM     18  C   UNL     1       2.809   6.261  19.679  0.00  0.00    +0.000 C 
ENDBRANCH  12  13
ENDBRANCH  10  12
ENDBRANCH   1  10
TORSDOF 5
ENDMDL
