MODEL 1
REMARK VINA RESULT:      -8.1      0.000      0.000
REMARK  Name = 
REMARK  8 active torsions:
REMARK  status: ('A' for Active; 'I' for Inactive)
REMARK    1  A    between atoms: C_1  and  O_2
REMARK    2  A    between atoms: O_2  and  C_3
REMARK    3  A    between atoms: C_3  and  C_4
REMARK    4  A    between atoms: N_6  and  C_7
REMARK    5  A    between atoms: C_8  and  C_9
REMARK    6  A    between atoms: C_16  and  C_18
REMARK    7  A    between atoms: C_24  and  C_25
REMARK    8  A    between atoms: C_24  and  O_26
REMARK                            x       y       z     vdW  Elec       q    Type
REMARK                         _______ _______ _______ _____ _____    ______ ____
ROOT
ATOM      1  C   UNL     1       3.288   3.717  19.563  0.00  0.00    +0.000 C 
ATOM      2  C   UNL     1       4.041   5.009  19.060  0.00  0.00    +0.000 C 
ATOM      3  N   UNL     1       4.761   4.675  17.807  0.00  0.00    +0.000 N 
ATOM      4  C   UNL     1       6.130   4.978  17.740  0.00  0.00    +0.000 C 
ATOM      5  O   UNL     1       6.705   5.543  18.679  0.00  0.00    +0.000 OA
ATOM      6  C   UNL     1       3.982   4.073  16.722  0.00  0.00    +0.000 C 
ATOM      7  C   UNL     1       3.062   2.942  17.155  0.00  0.00    +0.000 C 
ATOM      8  C   UNL     1       2.317   3.146  18.488  0.00  0.00    +0.000 C 
ATOM      9  C   UNL     1       0.993   3.909  18.370  0.00  0.00    +0.000 C 
ENDROOT
BRANCH   2  10
ATOM     10  C   UNL     1       3.185   6.285  18.959  0.00  0.00    +0.000 A 
ATOM     11  C   UNL     1       3.257   7.074  17.797  0.00  0.00    +0.000 A 
ATOM     12  C   UNL     1       2.587   8.301  17.710  0.00  0.00    +0.000 A 
ATOM     13  C   UNL     1       1.835   8.771  18.784  0.00  0.00    +0.000 A 
ATOM     14  C   UNL     1       1.694   7.980  19.916  0.00  0.00    +0.000 A 
ATOM     15  C   UNL     1       2.326   6.735  19.980  0.00  0.00    +0.000 A 
ENDBRANCH   2  10
BRANCH   1  18
ATOM     16  C   UNL     1       4.248   1.842  20.989  0.00  0.00    +0.000 C 
ATOM     17  O   UNL     1       3.459   1.963  21.911  0.00  0.00    +0.000 OA
ATOM     18  N   UNL     1       4.225   2.602  19.856  0.00  0.00    +0.000 N 
ATOM     19  H   UNL     1       4.626   2.177  19.023  0.00  0.00    +0.000 HD
BRANCH  16  20
ATOM     20  C   UNL     1       5.422   0.840  21.002  0.00  0.00    +0.000 C 
BRANCH  20  22
ATOM     21  C   UNL     1       6.632  -0.579  22.440  0.00  0.00    +0.000 C 
ATOM     22  O   UNL     1       6.080   0.723  22.255  0.00  0.00    +0.000 OA
ENDBRANCH  20  22
ENDBRANCH  16  20
ENDBRANCH   1  18
BRANCH   4  23
ATOM     23  C   UNL     1       6.907   4.585  16.455  0.00  0.00    +0.000 C 
ATOM     24  C   UNL     1       6.174   3.651  15.448  0.00  0.00    +0.000 C 
ATOM     25  C   UNL     1       6.646   4.544  14.296  0.00  0.00    +0.000 C 
ATOM     26  C   UNL     1       6.989   5.634  15.317  0.00  0.00    +0.000 C 
ENDBRANCH   4  23
BRANCH   8  27
ATOM     27  O   UNL     1       1.938   1.805  18.923  0.00  0.00    +0.000 OA
ATOM     28  H   UNL     1       2.733   1.373  19.285  0.00  0.00    +0.000 HD
ENDBRANCH   8  27
TORSDOF 6
ENDMDL
MODEL 2
REMARK VINA RESULT:      -8.1      0.900      1.077
REMARK  Name = 
REMARK  8 active torsions:
REMARK  status: ('A' for Active; 'I' for Inactive)
REMARK    1  A    between atoms: C_1  and  O_2
REMARK    2  A    between atoms: O_2  and  C_3
REMARK    3  A    between atoms: C_3  and  C_4
REMARK    4  A    between atoms: N_6  and  C_7
REMARK    5  A    between atoms: C_8  and  C_9
REMARK    6  A    between atoms: C_16  and  C_18
REMARK    7  A    between atoms: C_24  and  C_25
REMARK    8  A    between atoms: C_24  and  O_26
REMARK                            x       y       z     vdW  Elec       q    Type
REMARK                         _______ _______ _______ _____ _____    ______ ____
ROOT
ATOM      1  C   UNL     1       2.986   4.071  20.117  0.00  0.00    +0.000 C 
ATOM      2  C   UNL     1       3.506   5.284  19.254  0.00  0.00    +0.000 C 
ATOM      3  N   UNL     1       3.740   4.809  17.869  0.00  0.00    +0.000 N 
ATOM      4  C   UNL     1       4.997   5.062  17.295  0.00  0.00    +0.000 C 
ATOM      5  O   UNL     1       5.863   5.697  17.910  0.00  0.00    +0.000 OA
ATOM      6  C   UNL     1       2.632   4.129  17.193  0.00  0.00    +0.000 C 
ATOM      7  C   UNL     1       1.930   3.074  18.034  0.00  0.00    +0.000 C 
ATOM      8  C   UNL     1       1.701   3.429  19.516  0.00  0.00    +0.000 C 
ATOM      9  C   UNL     1       0.416   4.217  19.793  0.00  0.00    +0.000 C 
ENDROOT
BRANCH   2  10
ATOM     10  C   UNL     1       2.663   6.571  19.332  0.00  0.00    +0.000 A 
ATOM     11  C   UNL     1       2.528   7.377  18.187  0.00  0.00    +0.000 A 
ATOM     12  C   UNL     1       1.871   8.612  18.243  0.00  0.00    +0.000 A 
ATOM     13  C   UNL     1       1.337   9.072  19.445  0.00  0.00    +0.000 A 
ATOM     14  C   UNL     1       1.398   8.265  20.572  0.00  0.00    +0.000 A 
ATOM     15  C   UNL     1       2.015   7.013  20.501  0.00  0.00    +0.000 A 
ENDBRANCH   2  10
BRANCH   1  18
ATOM     16  C   UNL     1       4.090   2.035  21.169  0.00  0.00    +0.000 C 
ATOM     17  O   UNL     1       3.359   1.979  22.144  0.00  0.00    +0.000 OA
ATOM     18  N   UNL     1       3.971   2.961  20.174  0.00  0.00    +0.000 N 
ATOM     19  H   UNL     1       4.330   2.687  19.262  0.00  0.00    +0.000 HD
BRANCH  16  20
ATOM     20  C   UNL     1       5.291   1.090  20.954  0.00  0.00    +0.000 C 
BRANCH  20  22
ATOM     21  C   UNL     1       6.456  -0.473  22.276  0.00  0.00    +0.000 C 
ATOM     22  O   UNL     1       6.101   0.897  22.104  0.00  0.00    +0.000 OA
ENDBRANCH  20  22
ENDBRANCH  16  20
ENDBRANCH   1  18
BRANCH   4  23
ATOM     23  C   UNL     1       5.272   4.523  15.865  0.00  0.00    +0.000 C 
ATOM     24  C   UNL     1       5.591   5.576  14.765  0.00  0.00    +0.000 C 
ATOM     25  C   UNL     1       6.744   4.694  14.273  0.00  0.00    +0.000 C 
ATOM     26  C   UNL     1       6.668   3.909  15.587  0.00  0.00    +0.000 C 
ENDBRANCH   4  23
BRANCH   8  27
ATOM     27  O   UNL     1       1.507   2.149  20.189  0.00  0.00    +0.000 OA
ATOM     28  H   UNL     1       2.368   1.865  20.547  0.00  0.00    +0.000 HD
ENDBRANCH   8  27
TORSDOF 6
ENDMDL
MODEL 3
REMARK VINA RESULT:      -8.0      0.634      1.164
REMARK  Name = 
REMARK  8 active torsions:
REMARK  status: ('A' for Active; 'I' for Inactive)
REMARK    1  A    between atoms: C_1  and  O_2
REMARK    2  A    between atoms: O_2  and  C_3
REMARK    3  A    between atoms: C_3  and  C_4
REMARK    4  A    between atoms: N_6  and  C_7
REMARK    5  A    between atoms: C_8  and  C_9
REMARK    6  A    between atoms: C_16  and  C_18
REMARK    7  A    between atoms: C_24  and  C_25
REMARK    8  A    between atoms: C_24  and  O_26
REMARK                            x       y       z     vdW  Elec       q    Type
REMARK                         _______ _______ _______ _____ _____    ______ ____
ROOT
ATOM      1  C   UNL     1       3.222   3.906  19.906  0.00  0.00    +0.000 C 
ATOM      2  C   UNL     1       3.884   5.087  19.096  0.00  0.00    +0.000 C 
ATOM      3  N   UNL     1       4.245   4.587  17.747  0.00  0.00    +0.000 N 
ATOM      4  C   UNL     1       5.566   4.780  17.310  0.00  0.00    +0.000 C 
ATOM      5  O   UNL     1       6.387   5.385  18.011  0.00  0.00    +0.000 OA
ATOM      6  C   UNL     1       3.188   3.947  16.960  0.00  0.00    +0.000 C 
ATOM      7  C   UNL     1       2.355   2.932  17.727  0.00  0.00    +0.000 C 
ATOM      8  C   UNL     1       1.983   3.312  19.173  0.00  0.00    +0.000 C 
ATOM      9  C   UNL     1       0.712   4.157  19.305  0.00  0.00    +0.000 C 
ENDROOT
BRANCH   2  10
ATOM     10  C   UNL     1       3.094   6.409  19.074  0.00  0.00    +0.000 A 
ATOM     11  C   UNL     1       2.430   6.834  20.239  0.00  0.00    +0.000 A 
ATOM     12  C   UNL     1       1.605   7.966  20.231  0.00  0.00    +0.000 A 
ATOM     13  C   UNL     1       1.421   8.696  19.059  0.00  0.00    +0.000 A 
ATOM     14  C   UNL     1       2.119   8.336  17.914  0.00  0.00    +0.000 A 
ATOM     15  C   UNL     1       2.977   7.232  17.939  0.00  0.00    +0.000 A 
ENDBRANCH   2  10
BRANCH   1  18
ATOM     16  C   UNL     1       4.186   1.898  21.136  0.00  0.00    +0.000 C 
ATOM     17  O   UNL     1       3.420   1.947  22.084  0.00  0.00    +0.000 OA
ATOM     18  N   UNL     1       4.148   2.756  20.075  0.00  0.00    +0.000 N 
ATOM     19  H   UNL     1       4.522   2.402  19.199  0.00  0.00    +0.000 HD
BRANCH  16  20
ATOM     20  C   UNL     1       5.343   0.883  21.031  0.00  0.00    +0.000 C 
BRANCH  20  22
ATOM     21  C   UNL     1       6.611  -0.603  22.346  0.00  0.00    +0.000 C 
ATOM     22  O   UNL     1       6.091   0.719  22.227  0.00  0.00    +0.000 OA
ENDBRANCH  20  22
ENDBRANCH  16  20
ENDBRANCH   1  18
BRANCH   4  23
ATOM     23  C   UNL     1       5.970   4.214  15.922  0.00  0.00    +0.000 C 
ATOM     24  C   UNL     1       5.427   4.965  14.671  0.00  0.00    +0.000 C 
ATOM     25  C   UNL     1       6.818   4.879  14.033  0.00  0.00    +0.000 C 
ATOM     26  C   UNL     1       7.398   4.529  15.407  0.00  0.00    +0.000 C 
ENDBRANCH   4  23
BRANCH   8  27
ATOM     27  O   UNL     1       1.663   2.049  19.829  0.00  0.00    +0.000 OA
ATOM     28  H   UNL     1       0.916   2.206  20.435  0.00  0.00    +0.000 HD
ENDBRANCH   8  27
TORSDOF 6
ENDMDL
MODEL 4
REMARK VINA RESULT:      -7.9      0.632      1.159
REMARK  Name = 
REMARK  8 active torsions:
REMARK  status: ('A' for Active; 'I' for Inactive)
REMARK    1  A    between atoms: C_1  and  O_2
REMARK    2  A    between atoms: O_2  and  C_3
REMARK    3  A    between atoms: C_3  and  C_4
REMARK    4  A    between atoms: N_6  and  C_7
REMARK    5  A    between atoms: C_8  and  C_9
REMARK    6  A    between atoms: C_16  and  C_18
REMARK    7  A    between atoms: C_24  and  C_25
REMARK    8  A    between atoms: C_24  and  O_26
REMARK                            x       y       z     vdW  Elec       q    Type
REMARK                         _______ _______ _______ _____ _____    ______ ____
ROOT
ATOM      1  C   UNL     1       3.067   3.879  19.424  0.00  0.00    +0.000 C 
ATOM      2  C   UNL     1       3.904   5.211  19.304  0.00  0.00    +0.000 C 
ATOM      3  N   UNL     1       4.887   5.051  18.205  0.00  0.00    +0.000 N 
ATOM      4  C   UNL     1       6.235   5.323  18.489  0.00  0.00    +0.000 C 
ATOM      5  O   UNL     1       6.582   5.723  19.608  0.00  0.00    +0.000 OA
ATOM      6  C   UNL     1       4.373   4.642  16.895  0.00  0.00    +0.000 C 
ATOM      7  C   UNL     1       3.388   3.484  16.936  0.00  0.00    +0.000 C 
ATOM      8  C   UNL     1       2.363   3.505  18.087  0.00  0.00    +0.000 C 
ATOM      9  C   UNL     1       1.093   4.312  17.798  0.00  0.00    +0.000 C 
ENDROOT
BRANCH   2  10
ATOM     10  C   UNL     1       3.083   6.511  19.215  0.00  0.00    +0.000 A 
ATOM     11  C   UNL     1       2.280   6.895  20.304  0.00  0.00    +0.000 A 
ATOM     12  C   UNL     1       1.429   8.004  20.221  0.00  0.00    +0.000 A 
ATOM     13  C   UNL     1       1.357   8.752  19.048  0.00  0.00    +0.000 A 
ATOM     14  C   UNL     1       2.190   8.434  17.984  0.00  0.00    +0.000 A 
ATOM     15  C   UNL     1       3.071   7.354  18.087  0.00  0.00    +0.000 A 
ENDBRANCH   2  10
BRANCH   1  18
ATOM     16  C   UNL     1       3.954   2.025  20.922  0.00  0.00    +0.000 C 
ATOM     17  O   UNL     1       3.237   2.275  21.877  0.00  0.00    +0.000 OA
ATOM     18  N   UNL     1       3.923   2.707  19.741  0.00  0.00    +0.000 N 
ATOM     19  H   UNL     1       4.233   2.194  18.920  0.00  0.00    +0.000 HD
BRANCH  16  20
ATOM     20  C   UNL     1       5.037   0.926  20.940  0.00  0.00    +0.000 C 
BRANCH  20  22
ATOM     21  C   UNL     1       6.516  -0.264  22.333  0.00  0.00    +0.000 C 
ATOM     22  O   UNL     1       5.936   1.004  22.036  0.00  0.00    +0.000 OA
ENDBRANCH  20  22
ENDBRANCH  16  20
ENDBRANCH   1  18
BRANCH   4  23
ATOM     23  C   UNL     1       7.280   5.108  17.362  0.00  0.00    +0.000 C 
ATOM     24  C   UNL     1       6.939   4.042  16.280  0.00  0.00    +0.000 C 
ATOM     25  C   UNL     1       7.398   5.019  15.192  0.00  0.00    +0.000 C 
ATOM     26  C   UNL     1       7.329   6.154  16.219  0.00  0.00    +0.000 C 
ENDBRANCH   4  23
BRANCH   8  27
ATOM     27  O   UNL     1       1.907   2.124  18.215  0.00  0.00    +0.000 OA
ATOM     28  H   UNL     1       2.679   1.541  18.097  0.00  0.00    +0.000 HD
ENDBRANCH   8  27
TORSDOF 6
ENDMDL
MODEL 5
REMARK VINA RESULT:      -6.9      8.904     12.724
REMARK  Name = 
REMARK  8 active torsions:
REMARK  status: ('A' for Active; 'I' for Inactive)
REMARK    1  A    between atoms: C_1  and  O_2
REMARK    2  A    between atoms: O_2  and  C_3
REMARK    3  A    between atoms: C_3  and  C_4
REMARK    4  A    between atoms: N_6  and  C_7
REMARK    5  A    between atoms: C_8  and  C_9
REMARK    6  A    between atoms: C_16  and  C_18
REMARK    7  A    between atoms: C_24  and  C_25
REMARK    8  A    between atoms: C_24  and  O_26
REMARK                            x       y       z     vdW  Elec       q    Type
REMARK                         _______ _______ _______ _____ _____    ______ ____
ROOT
ATOM      1  C   UNL     1      -0.549  12.958  19.351  0.00  0.00    +0.000 C 
ATOM      2  C   UNL     1      -0.729  12.932  20.918  0.00  0.00    +0.000 C 
ATOM      3  N   UNL     1      -2.113  13.356  21.239  0.00  0.00    +0.000 N 
ATOM      4  C   UNL     1      -2.280  14.397  22.167  0.00  0.00    +0.000 C 
ATOM      5  O   UNL     1      -1.304  14.912  22.728  0.00  0.00    +0.000 OA
ATOM      6  C   UNL     1      -3.208  12.639  20.579  0.00  0.00    +0.000 C 
ATOM      7  C   UNL     1      -3.020  12.435  19.084  0.00  0.00    +0.000 C 
ATOM      8  C   UNL     1      -1.596  12.065  18.623  0.00  0.00    +0.000 C 
ATOM      9  C   UNL     1      -1.280  10.567  18.665  0.00  0.00    +0.000 C 
ENDROOT
BRANCH   2  10
ATOM     10  C   UNL     1      -0.304  11.628  21.618  0.00  0.00    +0.000 A 
ATOM     11  C   UNL     1       0.803  10.912  21.128  0.00  0.00    +0.000 A 
ATOM     12  C   UNL     1       1.152   9.664  21.660  0.00  0.00    +0.000 A 
ATOM     13  C   UNL     1       0.402   9.101  22.689  0.00  0.00    +0.000 A 
ATOM     14  C   UNL     1      -0.654   9.819  23.234  0.00  0.00    +0.000 A 
ATOM     15  C   UNL     1      -0.971  11.083  22.732  0.00  0.00    +0.000 A 
ENDBRANCH   2  10
BRANCH   1  18
ATOM     16  C   UNL     1       0.096  15.378  18.903  0.00  0.00    +0.000 C 
ATOM     17  O   UNL     1       1.177  15.331  19.466  0.00  0.00    +0.000 OA
ATOM     18  N   UNL     1      -0.755  14.318  18.787  0.00  0.00    +0.000 N 
ATOM     19  H   UNL     1      -1.390  14.338  17.994  0.00  0.00    +0.000 HD
BRANCH  16  20
ATOM     20  C   UNL     1      -0.483  16.668  18.284  0.00  0.00    +0.000 C 
BRANCH  20  22
ATOM     21  C   UNL     1      -0.097  18.410  16.747  0.00  0.00    +0.000 C 
ATOM     22  O   UNL     1       0.486  17.528  17.704  0.00  0.00    +0.000 OA
ENDBRANCH  20  22
ENDBRANCH  16  20
ENDBRANCH   1  18
BRANCH   4  23
ATOM     23  C   UNL     1      -3.721  14.885  22.471  0.00  0.00    +0.000 C 
ATOM     24  C   UNL     1      -4.374  14.377  23.790  0.00  0.00    +0.000 C 
ATOM     25  C   UNL     1      -4.869  15.798  24.078  0.00  0.00    +0.000 C 
ATOM     26  C   UNL     1      -3.890  16.324  23.023  0.00  0.00    +0.000 C 
ENDBRANCH   4  23
BRANCH   8  27
ATOM     27  O   UNL     1      -1.550  12.419  17.208  0.00  0.00    +0.000 OA
ATOM     28  H   UNL     1      -2.443  12.703  16.941  0.00  0.00    +0.000 HD
ENDBRANCH   8  27
TORSDOF 6
ENDMDL
MODEL 6
REMARK VINA RESULT:      -6.8      6.845     10.492
REMARK  Name = 
REMARK  8 active torsions:
REMARK  status: ('A' for Active; 'I' for Inactive)
REMARK    1  A    between atoms: C_1  and  O_2
REMARK    2  A    between atoms: O_2  and  C_3
REMARK    3  A    between atoms: C_3  and  C_4
REMARK    4  A    between atoms: N_6  and  C_7
REMARK    5  A    between atoms: C_8  and  C_9
REMARK    6  A    between atoms: C_16  and  C_18
REMARK    7  A    between atoms: C_24  and  C_25
REMARK    8  A    between atoms: C_24  and  O_26
REMARK                            x       y       z     vdW  Elec       q    Type
REMARK                         _______ _______ _______ _____ _____    ______ ____
ROOT
ATOM      1  C   UNL     1      -0.798  11.704  20.872  0.00  0.00    +0.000 C 
ATOM      2  C   UNL     1      -0.917  10.526  19.830  0.00  0.00    +0.000 C 
ATOM      3  N   UNL     1      -1.317  11.096  18.521  0.00  0.00    +0.000 N 
ATOM      4  C   UNL     1      -2.435  10.539  17.880  0.00  0.00    +0.000 C 
ATOM      5  O   UNL     1      -3.040   9.577  18.373  0.00  0.00    +0.000 OA
ATOM      6  C   UNL     1      -0.499  12.186  17.981  0.00  0.00    +0.000 C 
ATOM      7  C   UNL     1      -0.158  13.277  18.984  0.00  0.00    +0.000 C 
ATOM      8  C   UNL     1       0.200  12.804  20.406  0.00  0.00    +0.000 C 
ATOM      9  C   UNL     1       1.675  12.438  20.606  0.00  0.00    +0.000 C 
ENDROOT
BRANCH   2  10
ATOM     10  C   UNL     1       0.297   9.581  19.748  0.00  0.00    +0.000 A 
ATOM     11  C   UNL     1       0.996   9.461  18.534  0.00  0.00    +0.000 A 
ATOM     12  C   UNL     1       2.030   8.529  18.382  0.00  0.00    +0.000 A 
ATOM     13  C   UNL     1       2.385   7.691  19.437  0.00  0.00    +0.000 A 
ATOM     14  C   UNL     1       1.755   7.837  20.665  0.00  0.00    +0.000 A 
ATOM     15  C   UNL     1       0.755   8.800  20.826  0.00  0.00    +0.000 A 
ENDBRANCH   2  10
BRANCH   1  18
ATOM     16  C   UNL     1      -2.890  12.366  22.160  0.00  0.00    +0.000 C 
ATOM     17  O   UNL     1      -2.624  11.738  23.172  0.00  0.00    +0.000 OA
ATOM     18  N   UNL     1      -2.088  12.418  21.058  0.00  0.00    +0.000 N 
ATOM     19  H   UNL     1      -2.183  13.246  20.474  0.00  0.00    +0.000 HD
BRANCH  16  20
ATOM     20  C   UNL     1      -4.206  13.150  21.969  0.00  0.00    +0.000 C 
BRANCH  20  22
ATOM     21  C   UNL     1      -6.006  12.144  20.831  0.00  0.00    +0.000 C 
ATOM     22  O   UNL     1      -5.382  12.364  22.094  0.00  0.00    +0.000 OA
ENDBRANCH  20  22
ENDBRANCH  16  20
ENDBRANCH   1  18
BRANCH   4  23
ATOM     23  C   UNL     1      -2.896  11.162  16.535  0.00  0.00    +0.000 C 
ATOM     24  C   UNL     1      -2.601  10.344  15.243  0.00  0.00    +0.000 C 
ATOM     25  C   UNL     1      -4.024  10.633  14.751  0.00  0.00    +0.000 C 
ATOM     26  C   UNL     1      -4.401  11.059  16.174  0.00  0.00    +0.000 C 
ENDBRANCH   4  23
BRANCH   8  27
ATOM     27  O   UNL     1      -0.016  13.967  21.260  0.00  0.00    +0.000 OA
ATOM     28  H   UNL     1       0.741  14.570  21.142  0.00  0.00    +0.000 HD
ENDBRANCH   8  27
TORSDOF 6
ENDMDL
MODEL 7
REMARK VINA RESULT:      -6.7      8.133     12.055
REMARK  Name = 
REMARK  8 active torsions:
REMARK  status: ('A' for Active; 'I' for Inactive)
REMARK    1  A    between atoms: C_1  and  O_2
REMARK    2  A    between atoms: O_2  and  C_3
REMARK    3  A    between atoms: C_3  and  C_4
REMARK    4  A    between atoms: N_6  and  C_7
REMARK    5  A    between atoms: C_8  and  C_9
REMARK    6  A    between atoms: C_16  and  C_18
REMARK    7  A    between atoms: C_24  and  C_25
REMARK    8  A    between atoms: C_24  and  O_26
REMARK                            x       y       z     vdW  Elec       q    Type
REMARK                         _______ _______ _______ _____ _____    ______ ____
ROOT
ATOM      1  C   UNL     1      -0.001  12.598  19.234  0.00  0.00    +0.000 C 
ATOM      2  C   UNL     1      -0.027  12.320  20.786  0.00  0.00    +0.000 C 
ATOM      3  N   UNL     1      -1.242  12.952  21.356  0.00  0.00    +0.000 N 
ATOM      4  C   UNL     1      -1.077  13.815  22.452  0.00  0.00    +0.000 C 
ATOM      5  O   UNL     1       0.040  14.007  22.949  0.00  0.00    +0.000 OA
ATOM      6  C   UNL     1      -2.529  12.609  20.746  0.00  0.00    +0.000 C 
ATOM      7  C   UNL     1      -2.540  12.650  19.226  0.00  0.00    +0.000 C 
ATOM      8  C   UNL     1      -1.289  12.088  18.523  0.00  0.00    +0.000 C 
ATOM      9  C   UNL     1      -1.316  10.575  18.283  0.00  0.00    +0.000 C 
ENDROOT
BRANCH   2  10
ATOM     10  C   UNL     1       0.160  10.850  21.206  0.00  0.00    +0.000 A 
ATOM     11  C   UNL     1       1.046  10.034  20.480  0.00  0.00    +0.000 A 
ATOM     12  C   UNL     1       1.158   8.665  20.752  0.00  0.00    +0.000 A 
ATOM     13  C   UNL     1       0.386   8.079  21.753  0.00  0.00    +0.000 A 
ATOM     14  C   UNL     1      -0.444   8.877  22.528  0.00  0.00    +0.000 A 
ATOM     15  C   UNL     1      -0.520  10.250  22.282  0.00  0.00    +0.000 A 
ENDBRANCH   2  10
BRANCH   1  18
ATOM     16  C   UNL     1       1.164  14.839  18.927  0.00  0.00    +0.000 C 
ATOM     17  O   UNL     1       2.292  14.431  19.149  0.00  0.00    +0.000 OA
ATOM     18  N   UNL     1       0.050  14.051  18.926  0.00  0.00    +0.000 N 
ATOM     19  H   UNL     1      -0.727  14.374  18.355  0.00  0.00    +0.000 HD
BRANCH  16  20
ATOM     20  C   UNL     1       0.835  16.324  18.664  0.00  0.00    +0.000 C 
BRANCH  20  22
ATOM     21  C   UNL     1      -0.696  17.752  17.586  0.00  0.00    +0.000 C 
ATOM     22  O   UNL     1      -0.533  16.583  18.386  0.00  0.00    +0.000 OA
ENDBRANCH  20  22
ENDBRANCH  16  20
ENDBRANCH   1  18
BRANCH   4  23
ATOM     23  C   UNL     1      -2.334  14.524  23.023  0.00  0.00    +0.000 C 
ATOM     24  C   UNL     1      -3.095  13.793  24.168  0.00  0.00    +0.000 C 
ATOM     25  C   UNL     1      -3.191  15.117  24.932  0.00  0.00    +0.000 C 
ATOM     26  C   UNL     1      -2.109  15.695  24.013  0.00  0.00    +0.000 C 
ENDBRANCH   4  23
BRANCH   8  27
ATOM     27  O   UNL     1      -1.304  12.679  17.189  0.00  0.00    +0.000 OA
ATOM     28  H   UNL     1      -1.617  13.599  17.272  0.00  0.00    +0.000 HD
ENDBRANCH   8  27
TORSDOF 6
ENDMDL
MODEL 8
REMARK VINA RESULT:      -6.7      6.672     10.292
REMARK  Name = 
REMARK  8 active torsions:
REMARK  status: ('A' for Active; 'I' for Inactive)
REMARK    1  A    between atoms: C_1  and  O_2
REMARK    2  A    between atoms: O_2  and  C_3
REMARK    3  A    between atoms: C_3  and  C_4
REMARK    4  A    between atoms: N_6  and  C_7
REMARK    5  A    between atoms: C_8  and  C_9
REMARK    6  A    between atoms: C_16  and  C_18
REMARK    7  A    between atoms: C_24  and  C_25
REMARK    8  A    between atoms: C_24  and  O_26
REMARK                            x       y       z     vdW  Elec       q    Type
REMARK                         _______ _______ _______ _____ _____    ______ ____
ROOT
ATOM      1  C   UNL     1      -0.333  11.525  20.917  0.00  0.00    +0.000 C 
ATOM      2  C   UNL     1      -0.592  10.451  19.791  0.00  0.00    +0.000 C 
ATOM      3  N   UNL     1      -1.164  11.139  18.608  0.00  0.00    +0.000 N 
ATOM      4  C   UNL     1      -2.360  10.632  18.073  0.00  0.00    +0.000 C 
ATOM      5  O   UNL     1      -2.892   9.620  18.547  0.00  0.00    +0.000 OA
ATOM      6  C   UNL     1      -0.426  12.285  18.072  0.00  0.00    +0.000 C 
ATOM      7  C   UNL     1       0.048  13.279  19.120  0.00  0.00    +0.000 C 
ATOM      8  C   UNL     1       0.595  12.677  20.429  0.00  0.00    +0.000 C 
ATOM      9  C   UNL     1       2.082  12.312  20.392  0.00  0.00    +0.000 C 
ENDROOT
BRANCH   2  10
ATOM     10  C   UNL     1       0.599   9.533  19.455  0.00  0.00    +0.000 A 
ATOM     11  C   UNL     1       1.166   9.582  18.169  0.00  0.00    +0.000 A 
ATOM     12  C   UNL     1       2.170   8.685  17.785  0.00  0.00    +0.000 A 
ATOM     13  C   UNL     1       2.628   7.716  18.675  0.00  0.00    +0.000 A 
ATOM     14  C   UNL     1       2.132   7.692  19.971  0.00  0.00    +0.000 A 
ATOM     15  C   UNL     1       1.163   8.618  20.364  0.00  0.00    +0.000 A 
ENDBRANCH   2  10
BRANCH   1  18
ATOM     16  C   UNL     1      -2.262  11.992  22.508  0.00  0.00    +0.000 C 
ATOM     17  O   UNL     1      -1.894  11.229  23.385  0.00  0.00    +0.000 OA
ATOM     18  N   UNL     1      -1.585  12.202  21.342  0.00  0.00    +0.000 N 
ATOM     19  H   UNL     1      -1.733  13.103  20.894  0.00  0.00    +0.000 HD
BRANCH  16  20
ATOM     20  C   UNL     1      -3.581  12.791  22.575  0.00  0.00    +0.000 C 
BRANCH  20  22
ATOM     21  C   UNL     1      -4.581  12.534  24.692  0.00  0.00    +0.000 C 
ATOM     22  O   UNL     1      -4.614  12.159  23.316  0.00  0.00    +0.000 OA
ENDBRANCH  20  22
ENDBRANCH  16  20
ENDBRANCH   1  18
BRANCH   4  23
ATOM     23  C   UNL     1      -2.997  11.375  16.868  0.00  0.00    +0.000 C 
ATOM     24  C   UNL     1      -2.747  10.771  15.456  0.00  0.00    +0.000 C 
ATOM     25  C   UNL     1      -4.229  10.971  15.122  0.00  0.00    +0.000 C 
ATOM     26  C   UNL     1      -4.512  11.164  16.615  0.00  0.00    +0.000 C 
ENDBRANCH   4  23
BRANCH   8  27
ATOM     27  O   UNL     1       0.497  13.750  21.413  0.00  0.00    +0.000 OA
ATOM     28  H   UNL     1      -0.438  13.828  21.679  0.00  0.00    +0.000 HD
ENDBRANCH   8  27
TORSDOF 6
ENDMDL
MODEL 9
REMARK VINA RESULT:      -6.6      7.960     11.415
REMARK  Name = 
REMARK  8 active torsions:
REMARK  status: ('A' for Active; 'I' for Inactive)
REMARK    1  A    between atoms: C_1  and  O_2
REMARK    2  A    between atoms: O_2  and  C_3
REMARK    3  A    between atoms: C_3  and  C_4
REMARK    4  A    between atoms: N_6  and  C_7
REMARK    5  A    between atoms: C_8  and  C_9
REMARK    6  A    between atoms: C_16  and  C_18
REMARK    7  A    between atoms: C_24  and  C_25
REMARK    8  A    between atoms: C_24  and  O_26
REMARK                            x       y       z     vdW  Elec       q    Type
REMARK                         _______ _______ _______ _____ _____    ______ ____
ROOT
ATOM      1  C   UNL     1      -2.081  12.706  20.834  0.00  0.00    +0.000 C 
ATOM      2  C   UNL     1      -1.895  11.283  20.182  0.00  0.00    +0.000 C 
ATOM      3  N   UNL     1      -1.762  11.452  18.715  0.00  0.00    +0.000 N 
ATOM      4  C   UNL     1      -2.610  10.695  17.890  0.00  0.00    +0.000 C 
ATOM      5  O   UNL     1      -3.412   9.885  18.372  0.00  0.00    +0.000 OA
ATOM      6  C   UNL     1      -0.736  12.381  18.233  0.00  0.00    +0.000 C 
ATOM      7  C   UNL     1      -0.707  13.719  18.954  0.00  0.00    +0.000 C 
ATOM      8  C   UNL     1      -0.913  13.673  20.480  0.00  0.00    +0.000 C 
ATOM      9  C   UNL     1       0.365  13.436  21.292  0.00  0.00    +0.000 C 
ENDROOT
BRANCH   2  10
ATOM     10  C   UNL     1      -0.797  10.400  20.805  0.00  0.00    +0.000 A 
ATOM     11  C   UNL     1      -0.721  10.279  22.204  0.00  0.00    +0.000 A 
ATOM     12  C   UNL     1       0.329   9.584  22.816  0.00  0.00    +0.000 A 
ATOM     13  C   UNL     1       1.331   8.998  22.044  0.00  0.00    +0.000 A 
ATOM     14  C   UNL     1       1.241   9.047  20.660  0.00  0.00    +0.000 A 
ATOM     15  C   UNL     1       0.167   9.702  20.053  0.00  0.00    +0.000 A 
ENDBRANCH   2  10
BRANCH   1  18
ATOM     16  C   UNL     1      -4.580  13.178  20.766  0.00  0.00    +0.000 C 
ATOM     17  O   UNL     1      -4.884  12.402  21.657  0.00  0.00    +0.000 OA
ATOM     18  N   UNL     1      -3.303  13.393  20.339  0.00  0.00    +0.000 N 
ATOM     19  H   UNL     1      -3.118  14.300  19.917  0.00  0.00    +0.000 HD
BRANCH  16  20
ATOM     20  C   UNL     1      -5.616  13.991  19.959  0.00  0.00    +0.000 C 
BRANCH  20  22
ATOM     21  C   UNL     1      -7.427  12.721  19.152  0.00  0.00    +0.000 C 
ATOM     22  O   UNL     1      -6.964  13.602  20.173  0.00  0.00    +0.000 OA
ENDBRANCH  20  22
ENDBRANCH  16  20
ENDBRANCH   1  18
BRANCH   4  23
ATOM     23  C   UNL     1      -2.517  10.903  16.354  0.00  0.00    +0.000 C 
ATOM     24  C   UNL     1      -2.381   9.623  15.478  0.00  0.00    +0.000 C 
ATOM     25  C   UNL     1      -3.433  10.186  14.516  0.00  0.00    +0.000 C 
ATOM     26  C   UNL     1      -3.832  11.204  15.590  0.00  0.00    +0.000 C 
ENDBRANCH   4  23
BRANCH   8  27
ATOM     27  O   UNL     1      -1.345  15.018  20.848  0.00  0.00    +0.000 OA
ATOM     28  H   UNL     1      -1.134  15.613  20.105  0.00  0.00    +0.000 HD
ENDBRANCH   8  27
TORSDOF 6
ENDMDL
