MODEL 1
REMARK VINA RESULT:      -7.9      0.000      0.000
REMARK  Name = 
REMARK  7 active torsions:
REMARK  status: ('A' for Active; 'I' for Inactive)
REMARK    1  A    between atoms: C_2  and  C_3
REMARK    2  A    between atoms: C_2  and  C_21
REMARK    3  A    between atoms: C_3  and  C_4
REMARK    4  A    between atoms: C_4  and  C_5
REMARK    5  A    between atoms: C_8  and  C_9
REMARK    6  A    between atoms: C_9  and  O_10
REMARK    7  A    between atoms: O_10  and  C_11
REMARK                            x       y       z     vdW  Elec       q    Type
REMARK                         _______ _______ _______ _____ _____    ______ ____
ROOT
ATOM      1  C   UNL     1       4.335   2.814  18.259  0.00  0.00    +0.000 A 
ATOM      2  N   UNL     1       4.734   3.605  17.300  0.00  0.00    +0.000 NA
ATOM      3  N   UNL     1       5.553   4.508  17.907  0.00  0.00    +0.000 N 
ATOM      4  C   UNL     1       6.238   5.612  17.487  0.00  0.00    +0.000 A 
ATOM      5  N   UNL     1       6.876   6.130  18.532  0.00  0.00    +0.000 NA
ATOM      6  N   UNL     1       6.582   5.365  19.656  0.00  0.00    +0.000 NA
ATOM      7  C   UNL     1       5.794   4.421  19.236  0.00  0.00    +0.000 A 
ATOM      8  S   UNL     1       4.939   3.109  19.911  0.00  0.00    +0.000 S 
ENDROOT
BRANCH   1   9
ATOM      9  C   UNL     1       3.338   1.710  18.064  0.00  0.00    +0.000 C 
BRANCH   9  10
ATOM     10  C   UNL     1       1.989   2.186  17.549  0.00  0.00    +0.000 C 
BRANCH  10  12
ATOM     11  O   UNL     1       0.203   2.418  19.114  0.00  0.00    +0.000 OA
ATOM     12  C   UNL     1       1.173   2.947  18.573  0.00  0.00    +0.000 C 
BRANCH  12  13
ATOM     13  C   UNL     1       1.542   4.350  18.931  0.00  0.00    +0.000 A 
ATOM     14  C   UNL     1       1.964   5.282  17.976  0.00  0.00    +0.000 A 
ATOM     15  C   UNL     1       2.364   6.562  18.368  0.00  0.00    +0.000 A 
ATOM     16  C   UNL     1       2.314   6.928  19.710  0.00  0.00    +0.000 A 
ATOM     17  C   UNL     1       1.869   6.016  20.665  0.00  0.00    +0.000 A 
ATOM     18  C   UNL     1       1.494   4.727  20.279  0.00  0.00    +0.000 A 
ENDBRANCH  12  13
ENDBRANCH  10  12
ENDBRANCH   9  10
ENDBRANCH   1   9
BRANCH   4  19
ATOM     19  C   UNL     1       6.241   6.099  16.090  0.00  0.00    +0.000 C 
BRANCH  19  20
ATOM     20  O   UNL     1       7.362   5.496  15.442  0.00  0.00    +0.000 OA
BRANCH  20  21
ATOM     21  C   UNL     1       7.110   4.913  14.229  0.00  0.00    +0.000 A 
ATOM     22  C   UNL     1       6.018   4.041  14.204  0.00  0.00    +0.000 A 
ATOM     23  C   UNL     1       5.654   3.390  13.023  0.00  0.00    +0.000 A 
ATOM     24  C   UNL     1       6.372   3.624  11.852  0.00  0.00    +0.000 A 
ATOM     25  C   UNL     1       7.447   4.511  11.864  0.00  0.00    +0.000 A 
ATOM     26  C   UNL     1       7.814   5.157  13.048  0.00  0.00    +0.000 A 
ENDBRANCH  20  21
ENDBRANCH  19  20
ENDBRANCH   4  19
TORSDOF 7
ENDMDL
MODEL 2
REMARK VINA RESULT:      -7.9      0.353      1.009
REMARK  Name = 
REMARK  7 active torsions:
REMARK  status: ('A' for Active; 'I' for Inactive)
REMARK    1  A    between atoms: C_2  and  C_3
REMARK    2  A    between atoms: C_2  and  C_21
REMARK    3  A    between atoms: C_3  and  C_4
REMARK    4  A    between atoms: C_4  and  C_5
REMARK    5  A    between atoms: C_8  and  C_9
REMARK    6  A    between atoms: C_9  and  O_10
REMARK    7  A    between atoms: O_10  and  C_11
REMARK                            x       y       z     vdW  Elec       q    Type
REMARK                         _______ _______ _______ _____ _____    ______ ____
ROOT
ATOM      1  C   UNL     1       4.313   2.809  18.201  0.00  0.00    +0.000 A 
ATOM      2  N   UNL     1       4.690   3.639  17.267  0.00  0.00    +0.000 NA
ATOM      3  N   UNL     1       5.536   4.506  17.888  0.00  0.00    +0.000 N 
ATOM      4  C   UNL     1       6.219   5.622  17.498  0.00  0.00    +0.000 A 
ATOM      5  N   UNL     1       6.894   6.087  18.543  0.00  0.00    +0.000 NA
ATOM      6  N   UNL     1       6.627   5.274  19.641  0.00  0.00    +0.000 NA
ATOM      7  C   UNL     1       5.817   4.357  19.203  0.00  0.00    +0.000 A 
ATOM      8  S   UNL     1       4.971   3.023  19.845  0.00  0.00    +0.000 S 
ENDROOT
BRANCH   1   9
ATOM      9  C   UNL     1       3.300   1.723  17.987  0.00  0.00    +0.000 C 
BRANCH   9  10
ATOM     10  C   UNL     1       2.174   1.725  19.009  0.00  0.00    +0.000 C 
BRANCH  10  12
ATOM     11  O   UNL     1       0.015   2.541  18.404  0.00  0.00    +0.000 OA
ATOM     12  C   UNL     1       1.148   2.819  18.794  0.00  0.00    +0.000 C 
BRANCH  12  13
ATOM     13  C   UNL     1       1.509   4.245  19.055  0.00  0.00    +0.000 A 
ATOM     14  C   UNL     1       1.879   5.125  18.032  0.00  0.00    +0.000 A 
ATOM     15  C   UNL     1       2.273   6.431  18.333  0.00  0.00    +0.000 A 
ATOM     16  C   UNL     1       2.269   6.875  19.652  0.00  0.00    +0.000 A 
ATOM     17  C   UNL     1       1.876   6.015  20.675  0.00  0.00    +0.000 A 
ATOM     18  C   UNL     1       1.506   4.700  20.381  0.00  0.00    +0.000 A 
ENDBRANCH  12  13
ENDBRANCH  10  12
ENDBRANCH   9  10
ENDBRANCH   1   9
BRANCH   4  19
ATOM     19  C   UNL     1       6.183   6.172  16.124  0.00  0.00    +0.000 C 
BRANCH  19  20
ATOM     20  O   UNL     1       7.293   5.608  15.422  0.00  0.00    +0.000 OA
BRANCH  20  21
ATOM     21  C   UNL     1       6.990   4.931  14.271  0.00  0.00    +0.000 A 
ATOM     22  C   UNL     1       7.772   5.265  13.162  0.00  0.00    +0.000 A 
ATOM     23  C   UNL     1       7.565   4.638  11.931  0.00  0.00    +0.000 A 
ATOM     24  C   UNL     1       6.584   3.656  11.809  0.00  0.00    +0.000 A 
ATOM     25  C   UNL     1       5.817   3.301  12.917  0.00  0.00    +0.000 A 
ATOM     26  C   UNL     1       6.021   3.934  14.147  0.00  0.00    +0.000 A 
ENDBRANCH  20  21
ENDBRANCH  19  20
ENDBRANCH   4  19
TORSDOF 7
ENDMDL
MODEL 3
REMARK VINA RESULT:      -7.6      2.621      6.527
REMARK  Name = 
REMARK  7 active torsions:
REMARK  status: ('A' for Active; 'I' for Inactive)
REMARK    1  A    between atoms: C_2  and  C_3
REMARK    2  A    between atoms: C_2  and  C_21
REMARK    3  A    between atoms: C_3  and  C_4
REMARK    4  A    between atoms: C_4  and  C_5
REMARK    5  A    between atoms: C_8  and  C_9
REMARK    6  A    between atoms: C_9  and  O_10
REMARK    7  A    between atoms: O_10  and  C_11
REMARK                            x       y       z     vdW  Elec       q    Type
REMARK                         _______ _______ _______ _____ _____    ______ ____
ROOT
ATOM      1  C   UNL     1       3.928   3.220  18.249  0.00  0.00    +0.000 A 
ATOM      2  N   UNL     1       3.321   4.276  18.718  0.00  0.00    +0.000 NA
ATOM      3  N   UNL     1       2.957   3.939  19.985  0.00  0.00    +0.000 N 
ATOM      4  C   UNL     1       2.256   4.562  20.977  0.00  0.00    +0.000 A 
ATOM      5  N   UNL     1       2.192   3.743  22.022  0.00  0.00    +0.000 NA
ATOM      6  N   UNL     1       2.841   2.556  21.696  0.00  0.00    +0.000 NA
ATOM      7  C   UNL     1       3.272   2.720  20.481  0.00  0.00    +0.000 A 
ATOM      8  S   UNL     1       4.104   1.799  19.312  0.00  0.00    +0.000 S 
ENDROOT
BRANCH   1   9
ATOM      9  C   UNL     1       4.427   3.106  16.839  0.00  0.00    +0.000 C 
BRANCH   9  10
ATOM     10  C   UNL     1       4.658   4.448  16.161  0.00  0.00    +0.000 C 
BRANCH  10  12
ATOM     11  O   UNL     1       6.682   4.402  14.898  0.00  0.00    +0.000 OA
ATOM     12  C   UNL     1       6.118   4.776  15.925  0.00  0.00    +0.000 C 
BRANCH  12  13
ATOM     13  C   UNL     1       6.883   5.557  16.943  0.00  0.00    +0.000 A 
ATOM     14  C   UNL     1       7.361   4.982  18.127  0.00  0.00    +0.000 A 
ATOM     15  C   UNL     1       8.012   5.768  19.080  0.00  0.00    +0.000 A 
ATOM     16  C   UNL     1       8.219   7.124  18.844  0.00  0.00    +0.000 A 
ATOM     17  C   UNL     1       7.771   7.700  17.656  0.00  0.00    +0.000 A 
ATOM     18  C   UNL     1       7.096   6.922  16.712  0.00  0.00    +0.000 A 
ENDBRANCH  12  13
ENDBRANCH  10  12
ENDBRANCH   9  10
ENDBRANCH   1   9
BRANCH   4  19
ATOM     19  C   UNL     1       1.693   5.925  20.858  0.00  0.00    +0.000 C 
BRANCH  19  20
ATOM     20  O   UNL     1       2.310   6.532  19.721  0.00  0.00    +0.000 OA
BRANCH  20  21
ATOM     21  C   UNL     1       1.921   7.816  19.444  0.00  0.00    +0.000 A 
ATOM     22  C   UNL     1       2.266   8.279  18.172  0.00  0.00    +0.000 A 
ATOM     23  C   UNL     1       1.919   9.570  17.767  0.00  0.00    +0.000 A 
ATOM     24  C   UNL     1       1.205  10.400  18.629  0.00  0.00    +0.000 A 
ATOM     25  C   UNL     1       0.837   9.935  19.890  0.00  0.00    +0.000 A 
ATOM     26  C   UNL     1       1.191   8.645  20.297  0.00  0.00    +0.000 A 
ENDBRANCH  20  21
ENDBRANCH  19  20
ENDBRANCH   4  19
TORSDOF 7
ENDMDL
MODEL 4
REMARK VINA RESULT:      -7.6      2.451      6.815
REMARK  Name = 
REMARK  7 active torsions:
REMARK  status: ('A' for Active; 'I' for Inactive)
REMARK    1  A    between atoms: C_2  and  C_3
REMARK    2  A    between atoms: C_2  and  C_21
REMARK    3  A    between atoms: C_3  and  C_4
REMARK    4  A    between atoms: C_4  and  C_5
REMARK    5  A    between atoms: C_8  and  C_9
REMARK    6  A    between atoms: C_9  and  O_10
REMARK    7  A    between atoms: O_10  and  C_11
REMARK                            x       y       z     vdW  Elec       q    Type
REMARK                         _______ _______ _______ _____ _____    ______ ____
ROOT
ATOM      1  C   UNL     1       3.838   6.566  17.643  0.00  0.00    +0.000 A 
ATOM      2  N   UNL     1       3.499   5.760  18.611  0.00  0.00    +0.000 NA
ATOM      3  N   UNL     1       2.641   6.480  19.385  0.00  0.00    +0.000 N 
ATOM      4  C   UNL     1       1.982   6.246  20.557  0.00  0.00    +0.000 A 
ATOM      5  N   UNL     1       1.277   7.329  20.865  0.00  0.00    +0.000 NA
ATOM      6  N   UNL     1       1.501   8.297  19.890  0.00  0.00    +0.000 NA
ATOM      7  C   UNL     1       2.317   7.748  19.039  0.00  0.00    +0.000 A 
ATOM      8  S   UNL     1       3.130   8.202  17.611  0.00  0.00    +0.000 S 
ENDROOT
BRANCH   1   9
ATOM      9  C   UNL     1       4.848   6.219  16.589  0.00  0.00    +0.000 C 
BRANCH   9  10
ATOM     10  C   UNL     1       5.420   4.817  16.726  0.00  0.00    +0.000 C 
BRANCH  10  12
ATOM     11  O   UNL     1       7.795   4.592  16.754  0.00  0.00    +0.000 OA
ATOM     12  C   UNL     1       6.773   4.636  16.070  0.00  0.00    +0.000 C 
BRANCH  12  13
ATOM     13  C   UNL     1       6.874   4.511  14.585  0.00  0.00    +0.000 A 
ATOM     14  C   UNL     1       7.735   5.307  13.821  0.00  0.00    +0.000 A 
ATOM     15  C   UNL     1       7.745   5.200  12.428  0.00  0.00    +0.000 A 
ATOM     16  C   UNL     1       6.919   4.276  11.793  0.00  0.00    +0.000 A 
ATOM     17  C   UNL     1       6.078   3.460  12.546  0.00  0.00    +0.000 A 
ATOM     18  C   UNL     1       6.047   3.583  13.938  0.00  0.00    +0.000 A 
ENDBRANCH  12  13
ENDBRANCH  10  12
ENDBRANCH   9  10
ENDBRANCH   1   9
BRANCH   4  19
ATOM     19  C   UNL     1       2.066   4.975  21.310  0.00  0.00    +0.000 C 
BRANCH  19  20
ATOM     20  O   UNL     1       1.296   4.011  20.589  0.00  0.00    +0.000 OA
BRANCH  20  21
ATOM     21  C   UNL     1       1.994   3.220  19.717  0.00  0.00    +0.000 A 
ATOM     22  C   UNL     1       3.189   2.696  20.216  0.00  0.00    +0.000 A 
ATOM     23  C   UNL     1       3.989   1.868  19.425  0.00  0.00    +0.000 A 
ATOM     24  C   UNL     1       3.585   1.542  18.132  0.00  0.00    +0.000 A 
ATOM     25  C   UNL     1       2.383   2.042  17.636  0.00  0.00    +0.000 A 
ATOM     26  C   UNL     1       1.586   2.877  18.426  0.00  0.00    +0.000 A 
ENDBRANCH  20  21
ENDBRANCH  19  20
ENDBRANCH   4  19
TORSDOF 7
ENDMDL
MODEL 5
REMARK VINA RESULT:      -7.6      2.716      6.460
REMARK  Name = 
REMARK  7 active torsions:
REMARK  status: ('A' for Active; 'I' for Inactive)
REMARK    1  A    between atoms: C_2  and  C_3
REMARK    2  A    between atoms: C_2  and  C_21
REMARK    3  A    between atoms: C_3  and  C_4
REMARK    4  A    between atoms: C_4  and  C_5
REMARK    5  A    between atoms: C_8  and  C_9
REMARK    6  A    between atoms: C_9  and  O_10
REMARK    7  A    between atoms: O_10  and  C_11
REMARK                            x       y       z     vdW  Elec       q    Type
REMARK                         _______ _______ _______ _____ _____    ______ ____
ROOT
ATOM      1  C   UNL     1       3.625   3.482  17.859  0.00  0.00    +0.000 A 
ATOM      2  N   UNL     1       2.968   4.459  18.422  0.00  0.00    +0.000 NA
ATOM      3  N   UNL     1       2.717   4.030  19.689  0.00  0.00    +0.000 N 
ATOM      4  C   UNL     1       2.035   4.541  20.756  0.00  0.00    +0.000 A 
ATOM      5  N   UNL     1       2.105   3.668  21.756  0.00  0.00    +0.000 NA
ATOM      6  N   UNL     1       2.824   2.557  21.324  0.00  0.00    +0.000 NA
ATOM      7  C   UNL     1       3.160   2.817  20.096  0.00  0.00    +0.000 A 
ATOM      8  S   UNL     1       3.983   2.029  18.828  0.00  0.00    +0.000 S 
ENDROOT
BRANCH   1   9
ATOM      9  C   UNL     1       4.037   3.482  16.416  0.00  0.00    +0.000 C 
BRANCH   9  10
ATOM     10  C   UNL     1       5.475   3.920  16.189  0.00  0.00    +0.000 C 
BRANCH  10  12
ATOM     11  O   UNL     1       5.070   6.116  15.349  0.00  0.00    +0.000 OA
ATOM     12  C   UNL     1       5.666   5.422  16.172  0.00  0.00    +0.000 C 
BRANCH  12  13
ATOM     13  C   UNL     1       6.584   6.071  17.156  0.00  0.00    +0.000 A 
ATOM     14  C   UNL     1       7.052   7.380  16.996  0.00  0.00    +0.000 A 
ATOM     15  C   UNL     1       7.962   7.920  17.908  0.00  0.00    +0.000 A 
ATOM     16  C   UNL     1       8.385   7.169  19.001  0.00  0.00    +0.000 A 
ATOM     17  C   UNL     1       7.903   5.875  19.184  0.00  0.00    +0.000 A 
ATOM     18  C   UNL     1       7.013   5.322  18.260  0.00  0.00    +0.000 A 
ENDBRANCH  12  13
ENDBRANCH  10  12
ENDBRANCH   9  10
ENDBRANCH   1   9
BRANCH   4  19
ATOM     19  C   UNL     1       1.359   5.858  20.748  0.00  0.00    +0.000 C 
BRANCH  19  20
ATOM     20  O   UNL     1       2.353   6.834  20.430  0.00  0.00    +0.000 OA
BRANCH  20  21
ATOM     21  C   UNL     1       1.913   7.931  19.739  0.00  0.00    +0.000 A 
ATOM     22  C   UNL     1       1.141   8.830  20.480  0.00  0.00    +0.000 A 
ATOM     23  C   UNL     1       0.640   9.992  19.890  0.00  0.00    +0.000 A 
ATOM     24  C   UNL     1       0.925  10.271  18.555  0.00  0.00    +0.000 A 
ATOM     25  C   UNL     1       1.714   9.391  17.817  0.00  0.00    +0.000 A 
ATOM     26  C   UNL     1       2.210   8.225  18.407  0.00  0.00    +0.000 A 
ENDBRANCH  20  21
ENDBRANCH  19  20
ENDBRANCH   4  19
TORSDOF 7
ENDMDL
MODEL 6
REMARK VINA RESULT:      -7.5      2.385      7.214
REMARK  Name = 
REMARK  7 active torsions:
REMARK  status: ('A' for Active; 'I' for Inactive)
REMARK    1  A    between atoms: C_2  and  C_3
REMARK    2  A    between atoms: C_2  and  C_21
REMARK    3  A    between atoms: C_3  and  C_4
REMARK    4  A    between atoms: C_4  and  C_5
REMARK    5  A    between atoms: C_8  and  C_9
REMARK    6  A    between atoms: C_9  and  O_10
REMARK    7  A    between atoms: O_10  and  C_11
REMARK                            x       y       z     vdW  Elec       q    Type
REMARK                         _______ _______ _______ _____ _____    ______ ____
ROOT
ATOM      1  C   UNL     1       4.097   3.590  18.129  0.00  0.00    +0.000 A 
ATOM      2  N   UNL     1       3.601   4.576  18.825  0.00  0.00    +0.000 NA
ATOM      3  N   UNL     1       2.631   4.011  19.595  0.00  0.00    +0.000 N 
ATOM      4  C   UNL     1       1.716   4.491  20.487  0.00  0.00    +0.000 A 
ATOM      5  N   UNL     1       0.996   3.469  20.939  0.00  0.00    +0.000 NA
ATOM      6  N   UNL     1       1.433   2.306  20.312  0.00  0.00    +0.000 NA
ATOM      7  C   UNL     1       2.398   2.680  19.524  0.00  0.00    +0.000 A 
ATOM      8  S   UNL     1       3.439   1.953  18.387  0.00  0.00    +0.000 S 
ENDROOT
BRANCH   1   9
ATOM      9  C   UNL     1       5.146   3.765  17.071  0.00  0.00    +0.000 C 
BRANCH   9  10
ATOM     10  C   UNL     1       5.269   5.192  16.560  0.00  0.00    +0.000 C 
BRANCH  10  12
ATOM     11  O   UNL     1       7.439   6.100  16.160  0.00  0.00    +0.000 OA
ATOM     12  C   UNL     1       6.501   5.440  15.715  0.00  0.00    +0.000 C 
BRANCH  12  13
ATOM     13  C   UNL     1       6.583   4.884  14.331  0.00  0.00    +0.000 A 
ATOM     14  C   UNL     1       5.685   3.922  13.854  0.00  0.00    +0.000 A 
ATOM     15  C   UNL     1       5.842   3.382  12.575  0.00  0.00    +0.000 A 
ATOM     16  C   UNL     1       6.877   3.823  11.754  0.00  0.00    +0.000 A 
ATOM     17  C   UNL     1       7.759   4.800  12.209  0.00  0.00    +0.000 A 
ATOM     18  C   UNL     1       7.620   5.323  13.498  0.00  0.00    +0.000 A 
ENDBRANCH  12  13
ENDBRANCH  10  12
ENDBRANCH   9  10
ENDBRANCH   1   9
BRANCH   4  19
ATOM     19  C   UNL     1       1.596   5.919  20.858  0.00  0.00    +0.000 C 
BRANCH  19  20
ATOM     20  O   UNL     1       2.482   6.646  20.004  0.00  0.00    +0.000 OA
BRANCH  20  21
ATOM     21  C   UNL     1       1.998   7.827  19.509  0.00  0.00    +0.000 A 
ATOM     22  C   UNL     1       1.322   8.627  20.434  0.00  0.00    +0.000 A 
ATOM     23  C   UNL     1       0.788   9.860  20.052  0.00  0.00    +0.000 A 
ATOM     24  C   UNL     1       0.946  10.309  18.743  0.00  0.00    +0.000 A 
ATOM     25  C   UNL     1       1.639   9.527  17.821  0.00  0.00    +0.000 A 
ATOM     26  C   UNL     1       2.168   8.290  18.203  0.00  0.00    +0.000 A 
ENDBRANCH  20  21
ENDBRANCH  19  20
ENDBRANCH   4  19
TORSDOF 7
ENDMDL
MODEL 7
REMARK VINA RESULT:      -7.5      2.698      6.740
REMARK  Name = 
REMARK  7 active torsions:
REMARK  status: ('A' for Active; 'I' for Inactive)
REMARK    1  A    between atoms: C_2  and  C_3
REMARK    2  A    between atoms: C_2  and  C_21
REMARK    3  A    between atoms: C_3  and  C_4
REMARK    4  A    between atoms: C_4  and  C_5
REMARK    5  A    between atoms: C_8  and  C_9
REMARK    6  A    between atoms: C_9  and  O_10
REMARK    7  A    between atoms: O_10  and  C_11
REMARK                            x       y       z     vdW  Elec       q    Type
REMARK                         _______ _______ _______ _____ _____    ______ ____
ROOT
ATOM      1  C   UNL     1       3.749   3.999  17.647  0.00  0.00    +0.000 A 
ATOM      2  N   UNL     1       3.164   4.940  18.337  0.00  0.00    +0.000 NA
ATOM      3  N   UNL     1       2.878   4.370  19.539  0.00  0.00    +0.000 N 
ATOM      4  C   UNL     1       2.233   4.788  20.667  0.00  0.00    +0.000 A 
ATOM      5  N   UNL     1       2.236   3.789  21.545  0.00  0.00    +0.000 NA
ATOM      6  N   UNL     1       2.872   2.694  20.969  0.00  0.00    +0.000 NA
ATOM      7  C   UNL     1       3.230   3.086  19.783  0.00  0.00    +0.000 A 
ATOM      8  S   UNL     1       3.997   2.411  18.418  0.00  0.00    +0.000 S 
ENDROOT
BRANCH   1   9
ATOM      9  C   UNL     1       4.165   4.156  16.214  0.00  0.00    +0.000 C 
BRANCH   9  10
ATOM     10  C   UNL     1       5.595   3.719  15.939  0.00  0.00    +0.000 C 
BRANCH  10  12
ATOM     11  O   UNL     1       6.844   5.203  14.550  0.00  0.00    +0.000 OA
ATOM     12  C   UNL     1       6.554   4.865  15.698  0.00  0.00    +0.000 C 
BRANCH  12  13
ATOM     13  C   UNL     1       7.156   5.594  16.854  0.00  0.00    +0.000 A 
ATOM     14  C   UNL     1       7.562   4.941  18.024  0.00  0.00    +0.000 A 
ATOM     15  C   UNL     1       8.056   5.674  19.106  0.00  0.00    +0.000 A 
ATOM     16  C   UNL     1       8.179   7.058  19.014  0.00  0.00    +0.000 A 
ATOM     17  C   UNL     1       7.804   7.714  17.844  0.00  0.00    +0.000 A 
ATOM     18  C   UNL     1       7.284   6.987  16.770  0.00  0.00    +0.000 A 
ENDBRANCH  12  13
ENDBRANCH  10  12
ENDBRANCH   9  10
ENDBRANCH   1   9
BRANCH   4  19
ATOM     19  C   UNL     1       1.655   6.140  20.834  0.00  0.00    +0.000 C 
BRANCH  19  20
ATOM     20  O   UNL     1       2.430   7.026  20.025  0.00  0.00    +0.000 OA
BRANCH  20  21
ATOM     21  C   UNL     1       1.799   8.172  19.619  0.00  0.00    +0.000 A 
ATOM     22  C   UNL     1       1.022   8.799  20.596  0.00  0.00    +0.000 A 
ATOM     23  C   UNL     1       0.334   9.980  20.308  0.00  0.00    +0.000 A 
ATOM     24  C   UNL     1       0.435  10.550  19.041  0.00  0.00    +0.000 A 
ATOM     25  C   UNL     1       1.227   9.942  18.069  0.00  0.00    +0.000 A 
ATOM     26  C   UNL     1       1.911   8.757  18.357  0.00  0.00    +0.000 A 
ENDBRANCH  20  21
ENDBRANCH  19  20
ENDBRANCH   4  19
TORSDOF 7
ENDMDL
MODEL 8
REMARK VINA RESULT:      -7.5      3.449      5.337
REMARK  Name = 
REMARK  7 active torsions:
REMARK  status: ('A' for Active; 'I' for Inactive)
REMARK    1  A    between atoms: C_2  and  C_3
REMARK    2  A    between atoms: C_2  and  C_21
REMARK    3  A    between atoms: C_3  and  C_4
REMARK    4  A    between atoms: C_4  and  C_5
REMARK    5  A    between atoms: C_8  and  C_9
REMARK    6  A    between atoms: C_9  and  O_10
REMARK    7  A    between atoms: O_10  and  C_11
REMARK                            x       y       z     vdW  Elec       q    Type
REMARK                         _______ _______ _______ _____ _____    ______ ____
ROOT
ATOM      1  C   UNL     1       2.461   6.420  19.155  0.00  0.00    +0.000 A 
ATOM      2  N   UNL     1       3.160   6.117  18.095  0.00  0.00    +0.000 NA
ATOM      3  N   UNL     1       3.346   4.770  18.169  0.00  0.00    +0.000 N 
ATOM      4  C   UNL     1       4.025   3.855  17.419  0.00  0.00    +0.000 A 
ATOM      5  N   UNL     1       3.871   2.658  17.976  0.00  0.00    +0.000 NA
ATOM      6  N   UNL     1       3.098   2.800  19.125  0.00  0.00    +0.000 NA
ATOM      7  C   UNL     1       2.816   4.067  19.198  0.00  0.00    +0.000 A 
ATOM      8  S   UNL     1       1.984   5.107  20.263  0.00  0.00    +0.000 S 
ENDROOT
BRANCH   1   9
ATOM      9  C   UNL     1       2.094   7.824  19.533  0.00  0.00    +0.000 C 
BRANCH   9  10
ATOM     10  C   UNL     1       1.352   7.929  20.857  0.00  0.00    +0.000 C 
BRANCH  10  12
ATOM     11  O   UNL     1       1.444   9.704  22.448  0.00  0.00    +0.000 OA
ATOM     12  C   UNL     1       1.111   9.352  21.317  0.00  0.00    +0.000 C 
BRANCH  12  13
ATOM     13  C   UNL     1       0.465  10.336  20.398  0.00  0.00    +0.000 A 
ATOM     14  C   UNL     1      -0.762  10.086  19.773  0.00  0.00    +0.000 A 
ATOM     15  C   UNL     1      -1.294  11.009  18.869  0.00  0.00    +0.000 A 
ATOM     16  C   UNL     1      -0.621  12.200  18.610  0.00  0.00    +0.000 A 
ATOM     17  C   UNL     1       0.587  12.470  19.248  0.00  0.00    +0.000 A 
ATOM     18  C   UNL     1       1.135  11.538  20.133  0.00  0.00    +0.000 A 
ENDBRANCH  12  13
ENDBRANCH  10  12
ENDBRANCH   9  10
ENDBRANCH   1   9
BRANCH   4  19
ATOM     19  C   UNL     1       4.782   4.193  16.192  0.00  0.00    +0.000 C 
BRANCH  19  20
ATOM     20  O   UNL     1       6.168   4.046  16.506  0.00  0.00    +0.000 OA
BRANCH  20  21
ATOM     21  C   UNL     1       6.752   5.106  17.147  0.00  0.00    +0.000 A 
ATOM     22  C   UNL     1       7.426   4.788  18.329  0.00  0.00    +0.000 A 
ATOM     23  C   UNL     1       8.068   5.782  19.070  0.00  0.00    +0.000 A 
ATOM     24  C   UNL     1       8.055   7.101  18.622  0.00  0.00    +0.000 A 
ATOM     25  C   UNL     1       7.404   7.421  17.432  0.00  0.00    +0.000 A 
ATOM     26  C   UNL     1       6.756   6.426  16.693  0.00  0.00    +0.000 A 
ENDBRANCH  20  21
ENDBRANCH  19  20
ENDBRANCH   4  19
TORSDOF 7
ENDMDL
MODEL 9
REMARK VINA RESULT:      -7.5      3.389      4.992
REMARK  Name = 
REMARK  7 active torsions:
REMARK  status: ('A' for Active; 'I' for Inactive)
REMARK    1  A    between atoms: C_2  and  C_3
REMARK    2  A    between atoms: C_2  and  C_21
REMARK    3  A    between atoms: C_3  and  C_4
REMARK    4  A    between atoms: C_4  and  C_5
REMARK    5  A    between atoms: C_8  and  C_9
REMARK    6  A    between atoms: C_9  and  O_10
REMARK    7  A    between atoms: O_10  and  C_11
REMARK                            x       y       z     vdW  Elec       q    Type
REMARK                         _______ _______ _______ _____ _____    ______ ____
ROOT
ATOM      1  C   UNL     1       5.182   4.104  18.492  0.00  0.00    +0.000 A 
ATOM      2  N   UNL     1       5.898   5.153  18.798  0.00  0.00    +0.000 NA
ATOM      3  N   UNL     1       6.480   5.534  17.628  0.00  0.00    +0.000 N 
ATOM      4  C   UNL     1       7.372   6.505  17.275  0.00  0.00    +0.000 A 
ATOM      5  N   UNL     1       7.604   6.406  15.970  0.00  0.00    +0.000 NA
ATOM      6  N   UNL     1       6.870   5.335  15.468  0.00  0.00    +0.000 NA
ATOM      7  C   UNL     1       6.226   4.850  16.488  0.00  0.00    +0.000 A 
ATOM      8  S   UNL     1       5.164   3.553  16.797  0.00  0.00    +0.000 S 
ENDROOT
BRANCH   1   9
ATOM      9  C   UNL     1       4.427   3.292  19.502  0.00  0.00    +0.000 C 
BRANCH   9  10
ATOM     10  C   UNL     1       3.153   2.667  18.957  0.00  0.00    +0.000 C 
BRANCH  10  12
ATOM     11  O   UNL     1       0.810   2.944  19.312  0.00  0.00    +0.000 OA
ATOM     12  C   UNL     1       1.907   3.491  19.205  0.00  0.00    +0.000 C 
BRANCH  12  13
ATOM     13  C   UNL     1       2.003   4.977  19.321  0.00  0.00    +0.000 A 
ATOM     14  C   UNL     1       1.806   5.650  20.532  0.00  0.00    +0.000 A 
ATOM     15  C   UNL     1       1.840   7.046  20.577  0.00  0.00    +0.000 A 
ATOM     16  C   UNL     1       2.103   7.776  19.421  0.00  0.00    +0.000 A 
ATOM     17  C   UNL     1       2.327   7.114  18.216  0.00  0.00    +0.000 A 
ATOM     18  C   UNL     1       2.268   5.719  18.162  0.00  0.00    +0.000 A 
ENDBRANCH  12  13
ENDBRANCH  10  12
ENDBRANCH   9  10
ENDBRANCH   1   9
BRANCH   4  19
ATOM     19  C   UNL     1       7.944   7.484  18.225  0.00  0.00    +0.000 C 
BRANCH  19  20
ATOM     20  O   UNL     1       7.666   8.784  17.702  0.00  0.00    +0.000 OA
BRANCH  20  21
ATOM     21  C   UNL     1       8.398   9.812  18.233  0.00  0.00    +0.000 A 
ATOM     22  C   UNL     1       8.276  11.035  17.568  0.00  0.00    +0.000 A 
ATOM     23  C   UNL     1       8.967  12.162  18.018  0.00  0.00    +0.000 A 
ATOM     24  C   UNL     1       9.774  12.075  19.151  0.00  0.00    +0.000 A 
ATOM     25  C   UNL     1       9.882  10.865  19.832  0.00  0.00    +0.000 A 
ATOM     26  C   UNL     1       9.194   9.735  19.377  0.00  0.00    +0.000 A 
ENDBRANCH  20  21
ENDBRANCH  19  20
ENDBRANCH   4  19
TORSDOF 7
ENDMDL
