MODEL 1
REMARK VINA RESULT:      -7.9      0.000      0.000
REMARK  Name = 
REMARK  7 active torsions:
REMARK  status: ('A' for Active; 'I' for Inactive)
REMARK    1  A    between atoms: C_1  and  O_2
REMARK    2  A    between atoms: O_2  and  C_3
REMARK    3  A    between atoms: C_11  and  C_12
REMARK    4  A    between atoms: C_12  and  O_13
REMARK    5  A    between atoms: C_12  and  C_14
REMARK    6  A    between atoms: C_26  and  O_27
REMARK    7  A    between atoms: O_27  and  C_28
REMARK                            x       y       z     vdW  Elec       q    Type
REMARK                         _______ _______ _______ _____ _____    ______ ____
ROOT
ATOM      1  C   UNL     1      -0.415  12.353  19.277  0.00  0.00    +0.000 A 
ATOM      2  C   UNL     1       0.403  11.250  18.997  0.00  0.00    +0.000 A 
ATOM      3  C   UNL     1       0.541  10.195  19.882  0.00  0.00    +0.000 A 
ATOM      4  N   UNL     1       1.307   9.159  19.532  0.00  0.00    +0.000 NA
ATOM      5  C   UNL     1       1.400   8.111  20.361  0.00  0.00    +0.000 A 
ATOM      6  N   UNL     1       2.157   7.029  19.975  0.00  0.00    +0.000 N 
ATOM      7  C   UNL     1       2.941   7.064  18.751  0.00  0.00    +0.000 C 
ATOM      8  C   UNL     1       2.503   5.920  17.837  0.00  0.00    +0.000 C 
ATOM      9  C   UNL     1       2.579   4.557  18.547  0.00  0.00    +0.000 C 
ATOM     10  C   UNL     1       1.719   4.635  19.831  0.00  0.00    +0.000 C 
ATOM     11  C   UNL     1       2.129   5.795  20.744  0.00  0.00    +0.000 C 
ATOM     12  N   UNL     1       0.776   8.077  21.546  0.00  0.00    +0.000 NA
ATOM     13  C   UNL     1       0.038   9.134  21.905  0.00  0.00    +0.000 A 
ATOM     14  N   UNL     1      -0.585   9.027  23.156  0.00  0.00    +0.000 N 
ATOM     15  C   UNL     1      -0.137  10.248  21.092  0.00  0.00    +0.000 A 
ATOM     16  C   UNL     1      -0.940  11.374  21.410  0.00  0.00    +0.000 A 
ATOM     17  C   UNL     1      -1.075  12.434  20.514  0.00  0.00    +0.000 A 
ATOM     18  H   UNL     1      -0.278   8.142  23.555  0.00  0.00    +0.000 HD
ATOM     19  H   UNL     1      -0.337   9.806  23.754  0.00  0.00    +0.000 HD
ENDROOT
BRANCH   1  21
ATOM     20  C   UNL     1       0.370  14.454  18.540  0.00  0.00    +0.000 C 
ATOM     21  O   UNL     1      -0.576  13.394  18.397  0.00  0.00    +0.000 OA
ENDBRANCH   1  21
BRANCH  17  22
ATOM     22  O   UNL     1      -1.828  13.555  20.747  0.00  0.00    +0.000 OA
ATOM     23  C   UNL     1      -3.239  13.385  20.826  0.00  0.00    +0.000 C 
ENDBRANCH  17  22
BRANCH   9  24
ATOM     24  C   UNL     1       4.024   4.090  18.864  0.00  0.00    +0.000 C 
BRANCH  24  25
ATOM     25  C   UNL     1       5.156   4.916  18.219  0.00  0.00    +0.000 C 
ATOM     26  C   UNL     1       6.237   5.311  19.232  0.00  0.00    +0.000 C 
ATOM     27  C   UNL     1       7.434   5.675  18.374  0.00  0.00    +0.000 C 
ATOM     28  C   UNL     1       7.385   4.703  17.205  0.00  0.00    +0.000 C 
ATOM     29  C   UNL     1       5.939   4.214  17.101  0.00  0.00    +0.000 C 
ENDBRANCH  24  25
BRANCH  24  30
ATOM     30  O   UNL     1       4.150   2.715  18.488  0.00  0.00    +0.000 OA
ATOM     31  H   UNL     1       3.355   2.460  17.991  0.00  0.00    +0.000 HD
ENDBRANCH  24  30
ENDBRANCH   9  24
TORSDOF 5
ENDMDL
MODEL 2
REMARK VINA RESULT:      -7.7      1.827      9.188
REMARK  Name = 
REMARK  7 active torsions:
REMARK  status: ('A' for Active; 'I' for Inactive)
REMARK    1  A    between atoms: C_1  and  O_2
REMARK    2  A    between atoms: O_2  and  C_3
REMARK    3  A    between atoms: C_11  and  C_12
REMARK    4  A    between atoms: C_12  and  O_13
REMARK    5  A    between atoms: C_12  and  C_14
REMARK    6  A    between atoms: C_26  and  O_27
REMARK    7  A    between atoms: O_27  and  C_28
REMARK                            x       y       z     vdW  Elec       q    Type
REMARK                         _______ _______ _______ _____ _____    ______ ____
ROOT
ATOM      1  C   UNL     1       2.901   3.726  20.496  0.00  0.00    +0.000 A 
ATOM      2  C   UNL     1       2.318   4.977  20.742  0.00  0.00    +0.000 A 
ATOM      3  C   UNL     1       2.487   6.047  19.881  0.00  0.00    +0.000 A 
ATOM      4  N   UNL     1       1.871   7.198  20.158  0.00  0.00    +0.000 NA
ATOM      5  C   UNL     1       1.987   8.220  19.301  0.00  0.00    +0.000 A 
ATOM      6  N   UNL     1       1.315   9.389  19.572  0.00  0.00    +0.000 N 
ATOM      7  C   UNL     1       0.591   9.562  20.820  0.00  0.00    +0.000 C 
ATOM      8  C   UNL     1      -0.877   9.866  20.516  0.00  0.00    +0.000 C 
ATOM      9  C   UNL     1      -1.030  11.073  19.574  0.00  0.00    +0.000 C 
ATOM     10  C   UNL     1      -0.219  10.784  18.288  0.00  0.00    +0.000 C 
ATOM     11  C   UNL     1       1.248  10.451  18.579  0.00  0.00    +0.000 C 
ATOM     12  N   UNL     1       2.727   8.140  18.186  0.00  0.00    +0.000 NA
ATOM     13  C   UNL     1       3.369   6.994  17.932  0.00  0.00    +0.000 A 
ATOM     14  N   UNL     1       4.122   6.984  16.750  0.00  0.00    +0.000 N 
ATOM     15  C   UNL     1       3.278   5.875  18.753  0.00  0.00    +0.000 A 
ATOM     16  C   UNL     1       3.908   4.627  18.507  0.00  0.00    +0.000 A 
ATOM     17  C   UNL     1       3.733   3.553  19.379  0.00  0.00    +0.000 A 
ATOM     18  H   UNL     1       4.048   7.918  16.355  0.00  0.00    +0.000 HD
ATOM     19  H   UNL     1       5.088   6.738  16.935  0.00  0.00    +0.000 HD
ENDROOT
BRANCH   1  21
ATOM     20  C   UNL     1       1.379   2.450  21.772  0.00  0.00    +0.000 C 
ATOM     21  O   UNL     1       2.721   2.652  21.332  0.00  0.00    +0.000 OA
ENDBRANCH   1  21
BRANCH  17  22
ATOM     22  O   UNL     1       4.307   2.320  19.212  0.00  0.00    +0.000 OA
ATOM     23  C   UNL     1       3.660   1.416  18.323  0.00  0.00    +0.000 C 
ENDBRANCH  17  22
BRANCH   9  24
ATOM     24  C   UNL     1      -0.616  12.426  20.209  0.00  0.00    +0.000 C 
BRANCH  24  25
ATOM     25  C   UNL     1      -1.559  12.977  21.297  0.00  0.00    +0.000 C 
ATOM     26  C   UNL     1      -3.036  12.721  20.969  0.00  0.00    +0.000 C 
ATOM     27  C   UNL     1      -3.745  12.886  22.300  0.00  0.00    +0.000 C 
ATOM     28  C   UNL     1      -2.778  12.322  23.329  0.00  0.00    +0.000 C 
ATOM     29  C   UNL     1      -1.385  12.373  22.698  0.00  0.00    +0.000 C 
ENDBRANCH  24  25
BRANCH  24  30
ATOM     30  O   UNL     1      -0.465  13.391  19.162  0.00  0.00    +0.000 OA
ATOM     31  H   UNL     1      -1.050  13.139  18.427  0.00  0.00    +0.000 HD
ENDBRANCH  24  30
ENDBRANCH   9  24
TORSDOF 5
ENDMDL
MODEL 3
REMARK VINA RESULT:      -7.6      1.048      1.221
REMARK  Name = 
REMARK  7 active torsions:
REMARK  status: ('A' for Active; 'I' for Inactive)
REMARK    1  A    between atoms: C_1  and  O_2
REMARK    2  A    between atoms: O_2  and  C_3
REMARK    3  A    between atoms: C_11  and  C_12
REMARK    4  A    between atoms: C_12  and  O_13
REMARK    5  A    between atoms: C_12  and  C_14
REMARK    6  A    between atoms: C_26  and  O_27
REMARK    7  A    between atoms: O_27  and  C_28
REMARK                            x       y       z     vdW  Elec       q    Type
REMARK                         _______ _______ _______ _____ _____    ______ ____
ROOT
ATOM      1  C   UNL     1      -0.956  11.524  18.714  0.00  0.00    +0.000 A 
ATOM      2  C   UNL     1      -0.132  10.427  18.426  0.00  0.00    +0.000 A 
ATOM      3  C   UNL     1       0.424   9.646  19.424  0.00  0.00    +0.000 A 
ATOM      4  N   UNL     1       1.168   8.593  19.075  0.00  0.00    +0.000 NA
ATOM      5  C   UNL     1       1.663   7.802  20.036  0.00  0.00    +0.000 A 
ATOM      6  N   UNL     1       2.393   6.695  19.669  0.00  0.00    +0.000 N 
ATOM      7  C   UNL     1       2.726   6.448  18.275  0.00  0.00    +0.000 C 
ATOM      8  C   UNL     1       2.172   5.086  17.857  0.00  0.00    +0.000 C 
ATOM      9  C   UNL     1       2.656   3.960  18.786  0.00  0.00    +0.000 C 
ATOM     10  C   UNL     1       2.256   4.327  20.235  0.00  0.00    +0.000 C 
ATOM     11  C   UNL     1       2.781   5.703  20.660  0.00  0.00    +0.000 C 
ATOM     12  N   UNL     1       1.468   8.048  21.339  0.00  0.00    +0.000 NA
ATOM     13  C   UNL     1       0.750   9.124  21.680  0.00  0.00    +0.000 A 
ATOM     14  N   UNL     1       0.587   9.316  23.059  0.00  0.00    +0.000 N 
ATOM     15  C   UNL     1       0.174   9.979  20.748  0.00  0.00    +0.000 A 
ATOM     16  C   UNL     1      -0.626  11.109  21.059  0.00  0.00    +0.000 A 
ATOM     17  C   UNL     1      -1.184  11.892  20.049  0.00  0.00    +0.000 A 
ATOM     18  H   UNL     1       1.122   8.582  23.517  0.00  0.00    +0.000 HD
ATOM     19  H   UNL     1       0.908  10.236  23.340  0.00  0.00    +0.000 HD
ENDROOT
BRANCH   1  21
ATOM     20  C   UNL     1      -2.415  11.589  16.860  0.00  0.00    +0.000 C 
ATOM     21  O   UNL     1      -1.531  12.292  17.731  0.00  0.00    +0.000 OA
ENDBRANCH   1  21
BRANCH  17  22
ATOM     22  O   UNL     1      -1.964  12.997  20.267  0.00  0.00    +0.000 OA
ATOM     23  C   UNL     1      -3.255  12.782  20.828  0.00  0.00    +0.000 C 
ENDBRANCH  17  22
BRANCH   9  24
ATOM     24  C   UNL     1       4.175   3.662  18.680  0.00  0.00    +0.000 C 
BRANCH  24  25
ATOM     25  C   UNL     1       4.955   4.499  17.646  0.00  0.00    +0.000 C 
ATOM     26  C   UNL     1       6.347   4.897  18.152  0.00  0.00    +0.000 C 
ATOM     27  C   UNL     1       7.106   5.275  16.894  0.00  0.00    +0.000 C 
ATOM     28  C   UNL     1       6.603   4.308  15.832  0.00  0.00    +0.000 C 
ATOM     29  C   UNL     1       5.236   3.808  16.304  0.00  0.00    +0.000 C 
ENDBRANCH  24  25
BRANCH  24  30
ATOM     30  O   UNL     1       4.346   2.267  18.406  0.00  0.00    +0.000 OA
ATOM     31  H   UNL     1       3.490   1.824  18.529  0.00  0.00    +0.000 HD
ENDBRANCH  24  30
ENDBRANCH   9  24
TORSDOF 5
ENDMDL
MODEL 4
REMARK VINA RESULT:      -7.5      0.806      1.205
REMARK  Name = 
REMARK  7 active torsions:
REMARK  status: ('A' for Active; 'I' for Inactive)
REMARK    1  A    between atoms: C_1  and  O_2
REMARK    2  A    between atoms: O_2  and  C_3
REMARK    3  A    between atoms: C_11  and  C_12
REMARK    4  A    between atoms: C_12  and  O_13
REMARK    5  A    between atoms: C_12  and  C_14
REMARK    6  A    between atoms: C_26  and  O_27
REMARK    7  A    between atoms: O_27  and  C_28
REMARK                            x       y       z     vdW  Elec       q    Type
REMARK                         _______ _______ _______ _____ _____    ______ ____
ROOT
ATOM      1  C   UNL     1      -0.162  12.404  19.352  0.00  0.00    +0.000 A 
ATOM      2  C   UNL     1       0.624  11.267  19.112  0.00  0.00    +0.000 A 
ATOM      3  C   UNL     1       0.641  10.191  19.982  0.00  0.00    +0.000 A 
ATOM      4  N   UNL     1       1.383   9.126  19.671  0.00  0.00    +0.000 NA
ATOM      5  C   UNL     1       1.360   8.060  20.481  0.00  0.00    +0.000 A 
ATOM      6  N   UNL     1       2.094   6.950  20.132  0.00  0.00    +0.000 N 
ATOM      7  C   UNL     1       2.973   6.969  18.975  0.00  0.00    +0.000 C 
ATOM      8  C   UNL     1       2.556   5.864  18.004  0.00  0.00    +0.000 C 
ATOM      9  C   UNL     1       2.511   4.486  18.688  0.00  0.00    +0.000 C 
ATOM     10  C   UNL     1       1.556   4.583  19.901  0.00  0.00    +0.000 C 
ATOM     11  C   UNL     1       1.946   5.705  20.870  0.00  0.00    +0.000 C 
ATOM     12  N   UNL     1       0.643   8.035  21.613  0.00  0.00    +0.000 NA
ATOM     13  C   UNL     1      -0.072   9.119  21.935  0.00  0.00    +0.000 A 
ATOM     14  N   UNL     1      -0.796   9.020  23.131  0.00  0.00    +0.000 N 
ATOM     15  C   UNL     1      -0.129  10.255  21.135  0.00  0.00    +0.000 A 
ATOM     16  C   UNL     1      -0.901  11.413  21.414  0.00  0.00    +0.000 A 
ATOM     17  C   UNL     1      -0.913  12.494  20.534  0.00  0.00    +0.000 A 
ATOM     18  H   UNL     1      -0.564   8.115  23.533  0.00  0.00    +0.000 HD
ATOM     19  H   UNL     1      -0.560   9.775  23.764  0.00  0.00    +0.000 HD
ENDROOT
BRANCH   1  21
ATOM     20  C   UNL     1       0.929  14.336  18.544  0.00  0.00    +0.000 C 
ATOM     21  O   UNL     1      -0.202  13.468  18.485  0.00  0.00    +0.000 OA
ENDBRANCH   1  21
BRANCH  17  22
ATOM     22  O   UNL     1      -1.629  13.646  20.732  0.00  0.00    +0.000 OA
ATOM     23  C   UNL     1      -1.270  14.451  21.850  0.00  0.00    +0.000 C 
ENDBRANCH  17  22
BRANCH   9  24
ATOM     24  C   UNL     1       3.903   3.944  19.108  0.00  0.00    +0.000 C 
BRANCH  24  25
ATOM     25  C   UNL     1       4.933   3.780  17.971  0.00  0.00    +0.000 C 
ATOM     26  C   UNL     1       4.277   3.802  16.585  0.00  0.00    +0.000 C 
ATOM     27  C   UNL     1       5.423   4.099  15.637  0.00  0.00    +0.000 C 
ATOM     28  C   UNL     1       6.317   5.066  16.399  0.00  0.00    +0.000 C 
ATOM     29  C   UNL     1       6.009   4.871  17.885  0.00  0.00    +0.000 C 
ENDBRANCH  24  25
BRANCH  24  30
ATOM     30  O   UNL     1       3.719   2.695  19.782  0.00  0.00    +0.000 OA
ATOM     31  H   UNL     1       3.046   2.184  19.301  0.00  0.00    +0.000 HD
ENDBRANCH  24  30
ENDBRANCH   9  24
TORSDOF 5
ENDMDL
MODEL 5
REMARK VINA RESULT:      -7.5      1.017      1.154
REMARK  Name = 
REMARK  7 active torsions:
REMARK  status: ('A' for Active; 'I' for Inactive)
REMARK    1  A    between atoms: C_1  and  O_2
REMARK    2  A    between atoms: O_2  and  C_3
REMARK    3  A    between atoms: C_11  and  C_12
REMARK    4  A    between atoms: C_12  and  O_13
REMARK    5  A    between atoms: C_12  and  C_14
REMARK    6  A    between atoms: C_26  and  O_27
REMARK    7  A    between atoms: O_27  and  C_28
REMARK                            x       y       z     vdW  Elec       q    Type
REMARK                         _______ _______ _______ _____ _____    ______ ____
ROOT
ATOM      1  C   UNL     1      -0.749  12.743  20.080  0.00  0.00    +0.000 A 
ATOM      2  C   UNL     1       0.052  11.695  19.606  0.00  0.00    +0.000 A 
ATOM      3  C   UNL     1       0.354  10.593  20.386  0.00  0.00    +0.000 A 
ATOM      4  N   UNL     1       1.092   9.615  19.855  0.00  0.00    +0.000 NA
ATOM      5  C   UNL     1       1.342   8.520  20.586  0.00  0.00    +0.000 A 
ATOM      6  N   UNL     1       2.067   7.498  20.019  0.00  0.00    +0.000 N 
ATOM      7  C   UNL     1       2.657   7.644  18.698  0.00  0.00    +0.000 C 
ATOM      8  C   UNL     1       2.123   6.544  17.781  0.00  0.00    +0.000 C 
ATOM      9  C   UNL     1       2.348   5.142  18.375  0.00  0.00    +0.000 C 
ATOM     10  C   UNL     1       1.688   5.102  19.774  0.00  0.00    +0.000 C 
ATOM     11  C   UNL     1       2.193   6.217  20.696  0.00  0.00    +0.000 C 
ATOM     12  N   UNL     1       0.904   8.384  21.845  0.00  0.00    +0.000 NA
ATOM     13  C   UNL     1       0.194   9.384  22.381  0.00  0.00    +0.000 A 
ATOM     14  N   UNL     1      -0.231   9.171  23.700  0.00  0.00    +0.000 N 
ATOM     15  C   UNL     1      -0.136  10.539  21.683  0.00  0.00    +0.000 A 
ATOM     16  C   UNL     1      -0.918  11.608  22.194  0.00  0.00    +0.000 A 
ATOM     17  C   UNL     1      -1.219  12.717  21.403  0.00  0.00    +0.000 A 
ATOM     18  H   UNL     1       0.161   8.276  23.987  0.00  0.00    +0.000 HD
ATOM     19  H   UNL     1       0.079   9.920  24.309  0.00  0.00    +0.000 HD
ENDROOT
BRANCH   1  21
ATOM     20  C   UNL     1       0.035  14.639  18.913  0.00  0.00    +0.000 C 
ATOM     21  O   UNL     1      -1.073  13.831  19.308  0.00  0.00    +0.000 OA
ENDBRANCH   1  21
BRANCH  17  22
ATOM     22  O   UNL     1      -1.964  13.788  21.822  0.00  0.00    +0.000 OA
ATOM     23  C   UNL     1      -1.456  14.545  22.916  0.00  0.00    +0.000 C 
ENDBRANCH  17  22
BRANCH   9  24
ATOM     24  C   UNL     1       3.839   4.717  18.443  0.00  0.00    +0.000 C 
BRANCH  24  25
ATOM     25  C   UNL     1       4.677   4.995  17.178  0.00  0.00    +0.000 C 
ATOM     26  C   UNL     1       6.140   5.312  17.510  0.00  0.00    +0.000 C 
ATOM     27  C   UNL     1       6.874   5.091  16.200  0.00  0.00    +0.000 C 
ATOM     28  C   UNL     1       6.168   3.907  15.555  0.00  0.00    +0.000 C 
ATOM     29  C   UNL     1       4.771   3.838  16.174  0.00  0.00    +0.000 C 
ENDBRANCH  24  25
BRANCH  24  30
ATOM     30  O   UNL     1       3.899   3.325  18.771  0.00  0.00    +0.000 OA
ATOM     31  H   UNL     1       3.521   2.820  18.032  0.00  0.00    +0.000 HD
ENDBRANCH  24  30
ENDBRANCH   9  24
TORSDOF 5
ENDMDL
MODEL 6
REMARK VINA RESULT:      -7.1      2.018      3.680
REMARK  Name = 
REMARK  7 active torsions:
REMARK  status: ('A' for Active; 'I' for Inactive)
REMARK    1  A    between atoms: C_1  and  O_2
REMARK    2  A    between atoms: O_2  and  C_3
REMARK    3  A    between atoms: C_11  and  C_12
REMARK    4  A    between atoms: C_12  and  O_13
REMARK    5  A    between atoms: C_12  and  C_14
REMARK    6  A    between atoms: C_26  and  O_27
REMARK    7  A    between atoms: O_27  and  C_28
REMARK                            x       y       z     vdW  Elec       q    Type
REMARK                         _______ _______ _______ _____ _____    ______ ____
ROOT
ATOM      1  C   UNL     1      -0.565  11.398  21.223  0.00  0.00    +0.000 A 
ATOM      2  C   UNL     1      -0.038  10.199  20.722  0.00  0.00    +0.000 A 
ATOM      3  C   UNL     1       0.839  10.173  19.652  0.00  0.00    +0.000 A 
ATOM      4  N   UNL     1       1.330   8.998  19.253  0.00  0.00    +0.000 NA
ATOM      5  C   UNL     1       2.221   8.973  18.253  0.00  0.00    +0.000 A 
ATOM      6  N   UNL     1       2.756   7.763  17.875  0.00  0.00    +0.000 N 
ATOM      7  C   UNL     1       2.279   6.521  18.460  0.00  0.00    +0.000 C 
ATOM      8  C   UNL     1       3.449   5.791  19.120  0.00  0.00    +0.000 C 
ATOM      9  C   UNL     1       4.615   5.572  18.141  0.00  0.00    +0.000 C 
ATOM     10  C   UNL     1       5.036   6.950  17.578  0.00  0.00    +0.000 C 
ATOM     11  C   UNL     1       3.866   7.706  16.938  0.00  0.00    +0.000 C 
ATOM     12  N   UNL     1       2.615  10.084  17.616  0.00  0.00    +0.000 NA
ATOM     13  C   UNL     1       2.092  11.255  17.999  0.00  0.00    +0.000 A 
ATOM     14  N   UNL     1       2.551  12.372  17.289  0.00  0.00    +0.000 N 
ATOM     15  C   UNL     1       1.186  11.373  19.047  0.00  0.00    +0.000 A 
ATOM     16  C   UNL     1       0.633  12.594  19.515  0.00  0.00    +0.000 A 
ATOM     17  C   UNL     1      -0.250  12.612  20.594  0.00  0.00    +0.000 A 
ATOM     18  H   UNL     1       3.175  12.017  16.567  0.00  0.00    +0.000 HD
ATOM     19  H   UNL     1       1.778  12.890  16.885  0.00  0.00    +0.000 HD
ENDROOT
BRANCH   1  21
ATOM     20  C   UNL     1      -1.153  10.467  23.311  0.00  0.00    +0.000 C 
ATOM     21  O   UNL     1      -1.418  11.436  22.298  0.00  0.00    +0.000 OA
ENDBRANCH   1  21
BRANCH  17  22
ATOM     22  O   UNL     1      -0.826  13.747  21.104  0.00  0.00    +0.000 OA
ATOM     23  C   UNL     1       0.009  14.617  21.860  0.00  0.00    +0.000 C 
ENDBRANCH  17  22
BRANCH   9  24
ATOM     24  C   UNL     1       4.301   4.569  16.999  0.00  0.00    +0.000 C 
BRANCH  24  25
ATOM     25  C   UNL     1       3.850   3.162  17.442  0.00  0.00    +0.000 C 
ATOM     26  C   UNL     1       4.330   2.819  18.858  0.00  0.00    +0.000 C 
ATOM     27  C   UNL     1       3.437   1.668  19.283  0.00  0.00    +0.000 C 
ATOM     28  C   UNL     1       2.080   1.984  18.673  0.00  0.00    +0.000 C 
ATOM     29  C   UNL     1       2.334   2.936  17.504  0.00  0.00    +0.000 C 
ENDBRANCH  24  25
BRANCH  24  30
ATOM     30  O   UNL     1       5.452   4.468  16.155  0.00  0.00    +0.000 OA
ATOM     31  H   UNL     1       5.530   5.291  15.644  0.00  0.00    +0.000 HD
ENDBRANCH  24  30
ENDBRANCH   9  24
TORSDOF 5
ENDMDL
MODEL 7
REMARK VINA RESULT:      -7.0      1.439      1.663
REMARK  Name = 
REMARK  7 active torsions:
REMARK  status: ('A' for Active; 'I' for Inactive)
REMARK    1  A    between atoms: C_1  and  O_2
REMARK    2  A    between atoms: O_2  and  C_3
REMARK    3  A    between atoms: C_11  and  C_12
REMARK    4  A    between atoms: C_12  and  O_13
REMARK    5  A    between atoms: C_12  and  C_14
REMARK    6  A    between atoms: C_26  and  O_27
REMARK    7  A    between atoms: O_27  and  C_28
REMARK                            x       y       z     vdW  Elec       q    Type
REMARK                         _______ _______ _______ _____ _____    ______ ____
ROOT
ATOM      1  C   UNL     1      -1.586  11.642  19.574  0.00  0.00    +0.000 A 
ATOM      2  C   UNL     1      -0.717  10.658  19.082  0.00  0.00    +0.000 A 
ATOM      3  C   UNL     1       0.055   9.875  19.923  0.00  0.00    +0.000 A 
ATOM      4  N   UNL     1       0.831   8.931  19.386  0.00  0.00    +0.000 NA
ATOM      5  C   UNL     1       1.539   8.135  20.198  0.00  0.00    +0.000 A 
ATOM      6  N   UNL     1       2.304   7.136  19.640  0.00  0.00    +0.000 N 
ATOM      7  C   UNL     1       2.443   7.019  18.198  0.00  0.00    +0.000 C 
ATOM      8  C   UNL     1       1.963   5.637  17.755  0.00  0.00    +0.000 C 
ATOM      9  C   UNL     1       2.685   4.508  18.510  0.00  0.00    +0.000 C 
ATOM     10  C   UNL     1       2.477   4.735  20.027  0.00  0.00    +0.000 C 
ATOM     11  C   UNL     1       2.929   6.127  20.481  0.00  0.00    +0.000 C 
ATOM     12  N   UNL     1       1.521   8.271  21.531  0.00  0.00    +0.000 NA
ATOM     13  C   UNL     1       0.766   9.242  22.059  0.00  0.00    +0.000 A 
ATOM     14  N   UNL     1       0.796   9.324  23.457  0.00  0.00    +0.000 N 
ATOM     15  C   UNL     1      -0.022  10.092  21.291  0.00  0.00    +0.000 A 
ATOM     16  C   UNL     1      -0.868  11.109  21.806  0.00  0.00    +0.000 A 
ATOM     17  C   UNL     1      -1.643  11.894  20.954  0.00  0.00    +0.000 A 
ATOM     18  H   UNL     1       1.461   8.620  23.772  0.00  0.00    +0.000 HD
ATOM     19  H   UNL     1       1.070  10.251  23.763  0.00  0.00    +0.000 HD
ENDROOT
BRANCH   1  21
ATOM     20  C   UNL     1      -3.451  11.712  18.128  0.00  0.00    +0.000 C 
ATOM     21  O   UNL     1      -2.373  12.409  18.750  0.00  0.00    +0.000 OA
ENDBRANCH   1  21
BRANCH  17  22
ATOM     22  O   UNL     1      -2.481  12.895  21.371  0.00  0.00    +0.000 OA
ATOM     23  C   UNL     1      -2.038  13.704  22.456  0.00  0.00    +0.000 C 
ENDBRANCH  17  22
BRANCH   9  24
ATOM     24  C   UNL     1       4.191   4.378  18.162  0.00  0.00    +0.000 C 
BRANCH  24  25
ATOM     25  C   UNL     1       4.554   4.536  16.671  0.00  0.00    +0.000 C 
ATOM     26  C   UNL     1       5.404   5.786  16.410  0.00  0.00    +0.000 C 
ATOM     27  C   UNL     1       6.034   5.529  15.054  0.00  0.00    +0.000 C 
ATOM     28  C   UNL     1       6.317   4.034  15.034  0.00  0.00    +0.000 C 
ATOM     29  C   UNL     1       5.382   3.396  16.062  0.00  0.00    +0.000 C 
ENDBRANCH  24  25
BRANCH  24  30
ATOM     30  O   UNL     1       4.662   3.116  18.646  0.00  0.00    +0.000 OA
ATOM     31  H   UNL     1       5.615   3.054  18.463  0.00  0.00    +0.000 HD
ENDBRANCH  24  30
ENDBRANCH   9  24
TORSDOF 5
ENDMDL
MODEL 8
REMARK VINA RESULT:      -7.0      1.287      1.709
REMARK  Name = 
REMARK  7 active torsions:
REMARK  status: ('A' for Active; 'I' for Inactive)
REMARK    1  A    between atoms: C_1  and  O_2
REMARK    2  A    between atoms: O_2  and  C_3
REMARK    3  A    between atoms: C_11  and  C_12
REMARK    4  A    between atoms: C_12  and  O_13
REMARK    5  A    between atoms: C_12  and  C_14
REMARK    6  A    between atoms: C_26  and  O_27
REMARK    7  A    between atoms: O_27  and  C_28
REMARK                            x       y       z     vdW  Elec       q    Type
REMARK                         _______ _______ _______ _____ _____    ______ ____
ROOT
ATOM      1  C   UNL     1      -1.098  11.453  18.572  0.00  0.00    +0.000 A 
ATOM      2  C   UNL     1      -0.129  10.471  18.324  0.00  0.00    +0.000 A 
ATOM      3  C   UNL     1       0.388   9.679  19.334  0.00  0.00    +0.000 A 
ATOM      4  N   UNL     1       1.281   8.738  19.018  0.00  0.00    +0.000 NA
ATOM      5  C   UNL     1       1.743   7.932  19.982  0.00  0.00    +0.000 A 
ATOM      6  N   UNL     1       2.630   6.937  19.643  0.00  0.00    +0.000 N 
ATOM      7  C   UNL     1       3.154   6.832  18.291  0.00  0.00    +0.000 C 
ATOM      8  C   UNL     1       2.811   5.456  17.720  0.00  0.00    +0.000 C 
ATOM      9  C   UNL     1       3.303   4.318  18.632  0.00  0.00    +0.000 C 
ATOM     10  C   UNL     1       2.693   4.531  20.038  0.00  0.00    +0.000 C 
ATOM     11  C   UNL     1       3.005   5.918  20.611  0.00  0.00    +0.000 C 
ATOM     12  N   UNL     1       1.366   8.056  21.262  0.00  0.00    +0.000 NA
ATOM     13  C   UNL     1       0.496   9.023  21.576  0.00  0.00    +0.000 A 
ATOM     14  N   UNL     1       0.148   9.092  22.932  0.00  0.00    +0.000 N 
ATOM     15  C   UNL     1      -0.056   9.882  20.633  0.00  0.00    +0.000 A 
ATOM     16  C   UNL     1      -1.009  10.897  20.910  0.00  0.00    +0.000 A 
ATOM     17  C   UNL     1      -1.525  11.692  19.888  0.00  0.00    +0.000 A 
ATOM     18  H   UNL     1       0.703   8.384  23.408  0.00  0.00    +0.000 HD
ATOM     19  H   UNL     1       0.328  10.016  23.309  0.00  0.00    +0.000 HD
ENDROOT
BRANCH   1  21
ATOM     20  C   UNL     1      -2.511  11.542  16.683  0.00  0.00    +0.000 C 
ATOM     21  O   UNL     1      -1.633  12.229  17.574  0.00  0.00    +0.000 OA
ENDBRANCH   1  21
BRANCH  17  22
ATOM     22  O   UNL     1      -2.445  12.691  20.073  0.00  0.00    +0.000 OA
ATOM     23  C   UNL     1      -2.001  13.869  20.739  0.00  0.00    +0.000 C 
ENDBRANCH  17  22
BRANCH   9  24
ATOM     24  C   UNL     1       4.847   4.188  18.702  0.00  0.00    +0.000 C 
BRANCH  24  25
ATOM     25  C   UNL     1       5.581   4.127  17.347  0.00  0.00    +0.000 C 
ATOM     26  C   UNL     1       4.637   3.768  16.192  0.00  0.00    +0.000 C 
ATOM     27  C   UNL     1       5.389   4.206  14.949  0.00  0.00    +0.000 C 
ATOM     28  C   UNL     1       6.118   5.475  15.363  0.00  0.00    +0.000 C 
ATOM     29  C   UNL     1       6.242   5.434  16.887  0.00  0.00    +0.000 C 
ENDBRANCH  24  25
BRANCH  24  30
ATOM     30  O   UNL     1       5.170   3.032  19.482  0.00  0.00    +0.000 OA
ATOM     31  H   UNL     1       5.444   2.322  18.877  0.00  0.00    +0.000 HD
ENDBRANCH  24  30
ENDBRANCH   9  24
TORSDOF 5
ENDMDL
MODEL 9
REMARK VINA RESULT:      -6.9      1.762      2.174
REMARK  Name = 
REMARK  7 active torsions:
REMARK  status: ('A' for Active; 'I' for Inactive)
REMARK    1  A    between atoms: C_1  and  O_2
REMARK    2  A    between atoms: O_2  and  C_3
REMARK    3  A    between atoms: C_11  and  C_12
REMARK    4  A    between atoms: C_12  and  O_13
REMARK    5  A    between atoms: C_12  and  C_14
REMARK    6  A    between atoms: C_26  and  O_27
REMARK    7  A    between atoms: O_27  and  C_28
REMARK                            x       y       z     vdW  Elec       q    Type
REMARK                         _______ _______ _______ _____ _____    ______ ____
ROOT
ATOM      1  C   UNL     1      -2.183  12.326  20.783  0.00  0.00    +0.000 A 
ATOM      2  C   UNL     1      -1.257  11.515  20.111  0.00  0.00    +0.000 A 
ATOM      3  C   UNL     1      -0.471  10.592  20.778  0.00  0.00    +0.000 A 
ATOM      4  N   UNL     1       0.362   9.827  20.068  0.00  0.00    +0.000 NA
ATOM      5  C   UNL     1       1.085   8.894  20.701  0.00  0.00    +0.000 A 
ATOM      6  N   UNL     1       1.909   8.081  19.958  0.00  0.00    +0.000 N 
ATOM      7  C   UNL     1       2.090   8.302  18.533  0.00  0.00    +0.000 C 
ATOM      8  C   UNL     1       1.685   7.040  17.770  0.00  0.00    +0.000 C 
ATOM      9  C   UNL     1       2.440   5.798  18.274  0.00  0.00    +0.000 C 
ATOM     10  C   UNL     1       2.184   5.664  19.794  0.00  0.00    +0.000 C 
ATOM     11  C   UNL     1       2.559   6.931  20.569  0.00  0.00    +0.000 C 
ATOM     12  N   UNL     1       1.028   8.722  22.029  0.00  0.00    +0.000 NA
ATOM     13  C   UNL     1       0.216   9.515  22.737  0.00  0.00    +0.000 A 
ATOM     14  N   UNL     1       0.208   9.277  24.118  0.00  0.00    +0.000 N 
ATOM     15  C   UNL     1      -0.591  10.487  22.156  0.00  0.00    +0.000 A 
ATOM     16  C   UNL     1      -1.495  11.325  22.859  0.00  0.00    +0.000 A 
ATOM     17  C   UNL     1      -2.285  12.253  22.181  0.00  0.00    +0.000 A 
ATOM     18  H   UNL     1       0.897   8.547  24.287  0.00  0.00    +0.000 HD
ATOM     19  H   UNL     1       0.431  10.120  24.635  0.00  0.00    +0.000 HD
ENDROOT
BRANCH   1  21
ATOM     20  C   UNL     1      -4.255  12.723  19.725  0.00  0.00    +0.000 C 
ATOM     21  O   UNL     1      -2.983  13.229  20.129  0.00  0.00    +0.000 OA
ENDBRANCH   1  21
BRANCH  17  22
ATOM     22  O   UNL     1      -3.178  13.099  22.786  0.00  0.00    +0.000 OA
ATOM     23  C   UNL     1      -4.227  12.503  23.543  0.00  0.00    +0.000 C 
ENDBRANCH  17  22
BRANCH   9  24
ATOM     24  C   UNL     1       3.958   5.810  17.958  0.00  0.00    +0.000 C 
BRANCH  24  25
ATOM     25  C   UNL     1       4.363   5.261  16.575  0.00  0.00    +0.000 C 
ATOM     26  C   UNL     1       5.472   6.095  15.921  0.00  0.00    +0.000 C 
ATOM     27  C   UNL     1       6.043   5.180  14.854  0.00  0.00    +0.000 C 
ATOM     28  C   UNL     1       5.989   3.789  15.466  0.00  0.00    +0.000 C 
ATOM     29  C   UNL     1       4.924   3.832  16.563  0.00  0.00    +0.000 C 
ENDBRANCH  24  25
BRANCH  24  30
ATOM     30  O   UNL     1       4.643   5.088  18.987  0.00  0.00    +0.000 OA
ATOM     31  H   UNL     1       4.473   4.139  18.860  0.00  0.00    +0.000 HD
ENDBRANCH  24  30
ENDBRANCH   9  24
TORSDOF 5
ENDMDL
