MODEL 1
REMARK VINA RESULT:      -6.2      0.000      0.000
REMARK  Name = 
REMARK  1 active torsions:
REMARK  status: ('A' for Active; 'I' for Inactive)
REMARK    1  A    between atoms: C_1  and  N_2
REMARK                            x       y       z     vdW  Elec       q    Type
REMARK                         _______ _______ _______ _____ _____    ______ ____
ROOT
ATOM      1  C   UNL     1       7.826   4.978  18.240  0.00  0.00    +0.000 C 
ATOM      2  N   UNL     1       6.674   4.727  17.420  0.00  0.00    +0.000 N 
ATOM      3  C   UNL     1       6.587   4.968  16.054  0.00  0.00    +0.000 C 
ATOM      4  O   UNL     1       7.450   5.429  15.323  0.00  0.00    +0.000 OA
ATOM      5  C   UNL     1       5.184   4.552  15.607  0.00  0.00    +0.000 C 
ATOM      6  C   UNL     1       4.574   4.069  16.881  0.00  0.00    +0.000 A 
ATOM      7  C   UNL     1       3.314   3.557  17.127  0.00  0.00    +0.000 A 
ATOM      8  C   UNL     1       3.026   3.188  18.438  0.00  0.00    +0.000 A 
ATOM      9 BR   UNL     1       1.335   2.480  18.876  0.00  0.00    +0.000 Br
ATOM     10  C   UNL     1       4.006   3.350  19.422  0.00  0.00    +0.000 A 
ATOM     11  N   UNL     1       5.250   3.852  19.191  0.00  0.00    +0.000 NA
ATOM     12  C   UNL     1       5.489   4.195  17.920  0.00  0.00    +0.000 A 
ENDROOT
TORSDOF 0
ENDMDL
MODEL 2
REMARK VINA RESULT:      -5.9      1.625      1.693
REMARK  Name = 
REMARK  1 active torsions:
REMARK  status: ('A' for Active; 'I' for Inactive)
REMARK    1  A    between atoms: C_1  and  N_2
REMARK                            x       y       z     vdW  Elec       q    Type
REMARK                         _______ _______ _______ _____ _____    ______ ____
ROOT
ATOM      1  C   UNL     1       7.586   4.700  17.859  0.00  0.00    +0.000 C 
ATOM      2  N   UNL     1       6.285   5.308  17.818  0.00  0.00    +0.000 N 
ATOM      3  C   UNL     1       5.965   6.487  17.155  0.00  0.00    +0.000 C 
ATOM      4  O   UNL     1       6.713   7.202  16.506  0.00  0.00    +0.000 OA
ATOM      5  C   UNL     1       4.475   6.747  17.384  0.00  0.00    +0.000 C 
ATOM      6  C   UNL     1       4.073   5.579  18.223  0.00  0.00    +0.000 A 
ATOM      7  C   UNL     1       2.840   5.246  18.751  0.00  0.00    +0.000 A 
ATOM      8  C   UNL     1       2.772   4.079  19.507  0.00  0.00    +0.000 A 
ATOM      9 BR   UNL     1       1.135   3.537  20.271  0.00  0.00    +0.000 Br
ATOM     10  C   UNL     1       3.929   3.317  19.689  0.00  0.00    +0.000 A 
ATOM     11  N   UNL     1       5.147   3.634  19.173  0.00  0.00    +0.000 NA
ATOM     12  C   UNL     1       5.174   4.763  18.453  0.00  0.00    +0.000 A 
ENDROOT
TORSDOF 0
ENDMDL
MODEL 3
REMARK VINA RESULT:      -5.9      1.279      1.279
REMARK  Name = 
REMARK  1 active torsions:
REMARK  status: ('A' for Active; 'I' for Inactive)
REMARK    1  A    between atoms: C_1  and  N_2
REMARK                            x       y       z     vdW  Elec       q    Type
REMARK                         _______ _______ _______ _____ _____    ______ ____
ROOT
ATOM      1  C   UNL     1       7.747   5.533  18.935  0.00  0.00    +0.000 C 
ATOM      2  N   UNL     1       6.534   5.643  18.174  0.00  0.00    +0.000 N 
ATOM      3  C   UNL     1       6.309   6.542  17.138  0.00  0.00    +0.000 C 
ATOM      4  O   UNL     1       7.081   7.380  16.699  0.00  0.00    +0.000 OA
ATOM      5  C   UNL     1       4.888   6.299  16.625  0.00  0.00    +0.000 C 
ATOM      6  C   UNL     1       4.420   5.184  17.501  0.00  0.00    +0.000 A 
ATOM      7  C   UNL     1       3.210   4.518  17.523  0.00  0.00    +0.000 A 
ATOM      8  C   UNL     1       3.061   3.508  18.469  0.00  0.00    +0.000 A 
ATOM      9 BR   UNL     1       1.447   2.539  18.579  0.00  0.00    +0.000 Br
ATOM     10  C   UNL     1       4.121   3.223  19.333  0.00  0.00    +0.000 A 
ATOM     11  N   UNL     1       5.318   3.872  19.321  0.00  0.00    +0.000 NA
ATOM     12  C   UNL     1       5.423   4.836  18.398  0.00  0.00    +0.000 A 
ENDROOT
TORSDOF 0
ENDMDL
MODEL 4
REMARK VINA RESULT:      -5.9      3.104      4.202
REMARK  Name = 
REMARK  1 active torsions:
REMARK  status: ('A' for Active; 'I' for Inactive)
REMARK    1  A    between atoms: C_1  and  N_2
REMARK                            x       y       z     vdW  Elec       q    Type
REMARK                         _______ _______ _______ _____ _____    ______ ____
ROOT
ATOM      1  C   UNL     1       7.719   6.686  18.123  0.00  0.00    +0.000 C 
ATOM      2  N   UNL     1       6.736   5.742  17.673  0.00  0.00    +0.000 N 
ATOM      3  C   UNL     1       5.728   5.191  18.454  0.00  0.00    +0.000 C 
ATOM      4  O   UNL     1       5.502   5.403  19.635  0.00  0.00    +0.000 OA
ATOM      5  C   UNL     1       4.926   4.242  17.560  0.00  0.00    +0.000 C 
ATOM      6  C   UNL     1       5.626   4.374  16.248  0.00  0.00    +0.000 A 
ATOM      7  C   UNL     1       5.365   3.765  15.035  0.00  0.00    +0.000 A 
ATOM      8  C   UNL     1       6.204   4.087  13.972  0.00  0.00    +0.000 A 
ATOM      9 BR   UNL     1       5.931   3.309  12.277  0.00  0.00    +0.000 Br
ATOM     10  C   UNL     1       7.247   4.994  14.179  0.00  0.00    +0.000 A 
ATOM     11  N   UNL     1       7.513   5.600  15.368  0.00  0.00    +0.000 NA
ATOM     12  C   UNL     1       6.686   5.265  16.366  0.00  0.00    +0.000 A 
ENDROOT
TORSDOF 0
ENDMDL
MODEL 5
REMARK VINA RESULT:      -5.8      1.374      1.374
REMARK  Name = 
REMARK  1 active torsions:
REMARK  status: ('A' for Active; 'I' for Inactive)
REMARK    1  A    between atoms: C_1  and  N_2
REMARK                            x       y       z     vdW  Elec       q    Type
REMARK                         _______ _______ _______ _____ _____    ______ ____
ROOT
ATOM      1  C   UNL     1       6.938   7.138  17.290  0.00  0.00    +0.000 C 
ATOM      2  N   UNL     1       6.276   5.969  16.785  0.00  0.00    +0.000 N 
ATOM      3  C   UNL     1       6.681   5.223  15.685  0.00  0.00    +0.000 C 
ATOM      4  O   UNL     1       7.648   5.423  14.966  0.00  0.00    +0.000 OA
ATOM      5  C   UNL     1       5.682   4.076  15.519  0.00  0.00    +0.000 C 
ATOM      6  C   UNL     1       4.735   4.313  16.649  0.00  0.00    +0.000 A 
ATOM      7  C   UNL     1       3.612   3.605  17.033  0.00  0.00    +0.000 A 
ATOM      8  C   UNL     1       2.917   4.075  18.143  0.00  0.00    +0.000 A 
ATOM      9 BR   UNL     1       1.372   3.178  18.747  0.00  0.00    +0.000 Br
ATOM     10  C   UNL     1       3.380   5.217  18.802  0.00  0.00    +0.000 A 
ATOM     11  N   UNL     1       4.484   5.922  18.434  0.00  0.00    +0.000 NA
ATOM     12  C   UNL     1       5.125   5.440  17.363  0.00  0.00    +0.000 A 
ENDROOT
TORSDOF 0
ENDMDL
MODEL 6
REMARK VINA RESULT:      -5.8      3.561      4.824
REMARK  Name = 
REMARK  1 active torsions:
REMARK  status: ('A' for Active; 'I' for Inactive)
REMARK    1  A    between atoms: C_1  and  N_2
REMARK                            x       y       z     vdW  Elec       q    Type
REMARK                         _______ _______ _______ _____ _____    ______ ____
ROOT
ATOM      1  C   UNL     1       1.057   4.337  20.471  0.00  0.00    +0.000 C 
ATOM      2  N   UNL     1       1.797   3.766  19.381  0.00  0.00    +0.000 N 
ATOM      3  C   UNL     1       1.330   2.786  18.513  0.00  0.00    +0.000 C 
ATOM      4  O   UNL     1       0.235   2.246  18.521  0.00  0.00    +0.000 OA
ATOM      5  C   UNL     1       2.453   2.486  17.518  0.00  0.00    +0.000 C 
ATOM      6  C   UNL     1       3.531   3.417  17.966  0.00  0.00    +0.000 A 
ATOM      7  C   UNL     1       4.800   3.619  17.458  0.00  0.00    +0.000 A 
ATOM      8  C   UNL     1       5.594   4.567  18.097  0.00  0.00    +0.000 A 
ATOM      9 BR   UNL     1       7.341   4.916  17.479  0.00  0.00    +0.000 Br
ATOM     10  C   UNL     1       5.079   5.255  19.199  0.00  0.00    +0.000 A 
ATOM     11  N   UNL     1       3.831   5.065  19.707  0.00  0.00    +0.000 NA
ATOM     12  C   UNL     1       3.098   4.146  19.067  0.00  0.00    +0.000 A 
ENDROOT
TORSDOF 0
ENDMDL
MODEL 7
REMARK VINA RESULT:      -5.7      1.823      2.206
REMARK  Name = 
REMARK  1 active torsions:
REMARK  status: ('A' for Active; 'I' for Inactive)
REMARK    1  A    between atoms: C_1  and  N_2
REMARK                            x       y       z     vdW  Elec       q    Type
REMARK                         _______ _______ _______ _____ _____    ______ ____
ROOT
ATOM      1  C   UNL     1       5.824   3.877  15.461  0.00  0.00    +0.000 C 
ATOM      2  N   UNL     1       5.041   4.720  16.320  0.00  0.00    +0.000 N 
ATOM      3  C   UNL     1       5.031   6.109  16.298  0.00  0.00    +0.000 C 
ATOM      4  O   UNL     1       5.671   6.846  15.564  0.00  0.00    +0.000 OA
ATOM      5  C   UNL     1       4.056   6.574  17.381  0.00  0.00    +0.000 C 
ATOM      6  C   UNL     1       3.570   5.282  17.948  0.00  0.00    +0.000 A 
ATOM      7  C   UNL     1       2.662   5.040  18.962  0.00  0.00    +0.000 A 
ATOM      8  C   UNL     1       2.407   3.708  19.278  0.00  0.00    +0.000 A 
ATOM      9 BR   UNL     1       1.185   3.274  20.646  0.00  0.00    +0.000 Br
ATOM     10  C   UNL     1       3.067   2.702  18.568  0.00  0.00    +0.000 A 
ATOM     11  N   UNL     1       3.961   2.928  17.567  0.00  0.00    +0.000 NA
ATOM     12  C   UNL     1       4.181   4.219  17.293  0.00  0.00    +0.000 A 
ENDROOT
TORSDOF 0
ENDMDL
MODEL 8
REMARK VINA RESULT:      -5.7      3.299      4.238
REMARK  Name = 
REMARK  1 active torsions:
REMARK  status: ('A' for Active; 'I' for Inactive)
REMARK    1  A    between atoms: C_1  and  N_2
REMARK                            x       y       z     vdW  Elec       q    Type
REMARK                         _______ _______ _______ _____ _____    ______ ____
ROOT
ATOM      1  C   UNL     1       4.328   2.235  20.155  0.00  0.00    +0.000 C 
ATOM      2  N   UNL     1       4.322   3.040  18.966  0.00  0.00    +0.000 N 
ATOM      3  C   UNL     1       3.483   2.859  17.873  0.00  0.00    +0.000 C 
ATOM      4  O   UNL     1       2.623   2.004  17.728  0.00  0.00    +0.000 OA
ATOM      5  C   UNL     1       3.830   3.942  16.849  0.00  0.00    +0.000 C 
ATOM      6  C   UNL     1       4.923   4.691  17.537  0.00  0.00    +0.000 A 
ATOM      7  C   UNL     1       5.649   5.791  17.119  0.00  0.00    +0.000 A 
ATOM      8  C   UNL     1       6.621   6.275  17.989  0.00  0.00    +0.000 A 
ATOM      9 BR   UNL     1       7.665   7.771  17.510  0.00  0.00    +0.000 Br
ATOM     10  C   UNL     1       6.812   5.639  19.219  0.00  0.00    +0.000 A 
ATOM     11  N   UNL     1       6.103   4.557  19.642  0.00  0.00    +0.000 NA
ATOM     12  C   UNL     1       5.178   4.120  18.778  0.00  0.00    +0.000 A 
ENDROOT
TORSDOF 0
ENDMDL
MODEL 9
REMARK VINA RESULT:      -5.5      3.358      4.580
REMARK  Name = 
REMARK  1 active torsions:
REMARK  status: ('A' for Active; 'I' for Inactive)
REMARK    1  A    between atoms: C_1  and  N_2
REMARK                            x       y       z     vdW  Elec       q    Type
REMARK                         _______ _______ _______ _____ _____    ______ ____
ROOT
ATOM      1  C   UNL     1       2.934   2.887  21.065  0.00  0.00    +0.000 C 
ATOM      2  N   UNL     1       2.828   3.145  19.656  0.00  0.00    +0.000 N 
ATOM      3  C   UNL     1       1.679   2.989  18.890  0.00  0.00    +0.000 C 
ATOM      4  O   UNL     1       0.580   2.612  19.266  0.00  0.00    +0.000 OA
ATOM      5  C   UNL     1       2.034   3.377  17.453  0.00  0.00    +0.000 C 
ATOM      6  C   UNL     1       3.474   3.751  17.571  0.00  0.00    +0.000 A 
ATOM      7  C   UNL     1       4.360   4.194  16.607  0.00  0.00    +0.000 A 
ATOM      8  C   UNL     1       5.661   4.465  17.022  0.00  0.00    +0.000 A 
ATOM      9 BR   UNL     1       6.945   5.075  15.783  0.00  0.00    +0.000 Br
ATOM     10  C   UNL     1       6.001   4.280  18.364  0.00  0.00    +0.000 A 
ATOM     11  N   UNL     1       5.137   3.845  19.322  0.00  0.00    +0.000 NA
ATOM     12  C   UNL     1       3.897   3.594  18.886  0.00  0.00    +0.000 A 
ENDROOT
TORSDOF 0
ENDMDL
