MODEL 1
REMARK VINA RESULT:      -7.5      0.000      0.000
REMARK  Name = 
REMARK  6 active torsions:
REMARK  status: ('A' for Active; 'I' for Inactive)
REMARK    1  A    between atoms: C_2  and  O_3
REMARK    2  A    between atoms: C_2  and  C_4
REMARK    3  A    between atoms: C_4  and  S_11
REMARK    4  A    between atoms: C_5  and  C_6
REMARK    5  A    between atoms: S_11  and  C_12
REMARK    6  A    between atoms: C_15  and  C_16
REMARK                            x       y       z     vdW  Elec       q    Type
REMARK                         _______ _______ _______ _____ _____    ______ ____
ROOT
ATOM      1  S   UNL     1       7.726   5.453  18.584  0.00  0.00    +0.000 S 
ENDROOT
BRANCH   1   2
ATOM      2  C   UNL     1       7.761   7.152  18.237  0.00  0.00    +0.000 A 
ATOM      3  N   UNL     1       7.041   7.743  17.307  0.00  0.00    +0.000 NA
ATOM      4  N   UNL     1       7.435   9.070  17.291  0.00  0.00    +0.000 NA
ATOM      5  C   UNL     1       8.371   9.193  18.209  0.00  0.00    +0.000 A 
ATOM      6  O   UNL     1       8.631   8.011  18.853  0.00  0.00    +0.000 OA
BRANCH   5   7
ATOM      7  C   UNL     1       9.120  10.365  18.649  0.00  0.00    +0.000 A 
ATOM      8  C   UNL     1       9.251  11.476  17.796  0.00  0.00    +0.000 A 
ATOM      9  C   UNL     1       9.926  12.625  18.221  0.00  0.00    +0.000 A 
ATOM     10  C   UNL     1      10.479  12.668  19.494  0.00  0.00    +0.000 A 
ATOM     11  F   UNL     1      11.111  13.773  19.905  0.00  0.00    +0.000 F 
ATOM     12  C   UNL     1      10.381  11.577  20.348  0.00  0.00    +0.000 A 
ATOM     13  C   UNL     1       9.706  10.428  19.926  0.00  0.00    +0.000 A 
ENDBRANCH   5   7
ENDBRANCH   1   2
BRANCH   1  14
ATOM     14  C   UNL     1       6.133   5.081  17.959  0.00  0.00    +0.000 C 
ATOM     15  C   UNL     1       5.075   5.022  18.793  0.00  0.00    +0.000 C 
BRANCH  15  16
ATOM     16  C   UNL     1       3.793   4.519  18.434  0.00  0.00    +0.000 A 
ATOM     17  C   UNL     1       2.668   5.183  17.983  0.00  0.00    +0.000 A 
ATOM     18  C   UNL     1       1.559   4.306  17.768  0.00  0.00    +0.000 A 
ATOM     19  C   UNL     1       1.869   3.001  18.068  0.00  0.00    +0.000 A 
ATOM     20  S   UNL     1       3.475   2.835  18.619  0.00  0.00    +0.000 S 
ENDBRANCH  15  16
BRANCH  14  22
ATOM     21  O   UNL     1       5.392   5.244  15.662  0.00  0.00    +0.000 OA
ATOM     22  C   UNL     1       6.068   4.687  16.511  0.00  0.00    +0.000 C 
BRANCH  22  23
ATOM     23  O   UNL     1       6.847   3.622  16.199  0.00  0.00    +0.000 OA
ATOM     24  H   UNL     1       7.247   3.685  15.309  0.00  0.00    +0.000 HD
ENDBRANCH  22  23
ENDBRANCH  14  22
ENDBRANCH   1  14
TORSDOF 6
ENDMDL
MODEL 2
REMARK VINA RESULT:      -7.5      5.552      7.474
REMARK  Name = 
REMARK  6 active torsions:
REMARK  status: ('A' for Active; 'I' for Inactive)
REMARK    1  A    between atoms: C_2  and  O_3
REMARK    2  A    between atoms: C_2  and  C_4
REMARK    3  A    between atoms: C_4  and  S_11
REMARK    4  A    between atoms: C_5  and  C_6
REMARK    5  A    between atoms: S_11  and  C_12
REMARK    6  A    between atoms: C_15  and  C_16
REMARK                            x       y       z     vdW  Elec       q    Type
REMARK                         _______ _______ _______ _____ _____    ______ ____
ROOT
ATOM      1  S   UNL     1       4.959   6.886  17.259  0.00  0.00    +0.000 S 
ENDROOT
BRANCH   1   2
ATOM      2  C   UNL     1       5.947   6.038  16.112  0.00  0.00    +0.000 A 
ATOM      3  N   UNL     1       7.255   6.147  16.022  0.00  0.00    +0.000 NA
ATOM      4  N   UNL     1       7.638   5.391  14.927  0.00  0.00    +0.000 NA
ATOM      5  C   UNL     1       6.534   4.878  14.423  0.00  0.00    +0.000 A 
ATOM      6  O   UNL     1       5.417   5.248  15.127  0.00  0.00    +0.000 OA
BRANCH   5   7
ATOM      7  C   UNL     1       6.337   3.981  13.290  0.00  0.00    +0.000 A 
ATOM      8  C   UNL     1       7.448   3.495  12.577  0.00  0.00    +0.000 A 
ATOM      9  C   UNL     1       7.277   2.597  11.518  0.00  0.00    +0.000 A 
ATOM     10  C   UNL     1       5.999   2.188  11.161  0.00  0.00    +0.000 A 
ATOM     11  F   UNL     1       5.837   1.318  10.158  0.00  0.00    +0.000 F 
ATOM     12  C   UNL     1       4.884   2.670  11.836  0.00  0.00    +0.000 A 
ATOM     13  C   UNL     1       5.052   3.566  12.895  0.00  0.00    +0.000 A 
ENDBRANCH   5   7
ENDBRANCH   1   2
BRANCH   1  14
ATOM     14  C   UNL     1       4.206   5.509  18.037  0.00  0.00    +0.000 C 
ATOM     15  C   UNL     1       2.863   5.426  18.115  0.00  0.00    +0.000 C 
BRANCH  15  16
ATOM     16  C   UNL     1       2.158   4.476  18.907  0.00  0.00    +0.000 A 
ATOM     17  C   UNL     1       1.464   3.341  18.533  0.00  0.00    +0.000 A 
ATOM     18  C   UNL     1       0.860   2.673  19.644  0.00  0.00    +0.000 A 
ATOM     19  C   UNL     1       1.106   3.322  20.831  0.00  0.00    +0.000 A 
ATOM     20  S   UNL     1       2.041   4.730  20.608  0.00  0.00    +0.000 S 
ENDBRANCH  15  16
BRANCH  14  22
ATOM     21  O   UNL     1       5.886   4.841  19.644  0.00  0.00    +0.000 OA
ATOM     22  C   UNL     1       5.136   4.551  18.726  0.00  0.00    +0.000 C 
BRANCH  22  23
ATOM     23  O   UNL     1       5.084   3.289  18.236  0.00  0.00    +0.000 OA
ATOM     24  H   UNL     1       5.749   3.119  17.540  0.00  0.00    +0.000 HD
ENDBRANCH  22  23
ENDBRANCH  14  22
ENDBRANCH   1  14
TORSDOF 6
ENDMDL
MODEL 3
REMARK VINA RESULT:      -7.5      0.761      1.335
REMARK  Name = 
REMARK  6 active torsions:
REMARK  status: ('A' for Active; 'I' for Inactive)
REMARK    1  A    between atoms: C_2  and  O_3
REMARK    2  A    between atoms: C_2  and  C_4
REMARK    3  A    between atoms: C_4  and  S_11
REMARK    4  A    between atoms: C_5  and  C_6
REMARK    5  A    between atoms: S_11  and  C_12
REMARK    6  A    between atoms: C_15  and  C_16
REMARK                            x       y       z     vdW  Elec       q    Type
REMARK                         _______ _______ _______ _____ _____    ______ ____
ROOT
ATOM      1  S   UNL     1       7.743   5.429  18.522  0.00  0.00    +0.000 S 
ENDROOT
BRANCH   1   2
ATOM      2  C   UNL     1       7.816   7.134  18.208  0.00  0.00    +0.000 A 
ATOM      3  N   UNL     1       7.163   7.748  17.245  0.00  0.00    +0.000 NA
ATOM      4  N   UNL     1       7.570   9.071  17.277  0.00  0.00    +0.000 NA
ATOM      5  C   UNL     1       8.447   9.168  18.255  0.00  0.00    +0.000 A 
ATOM      6  O   UNL     1       8.654   7.972  18.892  0.00  0.00    +0.000 OA
BRANCH   5   7
ATOM      7  C   UNL     1       9.178  10.324  18.762  0.00  0.00    +0.000 A 
ATOM      8  C   UNL     1       9.347  10.496  20.148  0.00  0.00    +0.000 A 
ATOM      9  C   UNL     1      10.086  11.574  20.647  0.00  0.00    +0.000 A 
ATOM     10  C   UNL     1      10.651  12.487  19.769  0.00  0.00    +0.000 A 
ATOM     11  F   UNL     1      11.371  13.509  20.246  0.00  0.00    +0.000 F 
ATOM     12  C   UNL     1      10.482  12.351  18.396  0.00  0.00    +0.000 A 
ATOM     13  C   UNL     1       9.746  11.275  17.895  0.00  0.00    +0.000 A 
ENDBRANCH   5   7
ENDBRANCH   1   2
BRANCH   1  14
ATOM     14  C   UNL     1       6.104   5.125  17.984  0.00  0.00    +0.000 C 
ATOM     15  C   UNL     1       5.102   5.032  18.882  0.00  0.00    +0.000 C 
BRANCH  15  16
ATOM     16  C   UNL     1       3.789   4.575  18.580  0.00  0.00    +0.000 A 
ATOM     17  C   UNL     1       3.294   3.289  18.469  0.00  0.00    +0.000 A 
ATOM     18  C   UNL     1       1.910   3.260  18.110  0.00  0.00    +0.000 A 
ATOM     19  C   UNL     1       1.393   4.523  17.950  0.00  0.00    +0.000 A 
ATOM     20  S   UNL     1       2.565   5.733  18.214  0.00  0.00    +0.000 S 
ENDBRANCH  15  16
BRANCH  14  22
ATOM     21  O   UNL     1       5.296   5.502  15.736  0.00  0.00    +0.000 OA
ATOM     22  C   UNL     1       5.935   4.823  16.522  0.00  0.00    +0.000 C 
BRANCH  22  23
ATOM     23  O   UNL     1       6.569   3.695  16.120  0.00  0.00    +0.000 OA
ATOM     24  H   UNL     1       6.121   3.244  15.378  0.00  0.00    +0.000 HD
ENDBRANCH  22  23
ENDBRANCH  14  22
ENDBRANCH   1  14
TORSDOF 6
ENDMDL
MODEL 4
REMARK VINA RESULT:      -7.5      5.554      6.840
REMARK  Name = 
REMARK  6 active torsions:
REMARK  status: ('A' for Active; 'I' for Inactive)
REMARK    1  A    between atoms: C_2  and  O_3
REMARK    2  A    between atoms: C_2  and  C_4
REMARK    3  A    between atoms: C_4  and  S_11
REMARK    4  A    between atoms: C_5  and  C_6
REMARK    5  A    between atoms: S_11  and  C_12
REMARK    6  A    between atoms: C_15  and  C_16
REMARK                            x       y       z     vdW  Elec       q    Type
REMARK                         _______ _______ _______ _____ _____    ______ ____
ROOT
ATOM      1  S   UNL     1       4.300   3.648  19.274  0.00  0.00    +0.000 S 
ENDROOT
BRANCH   1   2
ATOM      2  C   UNL     1       5.565   4.018  18.145  0.00  0.00    +0.000 A 
ATOM      3  N   UNL     1       6.760   4.458  18.475  0.00  0.00    +0.000 NA
ATOM      4  N   UNL     1       7.424   4.720  17.289  0.00  0.00    +0.000 NA
ATOM      5  C   UNL     1       6.583   4.426  16.318  0.00  0.00    +0.000 A 
ATOM      6  O   UNL     1       5.378   3.972  16.790  0.00  0.00    +0.000 OA
BRANCH   5   7
ATOM      7  C   UNL     1       6.751   4.477  14.870  0.00  0.00    +0.000 A 
ATOM      8  C   UNL     1       7.711   5.336  14.305  0.00  0.00    +0.000 A 
ATOM      9  C   UNL     1       7.916   5.362  12.921  0.00  0.00    +0.000 A 
ATOM     10  C   UNL     1       7.160   4.539  12.097  0.00  0.00    +0.000 A 
ATOM     11  F   UNL     1       7.367   4.554  10.776  0.00  0.00    +0.000 F 
ATOM     12  C   UNL     1       6.191   3.698  12.629  0.00  0.00    +0.000 A 
ATOM     13  C   UNL     1       5.985   3.669  14.011  0.00  0.00    +0.000 A 
ENDBRANCH   5   7
ENDBRANCH   1   2
BRANCH   1  14
ATOM     14  C   UNL     1       3.170   4.913  18.837  0.00  0.00    +0.000 C 
ATOM     15  C   UNL     1       3.542   6.207  18.906  0.00  0.00    +0.000 C 
BRANCH  15  16
ATOM     16  C   UNL     1       2.649   7.310  18.789  0.00  0.00    +0.000 A 
ATOM     17  C   UNL     1       2.348   8.103  17.697  0.00  0.00    +0.000 A 
ATOM     18  C   UNL     1       1.416   9.142  18.011  0.00  0.00    +0.000 A 
ATOM     19  C   UNL     1       1.041   9.114  19.333  0.00  0.00    +0.000 A 
ATOM     20  S   UNL     1       1.814   7.861  20.192  0.00  0.00    +0.000 S 
ENDBRANCH  15  16
BRANCH  14  22
ATOM     21  O   UNL     1       1.281   4.343  17.438  0.00  0.00    +0.000 OA
ATOM     22  C   UNL     1       1.763   4.470  18.551  0.00  0.00    +0.000 C 
BRANCH  22  23
ATOM     23  O   UNL     1       1.034   4.213  19.664  0.00  0.00    +0.000 OA
ATOM     24  H   UNL     1       1.156   3.304  20.003  0.00  0.00    +0.000 HD
ENDBRANCH  22  23
ENDBRANCH  14  22
ENDBRANCH   1  14
TORSDOF 6
ENDMDL
MODEL 5
REMARK VINA RESULT:      -7.5      5.585      7.471
REMARK  Name = 
REMARK  6 active torsions:
REMARK  status: ('A' for Active; 'I' for Inactive)
REMARK    1  A    between atoms: C_2  and  O_3
REMARK    2  A    between atoms: C_2  and  C_4
REMARK    3  A    between atoms: C_4  and  S_11
REMARK    4  A    between atoms: C_5  and  C_6
REMARK    5  A    between atoms: S_11  and  C_12
REMARK    6  A    between atoms: C_15  and  C_16
REMARK                            x       y       z     vdW  Elec       q    Type
REMARK                         _______ _______ _______ _____ _____    ______ ____
ROOT
ATOM      1  S   UNL     1       4.960   6.811  17.245  0.00  0.00    +0.000 S 
ENDROOT
BRANCH   1   2
ATOM      2  C   UNL     1       5.962   5.993  16.089  0.00  0.00    +0.000 A 
ATOM      3  N   UNL     1       7.260   6.168  15.963  0.00  0.00    +0.000 NA
ATOM      4  N   UNL     1       7.654   5.412  14.873  0.00  0.00    +0.000 NA
ATOM      5  C   UNL     1       6.567   4.833  14.407  0.00  0.00    +0.000 A 
ATOM      6  O   UNL     1       5.450   5.157  15.133  0.00  0.00    +0.000 OA
BRANCH   5   7
ATOM      7  C   UNL     1       6.388   3.905  13.296  0.00  0.00    +0.000 A 
ATOM      8  C   UNL     1       5.094   3.502  12.919  0.00  0.00    +0.000 A 
ATOM      9  C   UNL     1       4.904   2.650  11.825  0.00  0.00    +0.000 A 
ATOM     10  C   UNL     1       6.002   2.191  11.111  0.00  0.00    +0.000 A 
ATOM     11  F   UNL     1       5.818   1.389  10.056  0.00  0.00    +0.000 F 
ATOM     12  C   UNL     1       7.291   2.558  11.476  0.00  0.00    +0.000 A 
ATOM     13  C   UNL     1       7.484   3.409  12.567  0.00  0.00    +0.000 A 
ENDBRANCH   5   7
ENDBRANCH   1   2
BRANCH   1  14
ATOM     14  C   UNL     1       4.142   5.419  17.926  0.00  0.00    +0.000 C 
ATOM     15  C   UNL     1       2.826   5.479  18.213  0.00  0.00    +0.000 C 
BRANCH  15  16
ATOM     16  C   UNL     1       2.118   4.499  18.962  0.00  0.00    +0.000 A 
ATOM     17  C   UNL     1       1.357   3.427  18.535  0.00  0.00    +0.000 A 
ATOM     18  C   UNL     1       0.777   2.695  19.619  0.00  0.00    +0.000 A 
ATOM     19  C   UNL     1       1.107   3.236  20.839  0.00  0.00    +0.000 A 
ATOM     20  S   UNL     1       2.092   4.619  20.681  0.00  0.00    +0.000 S 
ENDBRANCH  15  16
BRANCH  14  22
ATOM     21  O   UNL     1       5.755   4.225  19.277  0.00  0.00    +0.000 OA
ATOM     22  C   UNL     1       5.019   4.259  18.304  0.00  0.00    +0.000 C 
BRANCH  22  23
ATOM     23  O   UNL     1       4.934   3.209  17.452  0.00  0.00    +0.000 OA
ATOM     24  H   UNL     1       4.197   3.288  16.815  0.00  0.00    +0.000 HD
ENDBRANCH  22  23
ENDBRANCH  14  22
ENDBRANCH   1  14
TORSDOF 6
ENDMDL
MODEL 6
REMARK VINA RESULT:      -7.5      1.109      1.210
REMARK  Name = 
REMARK  6 active torsions:
REMARK  status: ('A' for Active; 'I' for Inactive)
REMARK    1  A    between atoms: C_2  and  O_3
REMARK    2  A    between atoms: C_2  and  C_4
REMARK    3  A    between atoms: C_4  and  S_11
REMARK    4  A    between atoms: C_5  and  C_6
REMARK    5  A    between atoms: S_11  and  C_12
REMARK    6  A    between atoms: C_15  and  C_16
REMARK                            x       y       z     vdW  Elec       q    Type
REMARK                         _______ _______ _______ _____ _____    ______ ____
ROOT
ATOM      1  S   UNL     1       7.736   5.273  18.243  0.00  0.00    +0.000 S 
ENDROOT
BRANCH   1   2
ATOM      2  C   UNL     1       7.758   6.997  18.048  0.00  0.00    +0.000 A 
ATOM      3  N   UNL     1       7.041   7.663  17.169  0.00  0.00    +0.000 NA
ATOM      4  N   UNL     1       7.424   8.989  17.273  0.00  0.00    +0.000 NA
ATOM      5  C   UNL     1       8.352   9.037  18.207  0.00  0.00    +0.000 A 
ATOM      6  O   UNL     1       8.617   7.804  18.745  0.00  0.00    +0.000 OA
BRANCH   5   7
ATOM      7  C   UNL     1       9.088  10.171  18.755  0.00  0.00    +0.000 A 
ATOM      8  C   UNL     1       9.654  11.125  17.890  0.00  0.00    +0.000 A 
ATOM      9  C   UNL     1      10.322  12.243  18.402  0.00  0.00    +0.000 A 
ATOM     10  C   UNL     1      10.435  12.408  19.775  0.00  0.00    +0.000 A 
ATOM     11  F   UNL     1      11.061  13.485  20.264  0.00  0.00    +0.000 F 
ATOM     12  C   UNL     1       9.903  11.469  20.650  0.00  0.00    +0.000 A 
ATOM     13  C   UNL     1       9.235  10.353  20.142  0.00  0.00    +0.000 A 
ENDBRANCH   5   7
ENDBRANCH   1   2
BRANCH   1  14
ATOM     14  C   UNL     1       6.002   5.022  18.226  0.00  0.00    +0.000 C 
ATOM     15  C   UNL     1       5.295   5.094  19.371  0.00  0.00    +0.000 C 
BRANCH  15  16
ATOM     16  C   UNL     1       3.936   4.695  19.506  0.00  0.00    +0.000 A 
ATOM     17  C   UNL     1       3.373   3.433  19.514  0.00  0.00    +0.000 A 
ATOM     18  C   UNL     1       1.948   3.466  19.637  0.00  0.00    +0.000 A 
ATOM     19  C   UNL     1       1.467   4.752  19.711  0.00  0.00    +0.000 A 
ATOM     20  S   UNL     1       2.717   5.908  19.619  0.00  0.00    +0.000 S 
ENDBRANCH  15  16
BRANCH  14  22
ATOM     21  O   UNL     1       4.689   5.252  16.207  0.00  0.00    +0.000 OA
ATOM     22  C   UNL     1       5.414   4.575  16.917  0.00  0.00    +0.000 C 
BRANCH  22  23
ATOM     23  O   UNL     1       5.759   3.313  16.565  0.00  0.00    +0.000 OA
ATOM     24  H   UNL     1       5.215   2.628  17.002  0.00  0.00    +0.000 HD
ENDBRANCH  22  23
ENDBRANCH  14  22
ENDBRANCH   1  14
TORSDOF 6
ENDMDL
MODEL 7
REMARK VINA RESULT:      -7.4      1.920      2.393
REMARK  Name = 
REMARK  6 active torsions:
REMARK  status: ('A' for Active; 'I' for Inactive)
REMARK    1  A    between atoms: C_2  and  O_3
REMARK    2  A    between atoms: C_2  and  C_4
REMARK    3  A    between atoms: C_4  and  S_11
REMARK    4  A    between atoms: C_5  and  C_6
REMARK    5  A    between atoms: S_11  and  C_12
REMARK    6  A    between atoms: C_15  and  C_16
REMARK                            x       y       z     vdW  Elec       q    Type
REMARK                         _______ _______ _______ _____ _____    ______ ____
ROOT
ATOM      1  S   UNL     1       5.511   6.006  15.955  0.00  0.00    +0.000 S 
ENDROOT
BRANCH   1   2
ATOM      2  C   UNL     1       6.707   6.701  17.002  0.00  0.00    +0.000 A 
ATOM      3  N   UNL     1       7.383   6.038  17.916  0.00  0.00    +0.000 NA
ATOM      4  N   UNL     1       8.152   6.970  18.590  0.00  0.00    +0.000 NA
ATOM      5  C   UNL     1       7.886   8.139  18.043  0.00  0.00    +0.000 A 
ATOM      6  O   UNL     1       6.973   8.044  17.025  0.00  0.00    +0.000 OA
BRANCH   5   7
ATOM      7  C   UNL     1       8.425   9.464  18.329  0.00  0.00    +0.000 A 
ATOM      8  C   UNL     1       9.272   9.654  19.436  0.00  0.00    +0.000 A 
ATOM      9  C   UNL     1       9.834  10.909  19.695  0.00  0.00    +0.000 A 
ATOM     10  C   UNL     1       9.548  11.978  18.857  0.00  0.00    +0.000 A 
ATOM     11  F   UNL     1      10.098  13.174  19.097  0.00  0.00    +0.000 F 
ATOM     12  C   UNL     1       8.698  11.821  17.769  0.00  0.00    +0.000 A 
ATOM     13  C   UNL     1       8.136  10.569  17.508  0.00  0.00    +0.000 A 
ENDBRANCH   5   7
ENDBRANCH   1   2
BRANCH   1  14
ATOM     14  C   UNL     1       4.511   5.229  17.165  0.00  0.00    +0.000 C 
ATOM     15  C   UNL     1       4.012   3.996  16.943  0.00  0.00    +0.000 C 
BRANCH  15  16
ATOM     16  C   UNL     1       3.022   3.370  17.750  0.00  0.00    +0.000 A 
ATOM     17  C   UNL     1       1.667   3.622  17.857  0.00  0.00    +0.000 A 
ATOM     18  C   UNL     1       1.025   2.783  18.822  0.00  0.00    +0.000 A 
ATOM     19  C   UNL     1       1.910   1.922  19.426  0.00  0.00    +0.000 A 
ATOM     20  S   UNL     1       3.501   2.132  18.850  0.00  0.00    +0.000 S 
ENDBRANCH  15  16
BRANCH  14  22
ATOM     21  O   UNL     1       3.417   7.060  18.307  0.00  0.00    +0.000 OA
ATOM     22  C   UNL     1       4.134   6.073  18.350  0.00  0.00    +0.000 C 
BRANCH  22  23
ATOM     23  O   UNL     1       4.669   5.646  19.519  0.00  0.00    +0.000 OA
ATOM     24  H   UNL     1       5.641   5.543  19.483  0.00  0.00    +0.000 HD
ENDBRANCH  22  23
ENDBRANCH  14  22
ENDBRANCH   1  14
TORSDOF 6
ENDMDL
MODEL 8
REMARK VINA RESULT:      -7.3      7.002      9.195
REMARK  Name = 
REMARK  6 active torsions:
REMARK  status: ('A' for Active; 'I' for Inactive)
REMARK    1  A    between atoms: C_2  and  O_3
REMARK    2  A    between atoms: C_2  and  C_4
REMARK    3  A    between atoms: C_4  and  S_11
REMARK    4  A    between atoms: C_5  and  C_6
REMARK    5  A    between atoms: S_11  and  C_12
REMARK    6  A    between atoms: C_15  and  C_16
REMARK                            x       y       z     vdW  Elec       q    Type
REMARK                         _______ _______ _______ _____ _____    ______ ____
ROOT
ATOM      1  S   UNL     1       0.517  10.264  20.332  0.00  0.00    +0.000 S 
ENDROOT
BRANCH   1   2
ATOM      2  C   UNL     1       1.460   9.388  19.169  0.00  0.00    +0.000 A 
ATOM      3  N   UNL     1       1.908   9.887  18.036  0.00  0.00    +0.000 NA
ATOM      4  N   UNL     1       2.521   8.844  17.363  0.00  0.00    +0.000 NA
ATOM      5  C   UNL     1       2.398   7.781  18.131  0.00  0.00    +0.000 A 
ATOM      6  O   UNL     1       1.733   8.053  19.298  0.00  0.00    +0.000 OA
BRANCH   5   7
ATOM      7  C   UNL     1       2.878   6.416  17.944  0.00  0.00    +0.000 A 
ATOM      8  C   UNL     1       1.993   5.333  18.097  0.00  0.00    +0.000 A 
ATOM      9  C   UNL     1       2.426   4.022  17.876  0.00  0.00    +0.000 A 
ATOM     10  C   UNL     1       3.743   3.785  17.509  0.00  0.00    +0.000 A 
ATOM     11  F   UNL     1       4.153   2.531  17.282  0.00  0.00    +0.000 F 
ATOM     12  C   UNL     1       4.643   4.835  17.371  0.00  0.00    +0.000 A 
ATOM     13  C   UNL     1       4.212   6.145  17.591  0.00  0.00    +0.000 A 
ENDBRANCH   5   7
ENDBRANCH   1   2
BRANCH   1  14
ATOM     14  C   UNL     1      -0.713  10.900  19.259  0.00  0.00    +0.000 C 
ATOM     15  C   UNL     1      -1.608  10.070  18.687  0.00  0.00    +0.000 C 
BRANCH  15  16
ATOM     16  C   UNL     1      -2.500  10.442  17.642  0.00  0.00    +0.000 A 
ATOM     17  C   UNL     1      -2.359  10.341  16.271  0.00  0.00    +0.000 A 
ATOM     18  C   UNL     1      -3.483  10.869  15.561  0.00  0.00    +0.000 A 
ATOM     19  C   UNL     1      -4.443  11.364  16.412  0.00  0.00    +0.000 A 
ATOM     20  S   UNL     1      -3.989  11.208  18.048  0.00  0.00    +0.000 S 
ENDBRANCH  15  16
BRANCH  14  22
ATOM     21  O   UNL     1      -1.218  13.258  19.448  0.00  0.00    +0.000 OA
ATOM     22  C   UNL     1      -0.595  12.357  18.911  0.00  0.00    +0.000 C 
BRANCH  22  23
ATOM     23  O   UNL     1       0.289  12.611  17.916  0.00  0.00    +0.000 OA
ATOM     24  H   UNL     1      -0.065  12.414  17.026  0.00  0.00    +0.000 HD
ENDBRANCH  22  23
ENDBRANCH  14  22
ENDBRANCH   1  14
TORSDOF 6
ENDMDL
MODEL 9
REMARK VINA RESULT:      -7.3      1.933      2.286
REMARK  Name = 
REMARK  6 active torsions:
REMARK  status: ('A' for Active; 'I' for Inactive)
REMARK    1  A    between atoms: C_2  and  O_3
REMARK    2  A    between atoms: C_2  and  C_4
REMARK    3  A    between atoms: C_4  and  S_11
REMARK    4  A    between atoms: C_5  and  C_6
REMARK    5  A    between atoms: S_11  and  C_12
REMARK    6  A    between atoms: C_15  and  C_16
REMARK                            x       y       z     vdW  Elec       q    Type
REMARK                         _______ _______ _______ _____ _____    ______ ____
ROOT
ATOM      1  S   UNL     1       5.552   6.004  15.961  0.00  0.00    +0.000 S 
ENDROOT
BRANCH   1   2
ATOM      2  C   UNL     1       6.745   6.700  17.010  0.00  0.00    +0.000 A 
ATOM      3  N   UNL     1       7.407   6.041  17.937  0.00  0.00    +0.000 NA
ATOM      4  N   UNL     1       8.179   6.974  18.608  0.00  0.00    +0.000 NA
ATOM      5  C   UNL     1       7.930   8.138  18.045  0.00  0.00    +0.000 A 
ATOM      6  O   UNL     1       7.025   8.041  17.020  0.00  0.00    +0.000 OA
BRANCH   5   7
ATOM      7  C   UNL     1       8.479   9.461  18.320  0.00  0.00    +0.000 A 
ATOM      8  C   UNL     1       8.161  10.542  17.477  0.00  0.00    +0.000 A 
ATOM      9  C   UNL     1       8.642  11.826  17.755  0.00  0.00    +0.000 A 
ATOM     10  C   UNL     1       9.446  12.036  18.866  0.00  0.00    +0.000 A 
ATOM     11  F   UNL     1       9.893  13.267  19.140  0.00  0.00    +0.000 F 
ATOM     12  C   UNL     1       9.791  10.981  19.702  0.00  0.00    +0.000 A 
ATOM     13  C   UNL     1       9.312   9.698  19.428  0.00  0.00    +0.000 A 
ENDBRANCH   5   7
ENDBRANCH   1   2
BRANCH   1  14
ATOM     14  C   UNL     1       4.501   5.303  17.174  0.00  0.00    +0.000 C 
ATOM     15  C   UNL     1       4.100   4.021  17.064  0.00  0.00    +0.000 C 
BRANCH  15  16
ATOM     16  C   UNL     1       3.084   3.422  17.861  0.00  0.00    +0.000 A 
ATOM     17  C   UNL     1       1.708   3.522  17.775  0.00  0.00    +0.000 A 
ATOM     18  C   UNL     1       1.037   2.785  18.802  0.00  0.00    +0.000 A 
ATOM     19  C   UNL     1       1.922   2.153  19.643  0.00  0.00    +0.000 A 
ATOM     20  S   UNL     1       3.544   2.455  19.211  0.00  0.00    +0.000 S 
ENDBRANCH  15  16
BRANCH  14  22
ATOM     21  O   UNL     1       4.015   6.064  19.418  0.00  0.00    +0.000 OA
ATOM     22  C   UNL     1       3.971   6.250  18.213  0.00  0.00    +0.000 C 
BRANCH  22  23
ATOM     23  O   UNL     1       3.413   7.372  17.697  0.00  0.00    +0.000 OA
ATOM     24  H   UNL     1       2.458   7.450  17.886  0.00  0.00    +0.000 HD
ENDBRANCH  22  23
ENDBRANCH  14  22
ENDBRANCH   1  14
TORSDOF 6
ENDMDL
