MODEL 1
REMARK VINA RESULT:      -7.9      0.000      0.000
REMARK  Name = 
REMARK  12 active torsions:
REMARK  status: ('A' for Active; 'I' for Inactive)
REMARK    1  A    between atoms: CD1_1  and  CG1_2
REMARK    2  A    between atoms: CG1_2  and  CB_3
REMARK    3  A    between atoms: CB_3  and  CG2_4
REMARK    4  A    between atoms: CB_3  and  CA_5
REMARK    5  A    between atoms: CA_5  and  N_6
REMARK    6  A    between atoms: CA_5  and  C_17
REMARK    7  A    between atoms: N_9  and  C_10
REMARK    8  A    between atoms: C_10  and  C_11
REMARK    9  A    between atoms: N_19  and  CA_20
REMARK   10  A    between atoms: CA_20  and  C_21
REMARK   11  A    between atoms: CA_20  and  CB_23
REMARK   12  A    between atoms: CB_23  and  CG_24
REMARK                            x       y       z     vdW  Elec       q    Type
REMARK                         _______ _______ _______ _____ _____    ______ ____
ROOT
ATOM      1  CA  ILE A   1       1.791   7.177  19.559  0.00  0.00    +0.000 C 
ENDROOT
BRANCH   1   2
ATOM      2  N   ILE A   1       1.826   7.845  20.885  0.00  0.00    +0.000 N 
ATOM      3  C   UNK A   0       0.672   8.403  21.412  0.00  0.00    +0.000 C 
ATOM      4  O   UNK A   0      -0.406   8.395  20.829  0.00  0.00    +0.000 OA
ATOM      5  N   UNK A   0       0.868   9.034  22.618  0.00  0.00    +0.000 N 
ATOM      6  H   ILE A   1       2.572   7.620  21.522  0.00  0.00    +0.000 HD
ATOM      7  H   UNK A   0       1.634   8.714  23.188  0.00  0.00    +0.000 HD
BRANCH   5   8
ATOM      8  C   UNK A   0      -0.259   9.627  23.337  0.00  0.00    +0.000 C 
BRANCH   8   9
ATOM      9  C   UNK A   0      -0.750  10.943  22.762  0.00  0.00    +0.000 A 
ATOM     10  C   UNK A   0      -1.895  11.586  23.256  0.00  0.00    +0.000 A 
ATOM     11  C   UNK A   0      -2.292  12.831  22.756  0.00  0.00    +0.000 A 
ATOM     12  C   UNK A   0      -1.541  13.466  21.768  0.00  0.00    +0.000 A 
ATOM     13  C   UNK A   0      -0.384  12.858  21.286  0.00  0.00    +0.000 A 
ATOM     14  C   UNK A   0       0.010  11.610  21.783  0.00  0.00    +0.000 A 
ENDBRANCH   8   9
ENDBRANCH   5   8
ENDBRANCH   1   2
BRANCH   1  15
ATOM     15  C   ILE A   1       2.073   5.619  19.595  0.00  0.00    +0.000 C 
ATOM     16  O   ILE A   1       1.570   4.853  18.771  0.00  0.00    +0.000 OA
ATOM     17  N   TRP A   2       2.922   5.147  20.574  0.00  0.00    +0.000 N 
ATOM     18  H   TRP A   2       3.089   5.774  21.348  0.00  0.00    +0.000 HD
BRANCH  17  19
ATOM     19  CA  TRP A   2       3.171   3.707  20.868  0.00  0.00    +0.000 C 
BRANCH  19  20
ATOM     20  C   TRP A   2       1.816   3.125  21.261  0.00  0.00    +0.000 C 
ATOM     21  O   TRP A   2       1.584   2.656  22.374  0.00  0.00    +0.000 OA
ENDBRANCH  19  20
BRANCH  19  22
ATOM     22  CB  TRP A   2       3.934   2.770  19.866  0.00  0.00    +0.000 C 
BRANCH  22  23
ATOM     23  CG  TRP A   2       4.633   3.437  18.702  0.00  0.00    +0.000 A 
ATOM     24  CD1 TRP A   2       4.164   3.340  17.410  0.00  0.00    +0.000 A 
ATOM     25  NE1 TRP A   2       5.274   3.358  16.624  0.00  0.00    +0.000 N 
ATOM     26  CE2 TRP A   2       6.021   4.383  17.148  0.00  0.00    +0.000 A 
ATOM     27  CZ2 TRP A   2       6.937   5.214  16.487  0.00  0.00    +0.000 A 
ATOM     28  CH2 TRP A   2       7.530   6.200  17.262  0.00  0.00    +0.000 A 
ATOM     29  CZ3 TRP A   2       7.308   6.263  18.633  0.00  0.00    +0.000 A 
ATOM     30  CE3 TRP A   2       6.443   5.354  19.290  0.00  0.00    +0.000 A 
ATOM     31  CD2 TRP A   2       5.701   4.408  18.515  0.00  0.00    +0.000 A 
ATOM     32  HE1 TRP A   2       5.734   2.511  16.314  0.00  0.00    +0.000 HD
ENDBRANCH  22  23
ENDBRANCH  19  22
ENDBRANCH  17  19
ENDBRANCH   1  15
BRANCH   1  33
ATOM     33  CB  ILE A   1       2.627   8.000  18.529  0.00  0.00    +0.000 C 
ATOM     34  CG2 ILE A   1       3.542   7.149  17.638  0.00  0.00    +0.000 C 
BRANCH  33  36
ATOM     35  CD1 ILE A   1       1.563  10.331  18.318  0.00  0.00    +0.000 C 
ATOM     36  CG1 ILE A   1       1.819   8.983  17.663  0.00  0.00    +0.000 C 
ENDBRANCH  33  36
ENDBRANCH   1  33
TORSDOF 10
ENDMDL
MODEL 2
REMARK VINA RESULT:      -7.7      2.570      9.593
REMARK  Name = 
REMARK  12 active torsions:
REMARK  status: ('A' for Active; 'I' for Inactive)
REMARK    1  A    between atoms: CD1_1  and  CG1_2
REMARK    2  A    between atoms: CG1_2  and  CB_3
REMARK    3  A    between atoms: CB_3  and  CG2_4
REMARK    4  A    between atoms: CB_3  and  CA_5
REMARK    5  A    between atoms: CA_5  and  N_6
REMARK    6  A    between atoms: CA_5  and  C_17
REMARK    7  A    between atoms: N_9  and  C_10
REMARK    8  A    between atoms: C_10  and  C_11
REMARK    9  A    between atoms: N_19  and  CA_20
REMARK   10  A    between atoms: CA_20  and  C_21
REMARK   11  A    between atoms: CA_20  and  CB_23
REMARK   12  A    between atoms: CB_23  and  CG_24
REMARK                            x       y       z     vdW  Elec       q    Type
REMARK                         _______ _______ _______ _____ _____    ______ ____
ROOT
ATOM      1  CA  ILE A   1       2.623   4.376  18.258  0.00  0.00    +0.000 C 
ENDROOT
BRANCH   1   2
ATOM      2  N   ILE A   1       3.943   3.843  17.835  0.00  0.00    +0.000 N 
ATOM      3  C   UNK A   0       4.809   4.638  17.101  0.00  0.00    +0.000 C 
ATOM      4  O   UNK A   0       4.541   5.781  16.752  0.00  0.00    +0.000 OA
ATOM      5  N   UNK A   0       5.968   3.994  16.734  0.00  0.00    +0.000 N 
ATOM      6  H   ILE A   1       4.333   3.060  18.333  0.00  0.00    +0.000 HD
ATOM      7  H   UNK A   0       6.279   3.234  17.317  0.00  0.00    +0.000 HD
BRANCH   5   8
ATOM      8  C   UNK A   0       7.014   4.707  16.002  0.00  0.00    +0.000 C 
BRANCH   8   9
ATOM      9  C   UNK A   0       6.948   4.549  14.494  0.00  0.00    +0.000 A 
ATOM     10  C   UNK A   0       7.749   5.313  13.633  0.00  0.00    +0.000 A 
ATOM     11  C   UNK A   0       7.720   5.103  12.250  0.00  0.00    +0.000 A 
ATOM     12  C   UNK A   0       6.906   4.112  11.704  0.00  0.00    +0.000 A 
ATOM     13  C   UNK A   0       6.127   3.322  12.545  0.00  0.00    +0.000 A 
ATOM     14  C   UNK A   0       6.152   3.535  13.928  0.00  0.00    +0.000 A 
ENDBRANCH   8   9
ENDBRANCH   5   8
ENDBRANCH   1   2
BRANCH   1  15
ATOM     15  C   ILE A   1       2.693   5.643  19.205  0.00  0.00    +0.000 C 
ATOM     16  O   ILE A   1       3.092   5.558  20.368  0.00  0.00    +0.000 OA
ATOM     17  N   TRP A   2       2.311   6.857  18.675  0.00  0.00    +0.000 N 
ATOM     18  H   TRP A   2       1.769   6.813  17.824  0.00  0.00    +0.000 HD
BRANCH  17  19
ATOM     19  CA  TRP A   2       2.149   8.118  19.456  0.00  0.00    +0.000 C 
BRANCH  19  20
ATOM     20  C   TRP A   2       2.049   9.235  18.420  0.00  0.00    +0.000 C 
ATOM     21  O   TRP A   2       1.879   9.024  17.220  0.00  0.00    +0.000 OA
ENDBRANCH  19  20
BRANCH  19  22
ATOM     22  CB  TRP A   2       1.064   8.271  20.579  0.00  0.00    +0.000 C 
BRANCH  22  23
ATOM     23  CG  TRP A   2       0.356   9.605  20.670  0.00  0.00    +0.000 A 
ATOM     24  CD1 TRP A   2       0.825  10.634  21.458  0.00  0.00    +0.000 A 
ATOM     25  NE1 TRP A   2      -0.286  11.291  21.886  0.00  0.00    +0.000 N 
ATOM     26  CE2 TRP A   2      -1.045  11.413  20.748  0.00  0.00    +0.000 A 
ATOM     27  CZ2 TRP A   2      -1.971  12.415  20.426  0.00  0.00    +0.000 A 
ATOM     28  CH2 TRP A   2      -2.574  12.307  19.182  0.00  0.00    +0.000 A 
ATOM     29  CZ3 TRP A   2      -2.350  11.199  18.372  0.00  0.00    +0.000 A 
ATOM     30  CE3 TRP A   2      -1.474  10.156  18.762  0.00  0.00    +0.000 A 
ATOM     31  CD2 TRP A   2      -0.723  10.288  19.972  0.00  0.00    +0.000 A 
ATOM     32  HE1 TRP A   2      -0.738  11.080  22.767  0.00  0.00    +0.000 HD
ENDBRANCH  22  23
ENDBRANCH  19  22
ENDBRANCH  17  19
ENDBRANCH   1  15
BRANCH   1  33
ATOM     33  CB  ILE A   1       1.711   3.206  18.747  0.00  0.00    +0.000 C 
ATOM     34  CG2 ILE A   1       2.431   1.857  18.872  0.00  0.00    +0.000 C 
BRANCH  33  36
ATOM     35  CD1 ILE A   1       1.351   2.690  21.240  0.00  0.00    +0.000 C 
ATOM     36  CG1 ILE A   1       0.906   3.492  20.027  0.00  0.00    +0.000 C 
ENDBRANCH  33  36
ENDBRANCH   1  33
TORSDOF 10
ENDMDL
MODEL 3
REMARK VINA RESULT:      -7.7      1.056      1.491
REMARK  Name = 
REMARK  12 active torsions:
REMARK  status: ('A' for Active; 'I' for Inactive)
REMARK    1  A    between atoms: CD1_1  and  CG1_2
REMARK    2  A    between atoms: CG1_2  and  CB_3
REMARK    3  A    between atoms: CB_3  and  CG2_4
REMARK    4  A    between atoms: CB_3  and  CA_5
REMARK    5  A    between atoms: CA_5  and  N_6
REMARK    6  A    between atoms: CA_5  and  C_17
REMARK    7  A    between atoms: N_9  and  C_10
REMARK    8  A    between atoms: C_10  and  C_11
REMARK    9  A    between atoms: N_19  and  CA_20
REMARK   10  A    between atoms: CA_20  and  C_21
REMARK   11  A    between atoms: CA_20  and  CB_23
REMARK   12  A    between atoms: CB_23  and  CG_24
REMARK                            x       y       z     vdW  Elec       q    Type
REMARK                         _______ _______ _______ _____ _____    ______ ____
ROOT
ATOM      1  CA  ILE A   1       1.457   6.835  19.870  0.00  0.00    +0.000 C 
ENDROOT
BRANCH   1   2
ATOM      2  N   ILE A   1       1.619   7.921  20.870  0.00  0.00    +0.000 N 
ATOM      3  C   UNK A   0       0.526   8.361  21.600  0.00  0.00    +0.000 C 
ATOM      4  O   UNK A   0      -0.604   7.910  21.456  0.00  0.00    +0.000 OA
ATOM      5  N   UNK A   0       0.815   9.406  22.446  0.00  0.00    +0.000 N 
ATOM      6  H   ILE A   1       2.536   8.107  21.241  0.00  0.00    +0.000 HD
ATOM      7  H   UNK A   0       1.764   9.486  22.774  0.00  0.00    +0.000 HD
BRANCH   5   8
ATOM      8  C   UNK A   0      -0.215   9.952  23.328  0.00  0.00    +0.000 C 
BRANCH   8   9
ATOM      9  C   UNK A   0      -0.945  11.162  22.772  0.00  0.00    +0.000 A 
ATOM     10  C   UNK A   0      -2.185  11.577  23.280  0.00  0.00    +0.000 A 
ATOM     11  C   UNK A   0      -2.808  12.733  22.796  0.00  0.00    +0.000 A 
ATOM     12  C   UNK A   0      -2.194  13.506  21.813  0.00  0.00    +0.000 A 
ATOM     13  C   UNK A   0      -0.948  13.128  21.319  0.00  0.00    +0.000 A 
ATOM     14  C   UNK A   0      -0.327  11.968  21.798  0.00  0.00    +0.000 A 
ENDBRANCH   8   9
ENDBRANCH   5   8
ENDBRANCH   1   2
BRANCH   1  15
ATOM     15  C   ILE A   1       1.946   5.409  20.356  0.00  0.00    +0.000 C 
ATOM     16  O   ILE A   1       2.452   5.245  21.468  0.00  0.00    +0.000 OA
ATOM     17  N   TRP A   2       1.766   4.347  19.496  0.00  0.00    +0.000 N 
ATOM     18  H   TRP A   2       1.587   4.589  18.531  0.00  0.00    +0.000 HD
BRANCH  17  19
ATOM     19  CA  TRP A   2       2.311   2.974  19.707  0.00  0.00    +0.000 C 
BRANCH  19  20
ATOM     20  C   TRP A   2       1.456   2.053  18.841  0.00  0.00    +0.000 C 
ATOM     21  O   TRP A   2       0.299   2.318  18.518  0.00  0.00    +0.000 OA
ENDBRANCH  19  20
BRANCH  19  22
ATOM     22  CB  TRP A   2       3.840   2.651  19.561  0.00  0.00    +0.000 C 
BRANCH  22  23
ATOM     23  CG  TRP A   2       4.597   3.393  18.482  0.00  0.00    +0.000 A 
ATOM     24  CD1 TRP A   2       4.189   3.393  17.166  0.00  0.00    +0.000 A 
ATOM     25  NE1 TRP A   2       5.335   3.457  16.436  0.00  0.00    +0.000 N 
ATOM     26  CE2 TRP A   2       6.063   4.436  17.067  0.00  0.00    +0.000 A 
ATOM     27  CZ2 TRP A   2       7.014   5.303  16.511  0.00  0.00    +0.000 A 
ATOM     28  CH2 TRP A   2       7.575   6.226  17.382  0.00  0.00    +0.000 A 
ATOM     29  CZ3 TRP A   2       7.288   6.192  18.742  0.00  0.00    +0.000 A 
ATOM     30  CE3 TRP A   2       6.388   5.246  19.290  0.00  0.00    +0.000 A 
ATOM     31  CD2 TRP A   2       5.678   4.366  18.415  0.00  0.00    +0.000 A 
ATOM     32  HE1 TRP A   2       5.804   2.630  16.088  0.00  0.00    +0.000 HD
ENDBRANCH  22  23
ENDBRANCH  19  22
ENDBRANCH  17  19
ENDBRANCH   1  15
BRANCH   1  33
ATOM     33  CB  ILE A   1       1.999   7.308  18.483  0.00  0.00    +0.000 C 
ATOM     34  CG2 ILE A   1       1.949   8.827  18.272  0.00  0.00    +0.000 C 
BRANCH  33  36
ATOM     35  CD1 ILE A   1       4.164   7.657  17.141  0.00  0.00    +0.000 C 
ATOM     36  CG1 ILE A   1       3.391   6.771  18.104  0.00  0.00    +0.000 C 
ENDBRANCH  33  36
ENDBRANCH   1  33
TORSDOF 10
ENDMDL
MODEL 4
REMARK VINA RESULT:      -7.6      3.297      9.323
REMARK  Name = 
REMARK  12 active torsions:
REMARK  status: ('A' for Active; 'I' for Inactive)
REMARK    1  A    between atoms: CD1_1  and  CG1_2
REMARK    2  A    between atoms: CG1_2  and  CB_3
REMARK    3  A    between atoms: CB_3  and  CG2_4
REMARK    4  A    between atoms: CB_3  and  CA_5
REMARK    5  A    between atoms: CA_5  and  N_6
REMARK    6  A    between atoms: CA_5  and  C_17
REMARK    7  A    between atoms: N_9  and  C_10
REMARK    8  A    between atoms: C_10  and  C_11
REMARK    9  A    between atoms: N_19  and  CA_20
REMARK   10  A    between atoms: CA_20  and  C_21
REMARK   11  A    between atoms: CA_20  and  CB_23
REMARK   12  A    between atoms: CB_23  and  CG_24
REMARK                            x       y       z     vdW  Elec       q    Type
REMARK                         _______ _______ _______ _____ _____    ______ ____
ROOT
ATOM      1  CA  ILE A   1       6.149   5.263  17.299  0.00  0.00    +0.000 C 
ENDROOT
BRANCH   1   2
ATOM      2  N   ILE A   1       6.190   5.702  15.880  0.00  0.00    +0.000 N 
ATOM      3  C   UNK A   0       6.929   4.985  14.953  0.00  0.00    +0.000 C 
ATOM      4  O   UNK A   0       7.586   3.991  15.240  0.00  0.00    +0.000 OA
ATOM      5  N   UNK A   0       6.918   5.539  13.695  0.00  0.00    +0.000 N 
ATOM      6  H   ILE A   1       5.456   6.298  15.536  0.00  0.00    +0.000 HD
ATOM      7  H   UNK A   0       6.122   6.104  13.446  0.00  0.00    +0.000 HD
BRANCH   5   8
ATOM      8  C   UNK A   0       7.604   4.877  12.586  0.00  0.00    +0.000 C 
BRANCH   8   9
ATOM      9  C   UNK A   0       6.914   3.624  12.076  0.00  0.00    +0.000 A 
ATOM     10  C   UNK A   0       5.517   3.511  12.036  0.00  0.00    +0.000 A 
ATOM     11  C   UNK A   0       4.903   2.373  11.501  0.00  0.00    +0.000 A 
ATOM     12  C   UNK A   0       5.674   1.337  10.978  0.00  0.00    +0.000 A 
ATOM     13  C   UNK A   0       7.063   1.443  10.981  0.00  0.00    +0.000 A 
ATOM     14  C   UNK A   0       7.677   2.579  11.521  0.00  0.00    +0.000 A 
ENDBRANCH   8   9
ENDBRANCH   5   8
ENDBRANCH   1   2
BRANCH   1  15
ATOM     15  C   ILE A   1       4.762   4.658  17.765  0.00  0.00    +0.000 C 
ATOM     16  O   ILE A   1       3.924   4.263  16.952  0.00  0.00    +0.000 OA
ATOM     17  N   TRP A   2       4.529   4.568  19.121  0.00  0.00    +0.000 N 
ATOM     18  H   TRP A   2       5.132   5.129  19.707  0.00  0.00    +0.000 HD
BRANCH  17  19
ATOM     19  CA  TRP A   2       3.228   4.187  19.742  0.00  0.00    +0.000 C 
BRANCH  19  20
ATOM     20  C   TRP A   2       3.493   2.883  20.490  0.00  0.00    +0.000 C 
ATOM     21  O   TRP A   2       3.106   2.679  21.640  0.00  0.00    +0.000 OA
ENDBRANCH  19  20
BRANCH  19  22
ATOM     22  CB  TRP A   2       2.391   5.192  20.609  0.00  0.00    +0.000 C 
BRANCH  22  23
ATOM     23  CG  TRP A   2       2.038   6.518  19.972  0.00  0.00    +0.000 A 
ATOM     24  CD1 TRP A   2       1.925   6.671  18.607  0.00  0.00    +0.000 A 
ATOM     25  NE1 TRP A   2       2.335   7.942  18.354  0.00  0.00    +0.000 N 
ATOM     26  CE2 TRP A   2       1.695   8.684  19.316  0.00  0.00    +0.000 A 
ATOM     27  CZ2 TRP A   2       1.283  10.022  19.248  0.00  0.00    +0.000 A 
ATOM     28  CH2 TRP A   2       0.621  10.511  20.365  0.00  0.00    +0.000 A 
ATOM     29  CZ3 TRP A   2       0.494   9.740  21.515  0.00  0.00    +0.000 A 
ATOM     30  CE3 TRP A   2       0.997   8.418  21.585  0.00  0.00    +0.000 A 
ATOM     31  CD2 TRP A   2       1.564   7.821  20.416  0.00  0.00    +0.000 A 
ATOM     32  HE1 TRP A   2       3.291   8.165  18.105  0.00  0.00    +0.000 HD
ENDBRANCH  22  23
ENDBRANCH  19  22
ENDBRANCH  17  19
ENDBRANCH   1  15
BRANCH   1  33
ATOM     33  CB  ILE A   1       6.753   6.374  18.215  0.00  0.00    +0.000 C 
ATOM     34  CG2 ILE A   1       7.916   5.901  19.097  0.00  0.00    +0.000 C 
BRANCH  33  36
ATOM     35  CD1 ILE A   1       8.290   8.435  18.141  0.00  0.00    +0.000 C 
ATOM     36  CG1 ILE A   1       7.139   7.680  17.496  0.00  0.00    +0.000 C 
ENDBRANCH  33  36
ENDBRANCH   1  33
TORSDOF 10
ENDMDL
MODEL 5
REMARK VINA RESULT:      -7.6      3.215      9.615
REMARK  Name = 
REMARK  12 active torsions:
REMARK  status: ('A' for Active; 'I' for Inactive)
REMARK    1  A    between atoms: CD1_1  and  CG1_2
REMARK    2  A    between atoms: CG1_2  and  CB_3
REMARK    3  A    between atoms: CB_3  and  CG2_4
REMARK    4  A    between atoms: CB_3  and  CA_5
REMARK    5  A    between atoms: CA_5  and  N_6
REMARK    6  A    between atoms: CA_5  and  C_17
REMARK    7  A    between atoms: N_9  and  C_10
REMARK    8  A    between atoms: C_10  and  C_11
REMARK    9  A    between atoms: N_19  and  CA_20
REMARK   10  A    between atoms: CA_20  and  C_21
REMARK   11  A    between atoms: CA_20  and  CB_23
REMARK   12  A    between atoms: CB_23  and  CG_24
REMARK                            x       y       z     vdW  Elec       q    Type
REMARK                         _______ _______ _______ _____ _____    ______ ____
ROOT
ATOM      1  CA  ILE A   1       5.731   6.038  17.329  0.00  0.00    +0.000 C 
ENDROOT
BRANCH   1   2
ATOM      2  N   ILE A   1       6.043   6.217  15.888  0.00  0.00    +0.000 N 
ATOM      3  C   UNK A   0       6.689   5.212  15.186  0.00  0.00    +0.000 C 
ATOM      4  O   UNK A   0       7.046   4.157  15.699  0.00  0.00    +0.000 OA
ATOM      5  N   UNK A   0       6.960   5.541  13.879  0.00  0.00    +0.000 N 
ATOM      6  H   ILE A   1       5.522   6.898  15.359  0.00  0.00    +0.000 HD
ATOM      7  H   UNK A   0       6.361   6.220  13.440  0.00  0.00    +0.000 HD
BRANCH   5   8
ATOM      8  C   UNK A   0       7.589   4.569  12.985  0.00  0.00    +0.000 C 
BRANCH   8   9
ATOM      9  C   UNK A   0       6.624   3.599  12.329  0.00  0.00    +0.000 A 
ATOM     10  C   UNK A   0       5.264   3.901  12.169  0.00  0.00    +0.000 A 
ATOM     11  C   UNK A   0       4.406   3.019  11.502  0.00  0.00    +0.000 A 
ATOM     12  C   UNK A   0       4.896   1.830  10.965  0.00  0.00    +0.000 A 
ATOM     13  C   UNK A   0       6.250   1.526  11.087  0.00  0.00    +0.000 A 
ATOM     14  C   UNK A   0       7.107   2.406  11.758  0.00  0.00    +0.000 A 
ENDBRANCH   8   9
ENDBRANCH   5   8
ENDBRANCH   1   2
BRANCH   1  15
ATOM     15  C   ILE A   1       4.247   6.413  17.737  0.00  0.00    +0.000 C 
ATOM     16  O   ILE A   1       3.647   7.346  17.199  0.00  0.00    +0.000 OA
ATOM     17  N   TRP A   2       3.638   5.644  18.705  0.00  0.00    +0.000 N 
ATOM     18  H   TRP A   2       4.257   5.077  19.268  0.00  0.00    +0.000 HD
BRANCH  17  19
ATOM     19  CA  TRP A   2       2.320   5.947  19.334  0.00  0.00    +0.000 C 
BRANCH  19  20
ATOM     20  C   TRP A   2       1.610   4.603  19.473  0.00  0.00    +0.000 C 
ATOM     21  O   TRP A   2       2.193   3.565  19.784  0.00  0.00    +0.000 OA
ENDBRANCH  19  20
BRANCH  19  22
ATOM     22  CB  TRP A   2       2.197   6.804  20.643  0.00  0.00    +0.000 C 
BRANCH  22  23
ATOM     23  CG  TRP A   2       1.491   8.137  20.525  0.00  0.00    +0.000 A 
ATOM     24  CD1 TRP A   2       1.202   8.711  19.306  0.00  0.00    +0.000 A 
ATOM     25  NE1 TRP A   2       1.289  10.052  19.512  0.00  0.00    +0.000 N 
ATOM     26  CE2 TRP A   2       0.605  10.241  20.688  0.00  0.00    +0.000 A 
ATOM     27  CZ2 TRP A   2      -0.100  11.377  21.108  0.00  0.00    +0.000 A 
ATOM     28  CH2 TRP A   2      -0.732  11.279  22.339  0.00  0.00    +0.000 A 
ATOM     29  CZ3 TRP A   2      -0.560  10.157  23.143  0.00  0.00    +0.000 A 
ATOM     30  CE3 TRP A   2       0.230   9.058  22.729  0.00  0.00    +0.000 A 
ATOM     31  CD2 TRP A   2       0.788   9.052  21.413  0.00  0.00    +0.000 A 
ATOM     32  HE1 TRP A   2       2.139  10.575  19.339  0.00  0.00    +0.000 HD
ENDBRANCH  22  23
ENDBRANCH  19  22
ENDBRANCH  17  19
ENDBRANCH   1  15
BRANCH   1  33
ATOM     33  CB  ILE A   1       6.861   6.673  18.199  0.00  0.00    +0.000 C 
ATOM     34  CG2 ILE A   1       7.832   5.654  18.811  0.00  0.00    +0.000 C 
BRANCH  33  36
ATOM     35  CD1 ILE A   1       8.549   8.594  18.464  0.00  0.00    +0.000 C 
ATOM     36  CG1 ILE A   1       7.650   7.809  17.523  0.00  0.00    +0.000 C 
ENDBRANCH  33  36
ENDBRANCH   1  33
TORSDOF 10
ENDMDL
MODEL 6
REMARK VINA RESULT:      -7.5      2.629      4.425
REMARK  Name = 
REMARK  12 active torsions:
REMARK  status: ('A' for Active; 'I' for Inactive)
REMARK    1  A    between atoms: CD1_1  and  CG1_2
REMARK    2  A    between atoms: CG1_2  and  CB_3
REMARK    3  A    between atoms: CB_3  and  CG2_4
REMARK    4  A    between atoms: CB_3  and  CA_5
REMARK    5  A    between atoms: CA_5  and  N_6
REMARK    6  A    between atoms: CA_5  and  C_17
REMARK    7  A    between atoms: N_9  and  C_10
REMARK    8  A    between atoms: C_10  and  C_11
REMARK    9  A    between atoms: N_19  and  CA_20
REMARK   10  A    between atoms: CA_20  and  C_21
REMARK   11  A    between atoms: CA_20  and  CB_23
REMARK   12  A    between atoms: CB_23  and  CG_24
REMARK                            x       y       z     vdW  Elec       q    Type
REMARK                         _______ _______ _______ _____ _____    ______ ____
ROOT
ATOM      1  CA  ILE A   1       1.957   5.184  20.523  0.00  0.00    +0.000 C 
ENDROOT
BRANCH   1   2
ATOM      2  N   ILE A   1       1.187   6.376  20.961  0.00  0.00    +0.000 N 
ATOM      3  C   UNK A   0       1.493   7.627  20.447  0.00  0.00    +0.000 C 
ATOM      4  O   UNK A   0       2.397   7.821  19.643  0.00  0.00    +0.000 OA
ATOM      5  N   UNK A   0       0.736   8.641  20.985  0.00  0.00    +0.000 N 
ATOM      6  H   ILE A   1       0.273   6.244  21.362  0.00  0.00    +0.000 HD
ATOM      7  H   UNK A   0      -0.175   8.400  21.340  0.00  0.00    +0.000 HD
BRANCH   5   8
ATOM      8  C   UNK A   0       0.894  10.016  20.512  0.00  0.00    +0.000 C 
BRANCH   8   9
ATOM      9  C   UNK A   0      -0.266  10.534  19.681  0.00  0.00    +0.000 A 
ATOM     10  C   UNK A   0      -0.549  10.025  18.405  0.00  0.00    +0.000 A 
ATOM     11  C   UNK A   0      -1.662  10.471  17.684  0.00  0.00    +0.000 A 
ATOM     12  C   UNK A   0      -2.525  11.418  18.234  0.00  0.00    +0.000 A 
ATOM     13  C   UNK A   0      -2.278  11.913  19.512  0.00  0.00    +0.000 A 
ATOM     14  C   UNK A   0      -1.161  11.471  20.230  0.00  0.00    +0.000 A 
ENDBRANCH   8   9
ENDBRANCH   5   8
ENDBRANCH   1   2
BRANCH   1  15
ATOM     15  C   ILE A   1       2.774   5.381  19.180  0.00  0.00    +0.000 C 
ATOM     16  O   ILE A   1       2.208   5.509  18.093  0.00  0.00    +0.000 OA
ATOM     17  N   TRP A   2       4.149   5.425  19.272  0.00  0.00    +0.000 N 
ATOM     18  H   TRP A   2       4.543   5.068  20.131  0.00  0.00    +0.000 HD
BRANCH  17  19
ATOM     19  CA  TRP A   2       5.083   5.434  18.109  0.00  0.00    +0.000 C 
BRANCH  19  20
ATOM     20  C   TRP A   2       6.464   5.724  18.691  0.00  0.00    +0.000 C 
ATOM     21  O   TRP A   2       6.885   5.193  19.717  0.00  0.00    +0.000 OA
ENDBRANCH  19  20
BRANCH  19  22
ATOM     22  CB  TRP A   2       5.129   4.261  17.067  0.00  0.00    +0.000 C 
BRANCH  22  23
ATOM     23  CG  TRP A   2       6.055   4.433  15.882  0.00  0.00    +0.000 A 
ATOM     24  CD1 TRP A   2       7.376   4.797  16.028  0.00  0.00    +0.000 A 
ATOM     25  NE1 TRP A   2       7.667   5.538  14.926  0.00  0.00    +0.000 N 
ATOM     26  CE2 TRP A   2       7.129   4.807  13.896  0.00  0.00    +0.000 A 
ATOM     27  CZ2 TRP A   2       7.553   4.747  12.561  0.00  0.00    +0.000 A 
ATOM     28  CH2 TRP A   2       6.840   3.890  11.736  0.00  0.00    +0.000 A 
ATOM     29  CZ3 TRP A   2       5.703   3.235  12.197  0.00  0.00    +0.000 A 
ATOM     30  CE3 TRP A   2       5.246   3.383  13.529  0.00  0.00    +0.000 A 
ATOM     31  CD2 TRP A   2       6.025   4.144  14.456  0.00  0.00    +0.000 A 
ATOM     32  HE1 TRP A   2       7.591   6.548  14.915  0.00  0.00    +0.000 HD
ENDBRANCH  22  23
ENDBRANCH  19  22
ENDBRANCH  17  19
ENDBRANCH   1  15
BRANCH   1  33
ATOM     33  CB  ILE A   1       1.052   3.914  20.592  0.00  0.00    +0.000 C 
ATOM     34  CG2 ILE A   1       0.841   3.215  19.242  0.00  0.00    +0.000 C 
BRANCH  33  36
ATOM     35  CD1 ILE A   1       2.879   2.370  21.536  0.00  0.00    +0.000 C 
ATOM     36  CG1 ILE A   1       1.452   2.880  21.661  0.00  0.00    +0.000 C 
ENDBRANCH  33  36
ENDBRANCH   1  33
TORSDOF 10
ENDMDL
MODEL 7
REMARK VINA RESULT:      -7.4      2.718      4.419
REMARK  Name = 
REMARK  12 active torsions:
REMARK  status: ('A' for Active; 'I' for Inactive)
REMARK    1  A    between atoms: CD1_1  and  CG1_2
REMARK    2  A    between atoms: CG1_2  and  CB_3
REMARK    3  A    between atoms: CB_3  and  CG2_4
REMARK    4  A    between atoms: CB_3  and  CA_5
REMARK    5  A    between atoms: CA_5  and  N_6
REMARK    6  A    between atoms: CA_5  and  C_17
REMARK    7  A    between atoms: N_9  and  C_10
REMARK    8  A    between atoms: C_10  and  C_11
REMARK    9  A    between atoms: N_19  and  CA_20
REMARK   10  A    between atoms: CA_20  and  C_21
REMARK   11  A    between atoms: CA_20  and  CB_23
REMARK   12  A    between atoms: CB_23  and  CG_24
REMARK                            x       y       z     vdW  Elec       q    Type
REMARK                         _______ _______ _______ _____ _____    ______ ____
ROOT
ATOM      1  CA  ILE A   1       3.070   5.227  19.172  0.00  0.00    +0.000 C 
ENDROOT
BRANCH   1   2
ATOM      2  N   ILE A   1       2.676   6.633  18.901  0.00  0.00    +0.000 N 
ATOM      3  C   UNK A   0       1.949   7.344  19.843  0.00  0.00    +0.000 C 
ATOM      4  O   UNK A   0       1.585   6.867  20.911  0.00  0.00    +0.000 OA
ATOM      5  N   UNK A   0       1.609   8.611  19.432  0.00  0.00    +0.000 N 
ATOM      6  H   ILE A   1       3.189   7.156  18.210  0.00  0.00    +0.000 HD
ATOM      7  H   UNK A   0       2.205   9.051  18.750  0.00  0.00    +0.000 HD
BRANCH   5   8
ATOM      8  C   UNK A   0       0.888   9.514  20.329  0.00  0.00    +0.000 C 
BRANCH   8   9
ATOM      9  C   UNK A   0       0.350  10.767  19.663  0.00  0.00    +0.000 A 
ATOM     10  C   UNK A   0       1.103  11.948  19.588  0.00  0.00    +0.000 A 
ATOM     11  C   UNK A   0       0.612  13.071  18.912  0.00  0.00    +0.000 A 
ATOM     12  C   UNK A   0      -0.629  13.027  18.281  0.00  0.00    +0.000 A 
ATOM     13  C   UNK A   0      -1.378  11.854  18.317  0.00  0.00    +0.000 A 
ATOM     14  C   UNK A   0      -0.890  10.732  18.999  0.00  0.00    +0.000 A 
ENDBRANCH   8   9
ENDBRANCH   5   8
ENDBRANCH   1   2
BRANCH   1  15
ATOM     15  C   ILE A   1       4.606   4.914  18.940  0.00  0.00    +0.000 C 
ATOM     16  O   ILE A   1       5.126   3.881  19.368  0.00  0.00    +0.000 OA
ATOM     17  N   TRP A   2       5.342   5.831  18.220  0.00  0.00    +0.000 N 
ATOM     18  H   TRP A   2       4.927   6.747  18.124  0.00  0.00    +0.000 HD
BRANCH  17  19
ATOM     19  CA  TRP A   2       6.823   5.792  18.047  0.00  0.00    +0.000 C 
BRANCH  19  20
ATOM     20  C   TRP A   2       7.406   5.901  19.453  0.00  0.00    +0.000 C 
ATOM     21  O   TRP A   2       8.233   5.107  19.900  0.00  0.00    +0.000 OA
ENDBRANCH  19  20
BRANCH  19  22
ATOM     22  CB  TRP A   2       7.536   4.672  17.210  0.00  0.00    +0.000 C 
BRANCH  22  23
ATOM     23  CG  TRP A   2       6.945   4.348  15.855  0.00  0.00    +0.000 A 
ATOM     24  CD1 TRP A   2       5.691   3.796  15.713  0.00  0.00    +0.000 A 
ATOM     25  NE1 TRP A   2       5.771   3.004  14.611  0.00  0.00    +0.000 N 
ATOM     26  CE2 TRP A   2       6.426   3.791  13.697  0.00  0.00    +0.000 A 
ATOM     27  CZ2 TRP A   2       6.321   3.769  12.299  0.00  0.00    +0.000 A 
ATOM     28  CH2 TRP A   2       7.080   4.709  11.618  0.00  0.00    +0.000 A 
ATOM     29  CZ3 TRP A   2       7.975   5.531  12.294  0.00  0.00    +0.000 A 
ATOM     30  CE3 TRP A   2       8.125   5.471  13.701  0.00  0.00    +0.000 A 
ATOM     31  CD2 TRP A   2       7.266   4.617  14.461  0.00  0.00    +0.000 A 
ATOM     32  HE1 TRP A   2       5.988   2.016  14.666  0.00  0.00    +0.000 HD
ENDBRANCH  22  23
ENDBRANCH  19  22
ENDBRANCH  17  19
ENDBRANCH   1  15
BRANCH   1  33
ATOM     33  CB  ILE A   1       2.062   4.252  18.485  0.00  0.00    +0.000 C 
ATOM     34  CG2 ILE A   1       2.717   3.216  17.561  0.00  0.00    +0.000 C 
BRANCH  33  36
ATOM     35  CD1 ILE A   1       1.720   2.906  20.650  0.00  0.00    +0.000 C 
ATOM     36  CG1 ILE A   1       1.073   3.554  19.436  0.00  0.00    +0.000 C 
ENDBRANCH  33  36
ENDBRANCH   1  33
TORSDOF 10
ENDMDL
MODEL 8
REMARK VINA RESULT:      -7.4      1.273      2.149
REMARK  Name = 
REMARK  12 active torsions:
REMARK  status: ('A' for Active; 'I' for Inactive)
REMARK    1  A    between atoms: CD1_1  and  CG1_2
REMARK    2  A    between atoms: CG1_2  and  CB_3
REMARK    3  A    between atoms: CB_3  and  CG2_4
REMARK    4  A    between atoms: CB_3  and  CA_5
REMARK    5  A    between atoms: CA_5  and  N_6
REMARK    6  A    between atoms: CA_5  and  C_17
REMARK    7  A    between atoms: N_9  and  C_10
REMARK    8  A    between atoms: C_10  and  C_11
REMARK    9  A    between atoms: N_19  and  CA_20
REMARK   10  A    between atoms: CA_20  and  C_21
REMARK   11  A    between atoms: CA_20  and  CB_23
REMARK   12  A    between atoms: CB_23  and  CG_24
REMARK                            x       y       z     vdW  Elec       q    Type
REMARK                         _______ _______ _______ _____ _____    ______ ____
ROOT
ATOM      1  CA  ILE A   1       1.670   7.205  19.903  0.00  0.00    +0.000 C 
ENDROOT
BRANCH   1   2
ATOM      2  N   ILE A   1       1.677   8.113  21.078  0.00  0.00    +0.000 N 
ATOM      3  C   UNK A   0       0.481   8.562  21.615  0.00  0.00    +0.000 C 
ATOM      4  O   UNK A   0      -0.616   8.262  21.159  0.00  0.00    +0.000 OA
ATOM      5  N   UNK A   0       0.644   9.438  22.663  0.00  0.00    +0.000 N 
ATOM      6  H   ILE A   1       2.495   8.143  21.664  0.00  0.00    +0.000 HD
ATOM      7  H   UNK A   0       1.494   9.367  23.197  0.00  0.00    +0.000 HD
BRANCH   5   8
ATOM      8  C   UNK A   0      -0.519   9.963  23.378  0.00  0.00    +0.000 C 
BRANCH   8   9
ATOM      9  C   UNK A   0      -1.031  11.294  22.858  0.00  0.00    +0.000 A 
ATOM     10  C   UNK A   0      -0.321  12.040  21.905  0.00  0.00    +0.000 A 
ATOM     11  C   UNK A   0      -0.845  13.232  21.391  0.00  0.00    +0.000 A 
ATOM     12  C   UNK A   0      -2.095  13.689  21.804  0.00  0.00    +0.000 A 
ATOM     13  C   UNK A   0      -2.828  12.947  22.727  0.00  0.00    +0.000 A 
ATOM     14  C   UNK A   0      -2.302  11.757  23.245  0.00  0.00    +0.000 A 
ENDBRANCH   8   9
ENDBRANCH   5   8
ENDBRANCH   1   2
BRANCH   1  15
ATOM     15  C   ILE A   1       2.100   5.713  20.217  0.00  0.00    +0.000 C 
ATOM     16  O   ILE A   1       2.424   5.360  21.353  0.00  0.00    +0.000 OA
ATOM     17  N   TRP A   2       2.078   4.811  19.175  0.00  0.00    +0.000 N 
ATOM     18  H   TRP A   2       2.052   5.212  18.248  0.00  0.00    +0.000 HD
BRANCH  17  19
ATOM     19  CA  TRP A   2       2.606   3.417  19.240  0.00  0.00    +0.000 C 
BRANCH  19  20
ATOM     20  C   TRP A   2       2.041   2.704  18.014  0.00  0.00    +0.000 C 
ATOM     21  O   TRP A   2       2.102   3.172  16.878  0.00  0.00    +0.000 OA
ENDBRANCH  19  20
BRANCH  19  22
ATOM     22  CB  TRP A   2       4.133   3.111  19.434  0.00  0.00    +0.000 C 
BRANCH  22  23
ATOM     23  CG  TRP A   2       5.109   3.983  18.675  0.00  0.00    +0.000 A 
ATOM     24  CD1 TRP A   2       6.050   4.761  19.313  0.00  0.00    +0.000 A 
ATOM     25  NE1 TRP A   2       6.200   5.859  18.525  0.00  0.00    +0.000 N 
ATOM     26  CE2 TRP A   2       6.294   5.336  17.260  0.00  0.00    +0.000 A 
ATOM     27  CZ2 TRP A   2       6.976   5.860  16.153  0.00  0.00    +0.000 A 
ATOM     28  CH2 TRP A   2       6.931   5.097  14.995  0.00  0.00    +0.000 A 
ATOM     29  CZ3 TRP A   2       6.150   3.948  14.926  0.00  0.00    +0.000 A 
ATOM     30  CE3 TRP A   2       5.401   3.489  16.036  0.00  0.00    +0.000 A 
ATOM     31  CD2 TRP A   2       5.523   4.162  17.291  0.00  0.00    +0.000 A 
ATOM     32  HE1 TRP A   2       5.676   6.712  18.676  0.00  0.00    +0.000 HD
ENDBRANCH  22  23
ENDBRANCH  19  22
ENDBRANCH  17  19
ENDBRANCH   1  15
BRANCH   1  33
ATOM     33  CB  ILE A   1       2.398   7.887  18.701  0.00  0.00    +0.000 C 
ATOM     34  CG2 ILE A   1       3.101   6.908  17.752  0.00  0.00    +0.000 C 
BRANCH  33  36
ATOM     35  CD1 ILE A   1       1.741  10.336  18.272  0.00  0.00    +0.000 C 
ATOM     36  CG1 ILE A   1       1.541   8.878  17.892  0.00  0.00    +0.000 C 
ENDBRANCH  33  36
ENDBRANCH   1  33
TORSDOF 10
ENDMDL
MODEL 9
REMARK VINA RESULT:      -7.4      3.450      4.533
REMARK  Name = 
REMARK  12 active torsions:
REMARK  status: ('A' for Active; 'I' for Inactive)
REMARK    1  A    between atoms: CD1_1  and  CG1_2
REMARK    2  A    between atoms: CG1_2  and  CB_3
REMARK    3  A    between atoms: CB_3  and  CG2_4
REMARK    4  A    between atoms: CB_3  and  CA_5
REMARK    5  A    between atoms: CA_5  and  N_6
REMARK    6  A    between atoms: CA_5  and  C_17
REMARK    7  A    between atoms: N_9  and  C_10
REMARK    8  A    between atoms: C_10  and  C_11
REMARK    9  A    between atoms: N_19  and  CA_20
REMARK   10  A    between atoms: CA_20  and  C_21
REMARK   11  A    between atoms: CA_20  and  CB_23
REMARK   12  A    between atoms: CB_23  and  CG_24
REMARK                            x       y       z     vdW  Elec       q    Type
REMARK                         _______ _______ _______ _____ _____    ______ ____
ROOT
ATOM      1  CA  ILE A   1       1.205  10.139  19.242  0.00  0.00    +0.000 C 
ENDROOT
BRANCH   1   2
ATOM      2  N   ILE A   1       1.574  11.295  18.387  0.00  0.00    +0.000 N 
ATOM      3  C   UNK A   0       1.929  12.503  18.968  0.00  0.00    +0.000 C 
ATOM      4  O   UNK A   0       1.942  12.688  20.180  0.00  0.00    +0.000 OA
ATOM      5  N   UNK A   0       2.191  13.496  18.054  0.00  0.00    +0.000 N 
ATOM      6  H   ILE A   1       1.872  11.125  17.441  0.00  0.00    +0.000 HD
ATOM      7  H   UNK A   0       2.504  13.212  17.140  0.00  0.00    +0.000 HD
BRANCH   5   8
ATOM      8  C   UNK A   0       2.633  14.817  18.500  0.00  0.00    +0.000 C 
BRANCH   8   9
ATOM      9  C   UNK A   0       1.682  15.949  18.157  0.00  0.00    +0.000 A 
ATOM     10  C   UNK A   0       0.359  15.971  18.621  0.00  0.00    +0.000 A 
ATOM     11  C   UNK A   0      -0.480  17.058  18.347  0.00  0.00    +0.000 A 
ATOM     12  C   UNK A   0      -0.006  18.150  17.623  0.00  0.00    +0.000 A 
ATOM     13  C   UNK A   0       1.314  18.160  17.180  0.00  0.00    +0.000 A 
ATOM     14  C   UNK A   0       2.152  17.071  17.450  0.00  0.00    +0.000 A 
ENDBRANCH   8   9
ENDBRANCH   5   8
ENDBRANCH   1   2
BRANCH   1  15
ATOM     15  C   ILE A   1       1.882   8.767  18.829  0.00  0.00    +0.000 C 
ATOM     16  O   ILE A   1       2.324   8.583  17.693  0.00  0.00    +0.000 OA
ATOM     17  N   TRP A   2       1.979   7.788  19.794  0.00  0.00    +0.000 N 
ATOM     18  H   TRP A   2       1.385   7.909  20.602  0.00  0.00    +0.000 HD
BRANCH  17  19
ATOM     19  CA  TRP A   2       2.427   6.387  19.548  0.00  0.00    +0.000 C 
BRANCH  19  20
ATOM     20  C   TRP A   2       2.072   5.611  20.814  0.00  0.00    +0.000 C 
ATOM     21  O   TRP A   2       2.108   4.384  20.881  0.00  0.00    +0.000 OA
ENDBRANCH  19  20
BRANCH  19  22
ATOM     22  CB  TRP A   2       2.024   5.597  18.253  0.00  0.00    +0.000 C 
BRANCH  22  23
ATOM     23  CG  TRP A   2       3.120   4.826  17.551  0.00  0.00    +0.000 A 
ATOM     24  CD1 TRP A   2       3.031   3.472  17.314  0.00  0.00    +0.000 A 
ATOM     25  NE1 TRP A   2       4.309   3.011  17.390  0.00  0.00    +0.000 N 
ATOM     26  CE2 TRP A   2       5.024   3.925  16.656  0.00  0.00    +0.000 A 
ATOM     27  CZ2 TRP A   2       6.206   3.720  15.932  0.00  0.00    +0.000 A 
ATOM     28  CH2 TRP A   2       6.697   4.823  15.247  0.00  0.00    +0.000 A 
ATOM     29  CZ3 TRP A   2       6.104   6.073  15.386  0.00  0.00    +0.000 A 
ATOM     30  CE3 TRP A   2       4.958   6.268  16.195  0.00  0.00    +0.000 A 
ATOM     31  CD2 TRP A   2       4.333   5.138  16.809  0.00  0.00    +0.000 A 
ATOM     32  HE1 TRP A   2       4.702   2.639  18.245  0.00  0.00    +0.000 HD
ENDBRANCH  22  23
ENDBRANCH  19  22
ENDBRANCH  17  19
ENDBRANCH   1  15
BRANCH   1  33
ATOM     33  CB  ILE A   1      -0.343  10.103  19.446  0.00  0.00    +0.000 C 
ATOM     34  CG2 ILE A   1      -0.808  10.594  20.824  0.00  0.00    +0.000 C 
BRANCH  33  36
ATOM     35  CD1 ILE A   1      -1.618   9.854  17.227  0.00  0.00    +0.000 C 
ATOM     36  CG1 ILE A   1      -1.167  10.786  18.340  0.00  0.00    +0.000 C 
ENDBRANCH  33  36
ENDBRANCH   1  33
TORSDOF 10
ENDMDL
