MODEL 1
REMARK VINA RESULT:      -9.0      0.000      0.000
REMARK  Name = 
REMARK  2 active torsions:
REMARK  status: ('A' for Active; 'I' for Inactive)
REMARK    1  A    between atoms: C_5  and  C_6
REMARK    2  A    between atoms: N_16  and  C_17
REMARK                            x       y       z     vdW  Elec       q    Type
REMARK                         _______ _______ _______ _____ _____    ______ ____
ROOT
ATOM      1  C   UNL     1       4.051   4.009  18.813  0.00  0.00    +0.000 A 
ATOM      2  C   UNL     1       3.986   2.791  19.379  0.00  0.00    +0.000 A 
ATOM      3  C   UNL     1       3.051   2.664  20.529  0.00  0.00    +0.000 A 
ATOM      4  N   UNL     1       2.331   3.611  21.043  0.00  0.00    +0.000 NA
ATOM      5  C   UNL     1       2.442   4.833  20.446  0.00  0.00    +0.000 A 
ATOM      6  N   UNL     1       1.861   5.962  20.765  0.00  0.00    +0.000 NA
ATOM      7  C   UNL     1       2.290   6.843  19.817  0.00  0.00    +0.000 A 
ATOM      8  N   UNL     1       1.826   8.103  19.841  0.00  0.00    +0.000 N 
ATOM      9  C   UNL     1       2.143   9.074  18.795  0.00  0.00    +0.000 C 
ATOM     10  C   UNL     1       0.852   9.756  18.284  0.00  0.00    +0.000 C 
ATOM     11  N   UNL     1       0.068  10.304  19.410  0.00  0.00    +0.000 N 
ATOM     12  C   UNL     1      -0.228   9.329  20.478  0.00  0.00    +0.000 C 
ATOM     13  C   UNL     1       1.059   8.634  20.972  0.00  0.00    +0.000 C 
ATOM     14  N   UNL     1       3.131   6.327  18.920  0.00  0.00    +0.000 NA
ATOM     15  N   UNL     1       3.261   5.046  19.332  0.00  0.00    +0.000 N 
ENDROOT
BRANCH   1  20
ATOM     16  F   UNL     1       7.615   4.801  14.571  0.00  0.00    +0.000 F 
ATOM     17  C   UNL     1       6.760   4.614  15.585  0.00  0.00    +0.000 A 
ATOM     18  C   UNL     1       5.440   4.271  15.312  0.00  0.00    +0.000 A 
ATOM     19  C   UNL     1       4.545   4.076  16.366  0.00  0.00    +0.000 A 
ATOM     20  C   UNL     1       4.977   4.227  17.692  0.00  0.00    +0.000 A 
ATOM     21  C   UNL     1       6.314   4.569  17.948  0.00  0.00    +0.000 A 
ATOM     22  C   UNL     1       7.206   4.764  16.893  0.00  0.00    +0.000 A 
ENDBRANCH   1  20
BRANCH  11  23
ATOM     23  C   UNL     1      -0.294  11.633  19.468  0.00  0.00    +0.000 A 
ATOM     24  C   UNL     1       0.392  12.615  18.733  0.00  0.00    +0.000 A 
ATOM     25  C   UNL     1       0.061  13.972  18.811  0.00  0.00    +0.000 A 
ATOM     26  C   UNL     1      -0.984  14.387  19.628  0.00  0.00    +0.000 A 
ATOM     27  C   UNL     1      -1.696  13.440  20.354  0.00  0.00    +0.000 A 
ATOM     28  C   UNL     1      -1.355  12.084  20.270  0.00  0.00    +0.000 A 
ENDBRANCH  11  23
TORSDOF 2
ENDMDL
MODEL 2
REMARK VINA RESULT:      -9.0      0.057      1.288
REMARK  Name = 
REMARK  2 active torsions:
REMARK  status: ('A' for Active; 'I' for Inactive)
REMARK    1  A    between atoms: C_5  and  C_6
REMARK    2  A    between atoms: N_16  and  C_17
REMARK                            x       y       z     vdW  Elec       q    Type
REMARK                         _______ _______ _______ _____ _____    ______ ____
ROOT
ATOM      1  C   UNL     1       4.044   3.998  18.865  0.00  0.00    +0.000 A 
ATOM      2  C   UNL     1       3.969   2.784  19.439  0.00  0.00    +0.000 A 
ATOM      3  C   UNL     1       3.030   2.671  20.588  0.00  0.00    +0.000 A 
ATOM      4  N   UNL     1       2.316   3.627  21.094  0.00  0.00    +0.000 NA
ATOM      5  C   UNL     1       2.437   4.844  20.488  0.00  0.00    +0.000 A 
ATOM      6  N   UNL     1       1.862   5.979  20.797  0.00  0.00    +0.000 NA
ATOM      7  C   UNL     1       2.300   6.850  19.845  0.00  0.00    +0.000 A 
ATOM      8  N   UNL     1       1.845   8.114  19.858  0.00  0.00    +0.000 N 
ATOM      9  C   UNL     1       2.172   9.075  18.806  0.00  0.00    +0.000 C 
ATOM     10  C   UNL     1       0.887   9.762  18.287  0.00  0.00    +0.000 C 
ATOM     11  N   UNL     1       0.104  10.324  19.407  0.00  0.00    +0.000 N 
ATOM     12  C   UNL     1      -0.202   9.359  20.481  0.00  0.00    +0.000 C 
ATOM     13  C   UNL     1       1.078   8.658  20.984  0.00  0.00    +0.000 C 
ATOM     14  N   UNL     1       3.140   6.322  18.954  0.00  0.00    +0.000 NA
ATOM     15  N   UNL     1       3.260   5.043  19.375  0.00  0.00    +0.000 N 
ENDROOT
BRANCH   1  20
ATOM     16  F   UNL     1       7.547   4.804  14.575  0.00  0.00    +0.000 F 
ATOM     17  C   UNL     1       6.711   4.609  15.603  0.00  0.00    +0.000 A 
ATOM     18  C   UNL     1       7.180   4.755  16.904  0.00  0.00    +0.000 A 
ATOM     19  C   UNL     1       6.311   4.552  17.979  0.00  0.00    +0.000 A 
ATOM     20  C   UNL     1       4.974   4.200  17.745  0.00  0.00    +0.000 A 
ATOM     21  C   UNL     1       4.517   4.061  16.425  0.00  0.00    +0.000 A 
ATOM     22  C   UNL     1       5.387   4.265  15.353  0.00  0.00    +0.000 A 
ENDBRANCH   1  20
BRANCH  11  23
ATOM     23  C   UNL     1      -0.249  11.656  19.455  0.00  0.00    +0.000 A 
ATOM     24  C   UNL     1      -1.339  12.099  20.223  0.00  0.00    +0.000 A 
ATOM     25  C   UNL     1      -1.734  13.441  20.252  0.00  0.00    +0.000 A 
ATOM     26  C   UNL     1      -1.035  14.388  19.513  0.00  0.00    +0.000 A 
ATOM     27  C   UNL     1       0.059  13.987  18.758  0.00  0.00    +0.000 A 
ATOM     28  C   UNL     1       0.445  12.640  18.734  0.00  0.00    +0.000 A 
ENDBRANCH  11  23
TORSDOF 2
ENDMDL
MODEL 3
REMARK VINA RESULT:      -8.4      0.702      1.158
REMARK  Name = 
REMARK  2 active torsions:
REMARK  status: ('A' for Active; 'I' for Inactive)
REMARK    1  A    between atoms: C_5  and  C_6
REMARK    2  A    between atoms: N_16  and  C_17
REMARK                            x       y       z     vdW  Elec       q    Type
REMARK                         _______ _______ _______ _____ _____    ______ ____
ROOT
ATOM      1  C   UNL     1       4.382   3.824  18.208  0.00  0.00    +0.000 A 
ATOM      2  C   UNL     1       4.406   2.584  18.729  0.00  0.00    +0.000 A 
ATOM      3  C   UNL     1       3.577   2.382  19.947  0.00  0.00    +0.000 A 
ATOM      4  N   UNL     1       2.873   3.283  20.557  0.00  0.00    +0.000 NA
ATOM      5  C   UNL     1       2.893   4.530  20.001  0.00  0.00    +0.000 A 
ATOM      6  N   UNL     1       2.304   5.624  20.412  0.00  0.00    +0.000 NA
ATOM      7  C   UNL     1       2.622   6.554  19.467  0.00  0.00    +0.000 A 
ATOM      8  N   UNL     1       2.121   7.795  19.579  0.00  0.00    +0.000 N 
ATOM      9  C   UNL     1       2.316   8.815  18.549  0.00  0.00    +0.000 C 
ATOM     10  C   UNL     1       0.966   9.468  18.175  0.00  0.00    +0.000 C 
ATOM     11  N   UNL     1       0.263   9.947  19.384  0.00  0.00    +0.000 N 
ATOM     12  C   UNL     1       0.090   8.923  20.434  0.00  0.00    +0.000 C 
ATOM     13  C   UNL     1       1.436   8.257  20.791  0.00  0.00    +0.000 C 
ATOM     14  N   UNL     1       3.400   6.102  18.484  0.00  0.00    +0.000 NA
ATOM     15  N   UNL     1       3.606   4.811  18.832  0.00  0.00    +0.000 N 
ENDROOT
BRANCH   1  20
ATOM     16  F   UNL     1       7.460   4.963  13.674  0.00  0.00    +0.000 F 
ATOM     17  C   UNL     1       6.726   4.689  14.760  0.00  0.00    +0.000 A 
ATOM     18  C   UNL     1       7.291   4.834  16.022  0.00  0.00    +0.000 A 
ATOM     19  C   UNL     1       6.529   4.548  17.157  0.00  0.00    +0.000 A 
ATOM     20  C   UNL     1       5.202   4.115  17.023  0.00  0.00    +0.000 A 
ATOM     21  C   UNL     1       4.647   3.978  15.740  0.00  0.00    +0.000 A 
ATOM     22  C   UNL     1       5.410   4.264  14.608  0.00  0.00    +0.000 A 
ENDBRANCH   1  20
BRANCH  11  23
ATOM     23  C   UNL     1      -0.136  11.259  19.525  0.00  0.00    +0.000 A 
ATOM     24  C   UNL     1       0.798  12.304  19.627  0.00  0.00    +0.000 A 
ATOM     25  C   UNL     1       0.409  13.635  19.809  0.00  0.00    +0.000 A 
ATOM     26  C   UNL     1      -0.939  13.963  19.884  0.00  0.00    +0.000 A 
ATOM     27  C   UNL     1      -1.890  12.956  19.768  0.00  0.00    +0.000 A 
ATOM     28  C   UNL     1      -1.489  11.625  19.588  0.00  0.00    +0.000 A 
ENDBRANCH  11  23
TORSDOF 2
ENDMDL
MODEL 4
REMARK VINA RESULT:      -7.8      3.086      4.947
REMARK  Name = 
REMARK  2 active torsions:
REMARK  status: ('A' for Active; 'I' for Inactive)
REMARK    1  A    between atoms: C_5  and  C_6
REMARK    2  A    between atoms: N_16  and  C_17
REMARK                            x       y       z     vdW  Elec       q    Type
REMARK                         _______ _______ _______ _____ _____    ______ ____
ROOT
ATOM      1  C   UNL     1       2.556   6.213  18.956  0.00  0.00    +0.000 A 
ATOM      2  C   UNL     1       3.435   6.109  17.944  0.00  0.00    +0.000 A 
ATOM      3  C   UNL     1       3.704   7.363  17.191  0.00  0.00    +0.000 A 
ATOM      4  N   UNL     1       3.154   8.519  17.402  0.00  0.00    +0.000 NA
ATOM      5  C   UNL     1       2.257   8.572  18.429  0.00  0.00    +0.000 A 
ATOM      6  N   UNL     1       1.542   9.586  18.846  0.00  0.00    +0.000 NA
ATOM      7  C   UNL     1       0.858   9.098  19.919  0.00  0.00    +0.000 A 
ATOM      8  N   UNL     1       0.054   9.924  20.610  0.00  0.00    +0.000 N 
ATOM      9  C   UNL     1      -0.621   9.512  21.840  0.00  0.00    +0.000 C 
ATOM     10  C   UNL     1      -0.388  10.556  22.957  0.00  0.00    +0.000 C 
ATOM     11  N   UNL     1      -0.743  11.912  22.490  0.00  0.00    +0.000 N 
ATOM     12  C   UNL     1      -0.081  12.316  21.233  0.00  0.00    +0.000 C 
ATOM     13  C   UNL     1      -0.296  11.263  20.125  0.00  0.00    +0.000 C 
ATOM     14  N   UNL     1       1.095   7.815  20.192  0.00  0.00    +0.000 NA
ATOM     15  N   UNL     1       1.968   7.458  19.223  0.00  0.00    +0.000 N 
ENDROOT
BRANCH   1  20
ATOM     16  F   UNL     1       1.225   1.667  21.937  0.00  0.00    +0.000 F 
ATOM     17  C   UNL     1       1.545   2.753  21.221  0.00  0.00    +0.000 A 
ATOM     18  C   UNL     1       1.056   2.887  19.926  0.00  0.00    +0.000 A 
ATOM     19  C   UNL     1       1.388   4.017  19.176  0.00  0.00    +0.000 A 
ATOM     20  C   UNL     1       2.211   5.010  19.727  0.00  0.00    +0.000 A 
ATOM     21  C   UNL     1       2.691   4.860  21.038  0.00  0.00    +0.000 A 
ATOM     22  C   UNL     1       2.358   3.730  21.785  0.00  0.00    +0.000 A 
ENDBRANCH   1  20
BRANCH  11  23
ATOM     23  C   UNL     1      -1.663  12.696  23.153  0.00  0.00    +0.000 A 
ATOM     24  C   UNL     1      -1.337  13.983  23.611  0.00  0.00    +0.000 A 
ATOM     25  C   UNL     1      -2.247  14.776  24.318  0.00  0.00    +0.000 A 
ATOM     26  C   UNL     1      -3.526  14.300  24.581  0.00  0.00    +0.000 A 
ATOM     27  C   UNL     1      -3.887  13.037  24.126  0.00  0.00    +0.000 A 
ATOM     28  C   UNL     1      -2.967  12.252  23.420  0.00  0.00    +0.000 A 
ENDBRANCH  11  23
TORSDOF 2
ENDMDL
MODEL 5
REMARK VINA RESULT:      -7.7      3.084      5.076
REMARK  Name = 
REMARK  2 active torsions:
REMARK  status: ('A' for Active; 'I' for Inactive)
REMARK    1  A    between atoms: C_5  and  C_6
REMARK    2  A    between atoms: N_16  and  C_17
REMARK                            x       y       z     vdW  Elec       q    Type
REMARK                         _______ _______ _______ _____ _____    ______ ____
ROOT
ATOM      1  C   UNL     1       2.549   6.252  18.972  0.00  0.00    +0.000 A 
ATOM      2  C   UNL     1       3.421   6.149  17.954  0.00  0.00    +0.000 A 
ATOM      3  C   UNL     1       3.678   7.403  17.196  0.00  0.00    +0.000 A 
ATOM      4  N   UNL     1       3.123   8.556  17.405  0.00  0.00    +0.000 NA
ATOM      5  C   UNL     1       2.232   8.607  18.438  0.00  0.00    +0.000 A 
ATOM      6  N   UNL     1       1.513   9.618  18.856  0.00  0.00    +0.000 NA
ATOM      7  C   UNL     1       0.838   9.130  19.935  0.00  0.00    +0.000 A 
ATOM      8  N   UNL     1       0.034   9.953  20.628  0.00  0.00    +0.000 N 
ATOM      9  C   UNL     1      -0.631   9.542  21.863  0.00  0.00    +0.000 C 
ATOM     10  C   UNL     1      -0.398  10.591  22.975  0.00  0.00    +0.000 C 
ATOM     11  N   UNL     1      -0.764  11.943  22.505  0.00  0.00    +0.000 N 
ATOM     12  C   UNL     1      -0.112  12.347  21.243  0.00  0.00    +0.000 C 
ATOM     13  C   UNL     1      -0.328  11.288  20.140  0.00  0.00    +0.000 C 
ATOM     14  N   UNL     1       1.085   7.850  20.211  0.00  0.00    +0.000 NA
ATOM     15  N   UNL     1       1.954   7.494  19.238  0.00  0.00    +0.000 N 
ENDROOT
BRANCH   1  20
ATOM     16  F   UNL     1       1.297   1.642  21.888  0.00  0.00    +0.000 F 
ATOM     17  C   UNL     1       1.595   2.747  21.193  0.00  0.00    +0.000 A 
ATOM     18  C   UNL     1       2.346   3.751  21.793  0.00  0.00    +0.000 A 
ATOM     19  C   UNL     1       2.659   4.905  21.072  0.00  0.00    +0.000 A 
ATOM     20  C   UNL     1       2.215   5.050  19.750  0.00  0.00    +0.000 A 
ATOM     21  C   UNL     1       1.461   4.024  19.158  0.00  0.00    +0.000 A 
ATOM     22  C   UNL     1       1.150   2.871  19.881  0.00  0.00    +0.000 A 
ENDBRANCH   1  20
BRANCH  11  23
ATOM     23  C   UNL     1      -1.685  12.723  23.171  0.00  0.00    +0.000 A 
ATOM     24  C   UNL     1      -2.974  12.248  23.466  0.00  0.00    +0.000 A 
ATOM     25  C   UNL     1      -3.933  13.040  24.106  0.00  0.00    +0.000 A 
ATOM     26  C   UNL     1      -3.621  14.341  24.483  0.00  0.00    +0.000 A 
ATOM     27  C   UNL     1      -2.349  14.836  24.224  0.00  0.00    +0.000 A 
ATOM     28  C   UNL     1      -1.397  14.034  23.580  0.00  0.00    +0.000 A 
ENDBRANCH  11  23
TORSDOF 2
ENDMDL
MODEL 6
REMARK VINA RESULT:      -7.5      3.195      8.836
REMARK  Name = 
REMARK  2 active torsions:
REMARK  status: ('A' for Active; 'I' for Inactive)
REMARK    1  A    between atoms: C_5  and  C_6
REMARK    2  A    between atoms: N_16  and  C_17
REMARK                            x       y       z     vdW  Elec       q    Type
REMARK                         _______ _______ _______ _____ _____    ______ ____
ROOT
ATOM      1  C   UNL     1      -0.071  11.223  21.309  0.00  0.00    +0.000 A 
ATOM      2  C   UNL     1      -0.638  11.292  22.527  0.00  0.00    +0.000 A 
ATOM      3  C   UNL     1      -0.572  10.047  23.339  0.00  0.00    +0.000 A 
ATOM      4  N   UNL     1      -0.054   8.916  22.973  0.00  0.00    +0.000 NA
ATOM      5  C   UNL     1       0.495   8.891  21.723  0.00  0.00    +0.000 A 
ATOM      6  N   UNL     1       1.057   7.892  21.091  0.00  0.00    +0.000 NA
ATOM      7  C   UNL     1       1.465   8.429  19.906  0.00  0.00    +0.000 A 
ATOM      8  N   UNL     1       2.132   7.654  19.035  0.00  0.00    +0.000 N 
ATOM      9  C   UNL     1       2.706   8.182  17.798  0.00  0.00    +0.000 C 
ATOM     10  C   UNL     1       4.182   7.743  17.659  0.00  0.00    +0.000 C 
ATOM     11  N   UNL     1       4.310   6.279  17.816  0.00  0.00    +0.000 N 
ATOM     12  C   UNL     1       3.706   5.744  19.053  0.00  0.00    +0.000 C 
ATOM     13  C   UNL     1       2.239   6.201  19.202  0.00  0.00    +0.000 C 
ATOM     14  N   UNL     1       1.172   9.720  19.752  0.00  0.00    +0.000 NA
ATOM     15  N   UNL     1       0.521  10.020  20.899  0.00  0.00    +0.000 N 
ENDROOT
BRANCH   1  20
ATOM     16  F   UNL     1      -0.219  15.719  17.979  0.00  0.00    +0.000 F 
ATOM     17  C   UNL     1      -0.187  14.643  18.775  0.00  0.00    +0.000 A 
ATOM     18  C   UNL     1      -0.653  13.424  18.297  0.00  0.00    +0.000 A 
ATOM     19  C   UNL     1      -0.622  12.299  19.124  0.00  0.00    +0.000 A 
ATOM     20  C   UNL     1      -0.124  12.401  20.431  0.00  0.00    +0.000 A 
ATOM     21  C   UNL     1       0.346  13.640  20.896  0.00  0.00    +0.000 A 
ATOM     22  C   UNL     1       0.314  14.762  20.067  0.00  0.00    +0.000 A 
ENDBRANCH   1  20
BRANCH  11  23
ATOM     23  C   UNL     1       4.894   5.489  16.849  0.00  0.00    +0.000 A 
ATOM     24  C   UNL     1       5.420   6.041  15.669  0.00  0.00    +0.000 A 
ATOM     25  C   UNL     1       5.981   5.249  14.661  0.00  0.00    +0.000 A 
ATOM     26  C   UNL     1       6.042   3.869  14.814  0.00  0.00    +0.000 A 
ATOM     27  C   UNL     1       5.548   3.292  15.978  0.00  0.00    +0.000 A 
ATOM     28  C   UNL     1       4.987   4.095  16.979  0.00  0.00    +0.000 A 
ENDBRANCH  11  23
TORSDOF 2
ENDMDL
MODEL 7
REMARK VINA RESULT:      -7.4      2.716      4.310
REMARK  Name = 
REMARK  2 active torsions:
REMARK  status: ('A' for Active; 'I' for Inactive)
REMARK    1  A    between atoms: C_5  and  C_6
REMARK    2  A    between atoms: N_16  and  C_17
REMARK                            x       y       z     vdW  Elec       q    Type
REMARK                         _______ _______ _______ _____ _____    ______ ____
ROOT
ATOM      1  C   UNL     1       3.191   5.341  18.540  0.00  0.00    +0.000 A 
ATOM      2  C   UNL     1       4.108   4.821  17.705  0.00  0.00    +0.000 A 
ATOM      3  C   UNL     1       4.698   5.771  16.724  0.00  0.00    +0.000 A 
ATOM      4  N   UNL     1       4.389   7.022  16.584  0.00  0.00    +0.000 NA
ATOM      5  C   UNL     1       3.442   7.500  17.443  0.00  0.00    +0.000 A 
ATOM      6  N   UNL     1       2.925   8.701  17.513  0.00  0.00    +0.000 NA
ATOM      7  C   UNL     1       2.066   8.638  18.570  0.00  0.00    +0.000 A 
ATOM      8  N   UNL     1       1.401   9.746  18.936  0.00  0.00    +0.000 N 
ATOM      9  C   UNL     1       0.555   9.793  20.128  0.00  0.00    +0.000 C 
ATOM     10  C   UNL     1       0.909  11.025  20.992  0.00  0.00    +0.000 C 
ATOM     11  N   UNL     1       0.889  12.259  20.178  0.00  0.00    +0.000 N 
ATOM     12  C   UNL     1       1.723  12.200  18.961  0.00  0.00    +0.000 C 
ATOM     13  C   UNL     1       1.383  10.957  18.111  0.00  0.00    +0.000 C 
ATOM     14  N   UNL     1       2.004   7.446  19.163  0.00  0.00    +0.000 NA
ATOM     15  N   UNL     1       2.859   6.699  18.429  0.00  0.00    +0.000 N 
ENDROOT
BRANCH   1  20
ATOM     16  F   UNL     1       0.698   2.028  22.300  0.00  0.00    +0.000 F 
ATOM     17  C   UNL     1       1.295   2.818  21.398  0.00  0.00    +0.000 A 
ATOM     18  C   UNL     1       0.773   2.903  20.112  0.00  0.00    +0.000 A 
ATOM     19  C   UNL     1       1.393   3.726  19.169  0.00  0.00    +0.000 A 
ATOM     20  C   UNL     1       2.536   4.459  19.518  0.00  0.00    +0.000 A 
ATOM     21  C   UNL     1       3.046   4.363  20.822  0.00  0.00    +0.000 A 
ATOM     22  C   UNL     1       2.425   3.541  21.763  0.00  0.00    +0.000 A 
ENDBRANCH   1  20
BRANCH  11  23
ATOM     23  C   UNL     1       0.103  13.341  20.513  0.00  0.00    +0.000 A 
ATOM     24  C   UNL     1      -0.153  14.374  19.595  0.00  0.00    +0.000 A 
ATOM     25  C   UNL     1      -0.916  15.497  19.931  0.00  0.00    +0.000 A 
ATOM     26  C   UNL     1      -1.459  15.614  21.204  0.00  0.00    +0.000 A 
ATOM     27  C   UNL     1      -1.241  14.601  22.130  0.00  0.00    +0.000 A 
ATOM     28  C   UNL     1      -0.474  13.481  21.784  0.00  0.00    +0.000 A 
ENDBRANCH  11  23
TORSDOF 2
ENDMDL
MODEL 8
REMARK VINA RESULT:      -7.4      2.815      4.555
REMARK  Name = 
REMARK  2 active torsions:
REMARK  status: ('A' for Active; 'I' for Inactive)
REMARK    1  A    between atoms: C_5  and  C_6
REMARK    2  A    between atoms: N_16  and  C_17
REMARK                            x       y       z     vdW  Elec       q    Type
REMARK                         _______ _______ _______ _____ _____    ______ ____
ROOT
ATOM      1  C   UNL     1       2.910   5.869  18.635  0.00  0.00    +0.000 A 
ATOM      2  C   UNL     1       3.849   5.534  17.732  0.00  0.00    +0.000 A 
ATOM      3  C   UNL     1       4.310   6.635  16.844  0.00  0.00    +0.000 A 
ATOM      4  N   UNL     1       3.874   7.856  16.843  0.00  0.00    +0.000 NA
ATOM      5  C   UNL     1       2.910   8.144  17.765  0.00  0.00    +0.000 A 
ATOM      6  N   UNL     1       2.278   9.272  17.971  0.00  0.00    +0.000 NA
ATOM      7  C   UNL     1       1.463   9.013  19.032  0.00  0.00    +0.000 A 
ATOM      8  N   UNL     1       0.701  10.003  19.526  0.00  0.00    +0.000 N 
ATOM      9  C   UNL     1      -0.109   9.841  20.733  0.00  0.00    +0.000 C 
ATOM     10  C   UNL     1       0.147  11.008  21.714  0.00  0.00    +0.000 C 
ATOM     11  N   UNL     1      -0.022  12.310  21.035  0.00  0.00    +0.000 N 
ATOM     12  C   UNL     1       0.777  12.462  19.802  0.00  0.00    +0.000 C 
ATOM     13  C   UNL     1       0.537  11.285  18.833  0.00  0.00    +0.000 C 
ATOM     14  N   UNL     1       1.538   7.766  19.499  0.00  0.00    +0.000 NA
ATOM     15  N   UNL     1       2.441   7.190  18.673  0.00  0.00    +0.000 N 
ENDROOT
BRANCH   1  20
ATOM     16  F   UNL     1       0.871   1.952  22.073  0.00  0.00    +0.000 F 
ATOM     17  C   UNL     1       1.359   2.887  21.248  0.00  0.00    +0.000 A 
ATOM     18  C   UNL     1       0.897   2.953  19.939  0.00  0.00    +0.000 A 
ATOM     19  C   UNL     1       1.404   3.926  19.075  0.00  0.00    +0.000 A 
ATOM     20  C   UNL     1       2.377   4.829  19.527  0.00  0.00    +0.000 A 
ATOM     21  C   UNL     1       2.829   4.750  20.854  0.00  0.00    +0.000 A 
ATOM     22  C   UNL     1       2.320   3.777  21.715  0.00  0.00    +0.000 A 
ENDBRANCH   1  20
BRANCH  11  23
ATOM     23  C   UNL     1      -0.901  13.266  21.496  0.00  0.00    +0.000 A 
ATOM     24  C   UNL     1      -0.931  13.645  22.849  0.00  0.00    +0.000 A 
ATOM     25  C   UNL     1      -1.843  14.585  23.340  0.00  0.00    +0.000 A 
ATOM     26  C   UNL     1      -2.753  15.186  22.480  0.00  0.00    +0.000 A 
ATOM     27  C   UNL     1      -2.738  14.849  21.132  0.00  0.00    +0.000 A 
ATOM     28  C   UNL     1      -1.822  13.905  20.651  0.00  0.00    +0.000 A 
ENDBRANCH  11  23
TORSDOF 2
ENDMDL
MODEL 9
REMARK VINA RESULT:      -7.4      2.582      4.274
REMARK  Name = 
REMARK  2 active torsions:
REMARK  status: ('A' for Active; 'I' for Inactive)
REMARK    1  A    between atoms: C_5  and  C_6
REMARK    2  A    between atoms: N_16  and  C_17
REMARK                            x       y       z     vdW  Elec       q    Type
REMARK                         _______ _______ _______ _____ _____    ______ ____
ROOT
ATOM      1  C   UNL     1       3.420   5.250  18.567  0.00  0.00    +0.000 A 
ATOM      2  C   UNL     1       4.350   4.804  17.704  0.00  0.00    +0.000 A 
ATOM      3  C   UNL     1       4.850   5.803  16.722  0.00  0.00    +0.000 A 
ATOM      4  N   UNL     1       4.455   7.032  16.607  0.00  0.00    +0.000 NA
ATOM      5  C   UNL     1       3.499   7.435  17.494  0.00  0.00    +0.000 A 
ATOM      6  N   UNL     1       2.904   8.597  17.592  0.00  0.00    +0.000 NA
ATOM      7  C   UNL     1       2.078   8.463  18.668  0.00  0.00    +0.000 A 
ATOM      8  N   UNL     1       1.348   9.520  19.065  0.00  0.00    +0.000 N 
ATOM      9  C   UNL     1       0.530   9.495  20.276  0.00  0.00    +0.000 C 
ATOM     10  C   UNL     1       0.822  10.738  21.148  0.00  0.00    +0.000 C 
ATOM     11  N   UNL     1       0.699  11.977  20.352  0.00  0.00    +0.000 N 
ATOM     12  C   UNL     1       1.506  11.990  19.115  0.00  0.00    +0.000 C 
ATOM     13  C   UNL     1       1.229  10.737  18.256  0.00  0.00    +0.000 C 
ATOM     14  N   UNL     1       2.110   7.263  19.246  0.00  0.00    +0.000 NA
ATOM     15  N   UNL     1       2.995   6.584  18.482  0.00  0.00    +0.000 N 
ENDROOT
BRANCH   1  20
ATOM     16  F   UNL     1       1.290   1.705  22.338  0.00  0.00    +0.000 F 
ATOM     17  C   UNL     1       1.797   2.553  21.433  0.00  0.00    +0.000 A 
ATOM     18  C   UNL     1       0.949   3.427  20.764  0.00  0.00    +0.000 A 
ATOM     19  C   UNL     1       1.474   4.312  19.820  0.00  0.00    +0.000 A 
ATOM     20  C   UNL     1       2.850   4.315  19.548  0.00  0.00    +0.000 A 
ATOM     21  C   UNL     1       3.692   3.427  20.236  0.00  0.00    +0.000 A 
ATOM     22  C   UNL     1       3.165   2.544  21.179  0.00  0.00    +0.000 A 
ENDBRANCH   1  20
BRANCH  11  23
ATOM     23  C   UNL     1      -0.149  13.000  20.719  0.00  0.00    +0.000 A 
ATOM     24  C   UNL     1      -0.963  12.905  21.861  0.00  0.00    +0.000 A 
ATOM     25  C   UNL     1      -1.857  13.918  22.225  0.00  0.00    +0.000 A 
ATOM     26  C   UNL     1      -1.954  15.070  21.455  0.00  0.00    +0.000 A 
ATOM     27  C   UNL     1      -1.149  15.205  20.331  0.00  0.00    +0.000 A 
ATOM     28  C   UNL     1      -0.259  14.184  19.974  0.00  0.00    +0.000 A 
ENDBRANCH  11  23
TORSDOF 2
ENDMDL
