MODEL 1
REMARK VINA RESULT:      -7.3      0.000      0.000
REMARK  Name = 
REMARK  1 active torsions:
REMARK  status: ('A' for Active; 'I' for Inactive)
REMARK    1  A    between atoms: N_4  and  C_5
REMARK                            x       y       z     vdW  Elec       q    Type
REMARK                         _______ _______ _______ _____ _____    ______ ____
ROOT
ATOM      1 BR   UNL     1       2.626   8.234  17.931  0.00  0.00    +0.000 Br
ATOM      2  C   UNL     1       3.146   6.425  17.923  0.00  0.00    +0.000 A 
ATOM      3  N   UNL     1       2.536   5.501  18.668  0.00  0.00    +0.000 NA
ATOM      4  N   UNL     1       3.175   4.351  18.319  0.00  0.00    +0.000 N 
ATOM      5  C   UNL     1       4.174   4.554  17.389  0.00  0.00    +0.000 A 
ATOM      6  N   UNL     1       4.965   3.610  16.836  0.00  0.00    +0.000 NA
ATOM      7  C   UNL     1       5.824   4.107  15.918  0.00  0.00    +0.000 A 
ATOM      8  C   UNL     1       5.908   5.437  15.527  0.00  0.00    +0.000 A 
ATOM      9  C   UNL     1       5.061   6.375  16.120  0.00  0.00    +0.000 A 
ATOM     10  C   UNL     1       4.163   5.911  17.096  0.00  0.00    +0.000 A 
ENDROOT
BRANCH   4  11
ATOM     11  C   UNL     1       2.635   3.032  18.671  0.00  0.00    +0.000 C 
ATOM     12  C   UNL     1       1.121   3.062  18.912  0.00  0.00    +0.000 C 
ATOM     13  C   UNL     1       0.751   3.428  20.342  0.00  0.00    +0.000 C 
ATOM     14  C   UNL     1       1.555   2.580  21.312  0.00  0.00    +0.000 C 
ATOM     15  C   UNL     1       3.043   2.757  21.043  0.00  0.00    +0.000 C 
ATOM     16  O   UNL     1       3.392   2.396  19.713  0.00  0.00    +0.000 OA
ENDBRANCH   4  11
TORSDOF 1
ENDMDL
MODEL 2
REMARK VINA RESULT:      -7.2      2.478      2.965
REMARK  Name = 
REMARK  1 active torsions:
REMARK  status: ('A' for Active; 'I' for Inactive)
REMARK    1  A    between atoms: N_4  and  C_5
REMARK                            x       y       z     vdW  Elec       q    Type
REMARK                         _______ _______ _______ _____ _____    ______ ____
ROOT
ATOM      1 BR   UNL     1       5.590   4.356  14.444  0.00  0.00    +0.000 Br
ATOM      2  C   UNL     1       5.338   4.288  16.308  0.00  0.00    +0.000 A 
ATOM      3  N   UNL     1       4.367   3.567  16.874  0.00  0.00    +0.000 NA
ATOM      4  N   UNL     1       4.581   3.753  18.206  0.00  0.00    +0.000 N 
ATOM      5  C   UNL     1       5.650   4.584  18.466  0.00  0.00    +0.000 A 
ATOM      6  N   UNL     1       6.119   4.939  19.681  0.00  0.00    +0.000 NA
ATOM      7  C   UNL     1       7.213   5.731  19.620  0.00  0.00    +0.000 A 
ATOM      8  C   UNL     1       7.844   6.146  18.455  0.00  0.00    +0.000 A 
ATOM      9  C   UNL     1       7.328   5.746  17.221  0.00  0.00    +0.000 A 
ATOM     10  C   UNL     1       6.179   4.937  17.232  0.00  0.00    +0.000 A 
ENDROOT
BRANCH   4  11
ATOM     11  C   UNL     1       3.931   2.907  19.215  0.00  0.00    +0.000 C 
ATOM     12  C   UNL     1       3.014   1.848  18.593  0.00  0.00    +0.000 C 
ATOM     13  C   UNL     1       1.604   2.358  18.331  0.00  0.00    +0.000 C 
ATOM     14  C   UNL     1       1.069   3.042  19.577  0.00  0.00    +0.000 C 
ATOM     15  C   UNL     1       2.012   4.160  19.998  0.00  0.00    +0.000 C 
ATOM     16  O   UNL     1       3.324   3.681  20.262  0.00  0.00    +0.000 OA
ENDBRANCH   4  11
TORSDOF 1
ENDMDL
MODEL 3
REMARK VINA RESULT:      -6.9      1.496      1.843
REMARK  Name = 
REMARK  1 active torsions:
REMARK  status: ('A' for Active; 'I' for Inactive)
REMARK    1  A    between atoms: N_4  and  C_5
REMARK                            x       y       z     vdW  Elec       q    Type
REMARK                         _______ _______ _______ _____ _____    ______ ____
ROOT
ATOM      1 BR   UNL     1       2.693   8.039  17.800  0.00  0.00    +0.000 Br
ATOM      2  C   UNL     1       3.669   6.512  18.312  0.00  0.00    +0.000 A 
ATOM      3  N   UNL     1       3.121   5.510  19.001  0.00  0.00    +0.000 NA
ATOM      4  N   UNL     1       4.138   4.611  19.101  0.00  0.00    +0.000 N 
ATOM      5  C   UNL     1       5.301   5.049  18.503  0.00  0.00    +0.000 A 
ATOM      6  N   UNL     1       6.468   4.376  18.420  0.00  0.00    +0.000 NA
ATOM      7  C   UNL     1       7.419   5.044  17.730  0.00  0.00    +0.000 A 
ATOM      8  C   UNL     1       7.259   6.285  17.128  0.00  0.00    +0.000 A 
ATOM      9  C   UNL     1       6.030   6.938  17.234  0.00  0.00    +0.000 A 
ATOM     10  C   UNL     1       5.014   6.293  17.958  0.00  0.00    +0.000 A 
ENDROOT
BRANCH   4  11
ATOM     11  C   UNL     1       3.902   3.225  19.526  0.00  0.00    +0.000 C 
ATOM     12  C   UNL     1       3.610   2.291  18.346  0.00  0.00    +0.000 C 
ATOM     13  C   UNL     1       2.139   2.262  17.957  0.00  0.00    +0.000 C 
ATOM     14  C   UNL     1       1.287   2.045  19.195  0.00  0.00    +0.000 C 
ATOM     15  C   UNL     1       1.585   3.126  20.224  0.00  0.00    +0.000 C 
ATOM     16  O   UNL     1       2.955   3.140  20.603  0.00  0.00    +0.000 OA
ENDBRANCH   4  11
TORSDOF 1
ENDMDL
MODEL 4
REMARK VINA RESULT:      -6.6      2.184      2.477
REMARK  Name = 
REMARK  1 active torsions:
REMARK  status: ('A' for Active; 'I' for Inactive)
REMARK    1  A    between atoms: N_4  and  C_5
REMARK                            x       y       z     vdW  Elec       q    Type
REMARK                         _______ _______ _______ _____ _____    ______ ____
ROOT
ATOM      1 BR   UNL     1       7.218   5.541  19.424  0.00  0.00    +0.000 Br
ATOM      2  C   UNL     1       6.031   4.766  18.185  0.00  0.00    +0.000 A 
ATOM      3  N   UNL     1       4.840   4.279  18.541  0.00  0.00    +0.000 NA
ATOM      4  N   UNL     1       4.302   3.881  17.357  0.00  0.00    +0.000 N 
ATOM      5  C   UNL     1       5.144   4.096  16.286  0.00  0.00    +0.000 A 
ATOM      6  N   UNL     1       4.886   3.826  14.989  0.00  0.00    +0.000 NA
ATOM      7  C   UNL     1       5.888   4.192  14.159  0.00  0.00    +0.000 A 
ATOM      8  C   UNL     1       7.072   4.808  14.544  0.00  0.00    +0.000 A 
ATOM      9  C   UNL     1       7.290   5.076  15.896  0.00  0.00    +0.000 A 
ATOM     10  C   UNL     1       6.285   4.697  16.802  0.00  0.00    +0.000 A 
ENDROOT
BRANCH   4  11
ATOM     11  C   UNL     1       2.877   3.554  17.229  0.00  0.00    +0.000 C 
ATOM     12  C   UNL     1       1.972   4.610  17.875  0.00  0.00    +0.000 C 
ATOM     13  C   UNL     1       1.739   4.370  19.360  0.00  0.00    +0.000 C 
ATOM     14  C   UNL     1       1.329   2.925  19.585  0.00  0.00    +0.000 C 
ATOM     15  C   UNL     1       2.388   1.992  19.014  0.00  0.00    +0.000 C 
ATOM     16  O   UNL     1       2.591   2.203  17.623  0.00  0.00    +0.000 OA
ENDBRANCH   4  11
TORSDOF 1
ENDMDL
MODEL 5
REMARK VINA RESULT:      -6.6      2.217      2.581
REMARK  Name = 
REMARK  1 active torsions:
REMARK  status: ('A' for Active; 'I' for Inactive)
REMARK    1  A    between atoms: N_4  and  C_5
REMARK                            x       y       z     vdW  Elec       q    Type
REMARK                         _______ _______ _______ _____ _____    ______ ____
ROOT
ATOM      1 BR   UNL     1       7.837   5.658  19.699  0.00  0.00    +0.000 Br
ATOM      2  C   UNL     1       6.297   5.181  18.727  0.00  0.00    +0.000 A 
ATOM      3  N   UNL     1       5.079   5.172  19.273  0.00  0.00    +0.000 NA
ATOM      4  N   UNL     1       4.274   4.835  18.228  0.00  0.00    +0.000 N 
ATOM      5  C   UNL     1       4.975   4.619  17.060  0.00  0.00    +0.000 A 
ATOM      6  N   UNL     1       4.457   4.293  15.857  0.00  0.00    +0.000 NA
ATOM      7  C   UNL     1       5.391   4.194  14.884  0.00  0.00    +0.000 A 
ATOM      8  C   UNL     1       6.751   4.418  15.046  0.00  0.00    +0.000 A 
ATOM      9  C   UNL     1       7.239   4.762  16.307  0.00  0.00    +0.000 A 
ATOM     10  C   UNL     1       6.310   4.860  17.356  0.00  0.00    +0.000 A 
ENDROOT
BRANCH   4  11
ATOM     11  C   UNL     1       2.816   4.995  18.295  0.00  0.00    +0.000 C 
ATOM     12  C   UNL     1       2.366   5.751  19.551  0.00  0.00    +0.000 C 
ATOM     13  C   UNL     1       2.170   4.842  20.757  0.00  0.00    +0.000 C 
ATOM     14  C   UNL     1       1.316   3.649  20.365  0.00  0.00    +0.000 C 
ATOM     15  C   UNL     1       1.958   2.916  19.195  0.00  0.00    +0.000 C 
ATOM     16  O   UNL     1       2.123   3.759  18.062  0.00  0.00    +0.000 OA
ENDBRANCH   4  11
TORSDOF 1
ENDMDL
MODEL 6
REMARK VINA RESULT:      -6.6      1.794      4.880
REMARK  Name = 
REMARK  1 active torsions:
REMARK  status: ('A' for Active; 'I' for Inactive)
REMARK    1  A    between atoms: N_4  and  C_5
REMARK                            x       y       z     vdW  Elec       q    Type
REMARK                         _______ _______ _______ _____ _____    ______ ____
ROOT
ATOM      1 BR   UNL     1       2.205   8.058  18.314  0.00  0.00    +0.000 Br
ATOM      2  C   UNL     1       2.978   6.342  18.366  0.00  0.00    +0.000 A 
ATOM      3  N   UNL     1       3.936   5.961  17.518  0.00  0.00    +0.000 NA
ATOM      4  N   UNL     1       4.239   4.702  17.938  0.00  0.00    +0.000 N 
ATOM      5  C   UNL     1       3.476   4.299  19.014  0.00  0.00    +0.000 A 
ATOM      6  N   UNL     1       3.558   3.118  19.664  0.00  0.00    +0.000 NA
ATOM      7  C   UNL     1       2.711   3.028  20.713  0.00  0.00    +0.000 A 
ATOM      8  C   UNL     1       1.843   4.025  21.139  0.00  0.00    +0.000 A 
ATOM      9  C   UNL     1       1.801   5.233  20.441  0.00  0.00    +0.000 A 
ATOM     10  C   UNL     1       2.650   5.368  19.329  0.00  0.00    +0.000 A 
ENDROOT
BRANCH   4  11
ATOM     11  C   UNL     1       5.448   4.007  17.481  0.00  0.00    +0.000 C 
ATOM     12  C   UNL     1       6.729   4.792  17.789  0.00  0.00    +0.000 C 
ATOM     13  C   UNL     1       7.085   5.804  16.709  0.00  0.00    +0.000 C 
ATOM     14  C   UNL     1       7.034   5.136  15.346  0.00  0.00    +0.000 C 
ATOM     15  C   UNL     1       5.660   4.521  15.123  0.00  0.00    +0.000 C 
ATOM     16  O   UNL     1       5.336   3.561  16.120  0.00  0.00    +0.000 OA
ENDBRANCH   4  11
TORSDOF 1
ENDMDL
MODEL 7
REMARK VINA RESULT:      -6.6      2.155      4.814
REMARK  Name = 
REMARK  1 active torsions:
REMARK  status: ('A' for Active; 'I' for Inactive)
REMARK    1  A    between atoms: N_4  and  C_5
REMARK                            x       y       z     vdW  Elec       q    Type
REMARK                         _______ _______ _______ _____ _____    ______ ____
ROOT
ATOM      1 BR   UNL     1       1.693   7.711  20.555  0.00  0.00    +0.000 Br
ATOM      2  C   UNL     1       2.415   6.281  19.566  0.00  0.00    +0.000 A 
ATOM      3  N   UNL     1       3.396   6.448  18.676  0.00  0.00    +0.000 NA
ATOM      4  N   UNL     1       3.645   5.180  18.250  0.00  0.00    +0.000 N 
ATOM      5  C   UNL     1       2.828   4.243  18.846  0.00  0.00    +0.000 A 
ATOM      6  N   UNL     1       2.850   2.908  18.646  0.00  0.00    +0.000 NA
ATOM      7  C   UNL     1       1.957   2.240  19.410  0.00  0.00    +0.000 A 
ATOM      8  C   UNL     1       1.101   2.814  20.340  0.00  0.00    +0.000 A 
ATOM      9  C   UNL     1       1.121   4.199  20.520  0.00  0.00    +0.000 A 
ATOM     10  C   UNL     1       2.019   4.940  19.734  0.00  0.00    +0.000 A 
ENDROOT
BRANCH   4  11
ATOM     11  C   UNL     1       4.853   4.849  17.484  0.00  0.00    +0.000 C 
ATOM     12  C   UNL     1       6.030   4.454  18.384  0.00  0.00    +0.000 C 
ATOM     13  C   UNL     1       6.844   5.648  18.861  0.00  0.00    +0.000 C 
ATOM     14  C   UNL     1       7.188   6.537  17.679  0.00  0.00    +0.000 C 
ATOM     15  C   UNL     1       5.914   6.963  16.964  0.00  0.00    +0.000 C 
ATOM     16  O   UNL     1       5.164   5.848  16.500  0.00  0.00    +0.000 OA
ENDBRANCH   4  11
TORSDOF 1
ENDMDL
MODEL 8
REMARK VINA RESULT:      -6.6      1.923      4.873
REMARK  Name = 
REMARK  1 active torsions:
REMARK  status: ('A' for Active; 'I' for Inactive)
REMARK    1  A    between atoms: N_4  and  C_5
REMARK                            x       y       z     vdW  Elec       q    Type
REMARK                         _______ _______ _______ _____ _____    ______ ____
ROOT
ATOM      1 BR   UNL     1       1.817   7.773  20.185  0.00  0.00    +0.000 Br
ATOM      2  C   UNL     1       2.663   6.196  19.601  0.00  0.00    +0.000 A 
ATOM      3  N   UNL     1       3.845   6.204  18.980  0.00  0.00    +0.000 NA
ATOM      4  N   UNL     1       4.106   4.882  18.793  0.00  0.00    +0.000 N 
ATOM      5  C   UNL     1       3.102   4.065  19.271  0.00  0.00    +0.000 A 
ATOM      6  N   UNL     1       3.082   2.715  19.250  0.00  0.00    +0.000 NA
ATOM      7  C   UNL     1       1.983   2.190  19.836  0.00  0.00    +0.000 A 
ATOM      8  C   UNL     1       0.962   2.917  20.435  0.00  0.00    +0.000 A 
ATOM      9  C   UNL     1       1.032   4.311  20.441  0.00  0.00    +0.000 A 
ATOM     10  C   UNL     1       2.147   4.905  19.826  0.00  0.00    +0.000 A 
ENDROOT
BRANCH   4  11
ATOM     11  C   UNL     1       5.441   4.407  18.411  0.00  0.00    +0.000 C 
ATOM     12  C   UNL     1       6.550   5.388  18.809  0.00  0.00    +0.000 C 
ATOM     13  C   UNL     1       6.799   6.464  17.762  0.00  0.00    +0.000 C 
ATOM     14  C   UNL     1       6.948   5.823  16.394  0.00  0.00    +0.000 C 
ATOM     15  C   UNL     1       5.713   4.991  16.076  0.00  0.00    +0.000 C 
ATOM     16  O   UNL     1       5.492   3.972  17.043  0.00  0.00    +0.000 OA
ENDBRANCH   4  11
TORSDOF 1
ENDMDL
MODEL 9
REMARK VINA RESULT:      -6.6      0.966      1.274
REMARK  Name = 
REMARK  1 active torsions:
REMARK  status: ('A' for Active; 'I' for Inactive)
REMARK    1  A    between atoms: N_4  and  C_5
REMARK                            x       y       z     vdW  Elec       q    Type
REMARK                         _______ _______ _______ _____ _____    ______ ____
ROOT
ATOM      1 BR   UNL     1       2.438   8.510  17.816  0.00  0.00    +0.000 Br
ATOM      2  C   UNL     1       3.252   6.843  18.136  0.00  0.00    +0.000 A 
ATOM      3  N   UNL     1       2.894   6.054  19.151  0.00  0.00    +0.000 NA
ATOM      4  N   UNL     1       3.675   4.953  18.977  0.00  0.00    +0.000 N 
ATOM      5  C   UNL     1       4.514   5.058  17.888  0.00  0.00    +0.000 A 
ATOM      6  N   UNL     1       5.387   4.126  17.448  0.00  0.00    +0.000 NA
ATOM      7  C   UNL     1       6.041   4.496  16.324  0.00  0.00    +0.000 A 
ATOM      8  C   UNL     1       5.855   5.689  15.638  0.00  0.00    +0.000 A 
ATOM      9  C   UNL     1       4.934   6.618  16.126  0.00  0.00    +0.000 A 
ATOM     10  C   UNL     1       4.242   6.287  17.303  0.00  0.00    +0.000 A 
ENDROOT
BRANCH   4  11
ATOM     11  C   UNL     1       3.408   3.698  19.692  0.00  0.00    +0.000 C 
ATOM     12  C   UNL     1       2.912   2.585  18.761  0.00  0.00    +0.000 C 
ATOM     13  C   UNL     1       1.404   2.610  18.552  0.00  0.00    +0.000 C 
ATOM     14  C   UNL     1       0.703   2.706  19.895  0.00  0.00    +0.000 C 
ATOM     15  C   UNL     1       1.196   3.933  20.649  0.00  0.00    +0.000 C 
ATOM     16  O   UNL     1       2.601   3.901  20.862  0.00  0.00    +0.000 OA
ENDBRANCH   4  11
TORSDOF 1
ENDMDL
