MODEL 1
REMARK VINA RESULT:      -6.9      0.000      0.000
REMARK  Name = 
REMARK  4 active torsions:
REMARK  status: ('A' for Active; 'I' for Inactive)
REMARK    1  A    between atoms: C_1  and  O_2
REMARK    2  A    between atoms: O_2  and  C_3
REMARK    3  A    between atoms: N_13  and  C_14
REMARK    4  A    between atoms: C_14  and  C_15
REMARK                            x       y       z     vdW  Elec       q    Type
REMARK                         _______ _______ _______ _____ _____    ______ ____
ROOT
ATOM      1  C   UNL     1       2.219   5.158  20.325  0.00  0.00    +0.000 A 
ATOM      2  C   UNL     1       2.583   5.042  18.988  0.00  0.00    +0.000 A 
ATOM      3  C   UNL     1       2.579   6.169  18.167  0.00  0.00    +0.000 A 
ATOM      4  C   UNL     1       2.193   7.427  18.662  0.00  0.00    +0.000 A 
ATOM      5  C   UNL     1       1.768   7.546  20.001  0.00  0.00    +0.000 A 
ATOM      6  C   UNL     1       1.814   6.403  20.818  0.00  0.00    +0.000 A 
ATOM      7  C   UNL     1       1.304   8.897  20.556  0.00  0.00    +0.000 C 
ATOM      8  C   UNL     1       0.189   8.769  21.615  0.00  0.00    +0.000 C 
ATOM      9  C   UNL     1      -0.399  10.119  22.012  0.00  0.00    +0.000 C 
ATOM     10  C   UNL     1      -0.807  10.922  20.783  0.00  0.00    +0.000 C 
ATOM     11  N   UNL     1       0.308  11.148  19.846  0.00  0.00    +0.000 NA
ATOM     12  C   UNL     1       0.837   9.837  19.403  0.00  0.00    +0.000 C 
ATOM     13  C   UNL     1       1.961   9.947  18.366  0.00  0.00    +0.000 C 
ATOM     14  C   UNL     1       2.183   8.591  17.701  0.00  0.00    +0.000 C 
ENDROOT
BRANCH   1  16
ATOM     15  C   UNL     1       1.335   3.039  20.883  0.00  0.00    +0.000 C 
ATOM     16  O   UNL     1       2.177   4.132  21.228  0.00  0.00    +0.000 OA
ENDBRANCH   1  16
BRANCH  11  17
ATOM     17  C   UNL     1       1.322  12.086  20.361  0.00  0.00    +0.000 C 
BRANCH  17  18
ATOM     18  C   UNL     1       1.279  13.442  19.675  0.00  0.00    +0.000 A 
ATOM     19  C   UNL     1       2.448  14.018  19.155  0.00  0.00    +0.000 A 
ATOM     20  C   UNL     1       2.417  15.299  18.599  0.00  0.00    +0.000 A 
ATOM     21  C   UNL     1       1.219  16.011  18.549  0.00  0.00    +0.000 A 
ATOM     22  C   UNL     1       0.048  15.440  19.042  0.00  0.00    +0.000 A 
ATOM     23  C   UNL     1       0.076  14.160  19.598  0.00  0.00    +0.000 A 
ENDBRANCH  17  18
ENDBRANCH  11  17
TORSDOF 3
ENDMDL
MODEL 2
REMARK VINA RESULT:      -6.8      4.221      7.404
REMARK  Name = 
REMARK  4 active torsions:
REMARK  status: ('A' for Active; 'I' for Inactive)
REMARK    1  A    between atoms: C_1  and  O_2
REMARK    2  A    between atoms: O_2  and  C_3
REMARK    3  A    between atoms: N_13  and  C_14
REMARK    4  A    between atoms: C_14  and  C_15
REMARK                            x       y       z     vdW  Elec       q    Type
REMARK                         _______ _______ _______ _____ _____    ______ ____
ROOT
ATOM      1  C   UNL     1      -5.472  12.460  18.414  0.00  0.00    +0.000 A 
ATOM      2  C   UNL     1      -5.585  11.915  17.140  0.00  0.00    +0.000 A 
ATOM      3  C   UNL     1      -4.539  11.159  16.613  0.00  0.00    +0.000 A 
ATOM      4  C   UNL     1      -3.355  10.950  17.341  0.00  0.00    +0.000 A 
ATOM      5  C   UNL     1      -3.206  11.546  18.611  0.00  0.00    +0.000 A 
ATOM      6  C   UNL     1      -4.288  12.275  19.135  0.00  0.00    +0.000 A 
ATOM      7  C   UNL     1      -1.911  11.368  19.409  0.00  0.00    +0.000 C 
ATOM      8  C   UNL     1      -1.553  12.598  20.269  0.00  0.00    +0.000 C 
ATOM      9  C   UNL     1      -0.169  12.488  20.901  0.00  0.00    +0.000 C 
ATOM     10  C   UNL     1       0.885  12.140  19.857  0.00  0.00    +0.000 C 
ATOM     11  N   UNL     1       0.591  10.888  19.138  0.00  0.00    +0.000 NA
ATOM     12  C   UNL     1      -0.722  11.017  18.464  0.00  0.00    +0.000 C 
ATOM     13  C   UNL     1      -1.103   9.793  17.621  0.00  0.00    +0.000 C 
ATOM     14  C   UNL     1      -2.256  10.149  16.687  0.00  0.00    +0.000 C 
ENDROOT
BRANCH   1  16
ATOM     15  C   UNL     1      -7.586  13.506  18.275  0.00  0.00    +0.000 C 
ATOM     16  O   UNL     1      -6.420  13.222  19.038  0.00  0.00    +0.000 OA
ENDBRANCH   1  16
BRANCH  11  17
ATOM     17  C   UNL     1       0.746   9.684  19.975  0.00  0.00    +0.000 C 
BRANCH  17  18
ATOM     18  C   UNL     1       1.679   8.652  19.364  0.00  0.00    +0.000 A 
ATOM     19  C   UNL     1       2.268   8.874  18.109  0.00  0.00    +0.000 A 
ATOM     20  C   UNL     1       3.059   7.886  17.516  0.00  0.00    +0.000 A 
ATOM     21  C   UNL     1       3.275   6.676  18.173  0.00  0.00    +0.000 A 
ATOM     22  C   UNL     1       2.713   6.453  19.428  0.00  0.00    +0.000 A 
ATOM     23  C   UNL     1       1.923   7.438  20.023  0.00  0.00    +0.000 A 
ENDBRANCH  17  18
ENDBRANCH  11  17
TORSDOF 3
ENDMDL
MODEL 3
REMARK VINA RESULT:      -6.7      0.600      1.172
REMARK  Name = 
REMARK  4 active torsions:
REMARK  status: ('A' for Active; 'I' for Inactive)
REMARK    1  A    between atoms: C_1  and  O_2
REMARK    2  A    between atoms: O_2  and  C_3
REMARK    3  A    between atoms: N_13  and  C_14
REMARK    4  A    between atoms: C_14  and  C_15
REMARK                            x       y       z     vdW  Elec       q    Type
REMARK                         _______ _______ _______ _____ _____    ______ ____
ROOT
ATOM      1  C   UNL     1       2.688   4.808  19.866  0.00  0.00    +0.000 A 
ATOM      2  C   UNL     1       3.021   4.867  18.518  0.00  0.00    +0.000 A 
ATOM      3  C   UNL     1       2.912   6.074  17.828  0.00  0.00    +0.000 A 
ATOM      4  C   UNL     1       2.450   7.237  18.468  0.00  0.00    +0.000 A 
ATOM      5  C   UNL     1       2.056   7.177  19.820  0.00  0.00    +0.000 A 
ATOM      6  C   UNL     1       2.208   5.957  20.504  0.00  0.00    +0.000 A 
ATOM      7  C   UNL     1       1.511   8.420  20.531  0.00  0.00    +0.000 C 
ATOM      8  C   UNL     1       0.439   8.093  21.592  0.00  0.00    +0.000 C 
ATOM      9  C   UNL     1      -0.233   9.343  22.148  0.00  0.00    +0.000 C 
ATOM     10  C   UNL     1      -0.734  10.243  21.025  0.00  0.00    +0.000 C 
ATOM     11  N   UNL     1       0.335  10.654  20.097  0.00  0.00    +0.000 NA
ATOM     12  C   UNL     1       0.944   9.442  19.500  0.00  0.00    +0.000 C 
ATOM     13  C   UNL     1       2.028   9.750  18.459  0.00  0.00    +0.000 C 
ATOM     14  C   UNL     1       2.329   8.496  17.643  0.00  0.00    +0.000 C 
ENDROOT
BRANCH   1  16
ATOM     15  C   UNL     1       1.531   3.321  21.292  0.00  0.00    +0.000 C 
ATOM     16  O   UNL     1       2.746   3.689  20.650  0.00  0.00    +0.000 OA
ENDBRANCH   1  16
BRANCH  11  17
ATOM     17  C   UNL     1       1.292  11.604  20.692  0.00  0.00    +0.000 C 
BRANCH  17  18
ATOM     18  C   UNL     1       1.298  12.955  19.997  0.00  0.00    +0.000 A 
ATOM     19  C   UNL     1       0.115  13.698  19.868  0.00  0.00    +0.000 A 
ATOM     20  C   UNL     1       0.111  14.901  19.157  0.00  0.00    +0.000 A 
ATOM     21  C   UNL     1       1.286  15.375  18.576  0.00  0.00    +0.000 A 
ATOM     22  C   UNL     1       2.471  14.655  18.716  0.00  0.00    +0.000 A 
ATOM     23  C   UNL     1       2.479  13.454  19.426  0.00  0.00    +0.000 A 
ENDBRANCH  17  18
ENDBRANCH  11  17
TORSDOF 3
ENDMDL
MODEL 4
REMARK VINA RESULT:      -6.7      0.838      1.111
REMARK  Name = 
REMARK  4 active torsions:
REMARK  status: ('A' for Active; 'I' for Inactive)
REMARK    1  A    between atoms: C_1  and  O_2
REMARK    2  A    between atoms: O_2  and  C_3
REMARK    3  A    between atoms: N_13  and  C_14
REMARK    4  A    between atoms: C_14  and  C_15
REMARK                            x       y       z     vdW  Elec       q    Type
REMARK                         _______ _______ _______ _____ _____    ______ ____
ROOT
ATOM      1  C   UNL     1       2.263   5.091  20.458  0.00  0.00    +0.000 A 
ATOM      2  C   UNL     1       2.679   4.876  19.149  0.00  0.00    +0.000 A 
ATOM      3  C   UNL     1       2.706   5.937  18.246  0.00  0.00    +0.000 A 
ATOM      4  C   UNL     1       2.300   7.227  18.628  0.00  0.00    +0.000 A 
ATOM      5  C   UNL     1       1.822   7.446  19.937  0.00  0.00    +0.000 A 
ATOM      6  C   UNL     1       1.837   6.368  20.839  0.00  0.00    +0.000 A 
ATOM      7  C   UNL     1       1.336   8.833  20.368  0.00  0.00    +0.000 C 
ATOM      8  C   UNL     1       0.180   8.781  21.390  0.00  0.00    +0.000 C 
ATOM      9  C   UNL     1      -0.424  10.155  21.660  0.00  0.00    +0.000 C 
ATOM     10  C   UNL     1      -0.784  10.862  20.358  0.00  0.00    +0.000 C 
ATOM     11  N   UNL     1       0.367  11.020  19.452  0.00  0.00    +0.000 NA
ATOM     12  C   UNL     1       0.913   9.681  19.130  0.00  0.00    +0.000 C 
ATOM     13  C   UNL     1       2.077   9.716  18.132  0.00  0.00    +0.000 C 
ATOM     14  C   UNL     1       2.327   8.315  17.582  0.00  0.00    +0.000 C 
ENDROOT
BRANCH   1  16
ATOM     15  C   UNL     1       2.648   2.842  21.071  0.00  0.00    +0.000 C 
ATOM     16  O   UNL     1       2.185   4.137  21.434  0.00  0.00    +0.000 OA
ENDBRANCH   1  16
BRANCH  11  17
ATOM     17  C   UNL     1       1.359  11.999  19.932  0.00  0.00    +0.000 C 
BRANCH  17  18
ATOM     18  C   UNL     1       0.821  13.420  19.970  0.00  0.00    +0.000 A 
ATOM     19  C   UNL     1       0.686  14.101  21.189  0.00  0.00    +0.000 A 
ATOM     20  C   UNL     1       0.115  15.376  21.225  0.00  0.00    +0.000 A 
ATOM     21  C   UNL     1      -0.316  15.983  20.047  0.00  0.00    +0.000 A 
ATOM     22  C   UNL     1      -0.167  15.324  18.828  0.00  0.00    +0.000 A 
ATOM     23  C   UNL     1       0.403  14.051  18.789  0.00  0.00    +0.000 A 
ENDBRANCH  17  18
ENDBRANCH  11  17
TORSDOF 3
ENDMDL
MODEL 5
REMARK VINA RESULT:      -6.7      0.817      1.290
REMARK  Name = 
REMARK  4 active torsions:
REMARK  status: ('A' for Active; 'I' for Inactive)
REMARK    1  A    between atoms: C_1  and  O_2
REMARK    2  A    between atoms: O_2  and  C_3
REMARK    3  A    between atoms: N_13  and  C_14
REMARK    4  A    between atoms: C_14  and  C_15
REMARK                            x       y       z     vdW  Elec       q    Type
REMARK                         _______ _______ _______ _____ _____    ______ ____
ROOT
ATOM      1  C   UNL     1       2.140   5.965  20.209  0.00  0.00    +0.000 A 
ATOM      2  C   UNL     1       2.474   5.966  18.859  0.00  0.00    +0.000 A 
ATOM      3  C   UNL     1       2.392   7.147  18.125  0.00  0.00    +0.000 A 
ATOM      4  C   UNL     1       1.956   8.344  18.719  0.00  0.00    +0.000 A 
ATOM      5  C   UNL     1       1.560   8.344  20.073  0.00  0.00    +0.000 A 
ATOM      6  C   UNL     1       1.684   7.148  20.802  0.00  0.00    +0.000 A 
ATOM      7  C   UNL     1       1.042   9.624  20.735  0.00  0.00    +0.000 C 
ATOM      8  C   UNL     1      -0.037   9.361  21.806  0.00  0.00    +0.000 C 
ATOM      9  C   UNL     1      -0.683  10.646  22.314  0.00  0.00    +0.000 C 
ATOM     10  C   UNL     1      -1.162  11.514  21.157  0.00  0.00    +0.000 C 
ATOM     11  N   UNL     1      -0.084  11.866  20.216  0.00  0.00    +0.000 NA
ATOM     12  C   UNL     1       0.498  10.619  19.666  0.00  0.00    +0.000 C 
ATOM     13  C   UNL     1       1.588  10.863  18.615  0.00  0.00    +0.000 C 
ATOM     14  C   UNL     1       1.862   9.573  17.847  0.00  0.00    +0.000 C 
ENDROOT
BRANCH   1  16
ATOM     15  C   UNL     1       1.328   3.793  20.663  0.00  0.00    +0.000 C 
ATOM     16  O   UNL     1       2.172   4.876  21.034  0.00  0.00    +0.000 OA
ENDBRANCH   1  16
BRANCH  11  17
ATOM     17  C   UNL     1       0.893  12.816  20.776  0.00  0.00    +0.000 C 
BRANCH  17  18
ATOM     18  C   UNL     1       0.909  14.150  20.048  0.00  0.00    +0.000 A 
ATOM     19  C   UNL     1      -0.253  14.644  19.436  0.00  0.00    +0.000 A 
ATOM     20  C   UNL     1      -0.213  15.831  18.699  0.00  0.00    +0.000 A 
ATOM     21  C   UNL     1       0.983  16.536  18.574  0.00  0.00    +0.000 A 
ATOM     22  C   UNL     1       2.138  16.066  19.195  0.00  0.00    +0.000 A 
ATOM     23  C   UNL     1       2.101  14.881  19.932  0.00  0.00    +0.000 A 
ENDBRANCH  17  18
ENDBRANCH  11  17
TORSDOF 3
ENDMDL
MODEL 6
REMARK VINA RESULT:      -6.6      2.299      4.141
REMARK  Name = 
REMARK  4 active torsions:
REMARK  status: ('A' for Active; 'I' for Inactive)
REMARK    1  A    between atoms: C_1  and  O_2
REMARK    2  A    between atoms: O_2  and  C_3
REMARK    3  A    between atoms: N_13  and  C_14
REMARK    4  A    between atoms: C_14  and  C_15
REMARK                            x       y       z     vdW  Elec       q    Type
REMARK                         _______ _______ _______ _____ _____    ______ ____
ROOT
ATOM      1  C   UNL     1       3.466   6.915  17.857  0.00  0.00    +0.000 A 
ATOM      2  C   UNL     1       3.300   6.043  18.927  0.00  0.00    +0.000 A 
ATOM      3  C   UNL     1       2.456   6.389  19.980  0.00  0.00    +0.000 A 
ATOM      4  C   UNL     1       1.779   7.621  19.995  0.00  0.00    +0.000 A 
ATOM      5  C   UNL     1       1.983   8.538  18.943  0.00  0.00    +0.000 A 
ATOM      6  C   UNL     1       2.812   8.152  17.875  0.00  0.00    +0.000 A 
ATOM      7  C   UNL     1       1.289   9.904  18.953  0.00  0.00    +0.000 C 
ATOM      8  C   UNL     1       2.136  11.020  18.305  0.00  0.00    +0.000 C 
ATOM      9  C   UNL     1       1.523  12.404  18.497  0.00  0.00    +0.000 C 
ATOM     10  C   UNL     1       1.187  12.657  19.962  0.00  0.00    +0.000 C 
ATOM     11  N   UNL     1       0.269  11.651  20.524  0.00  0.00    +0.000 NA
ATOM     12  C   UNL     1       0.891  10.312  20.404  0.00  0.00    +0.000 C 
ATOM     13  C   UNL     1       0.053   9.187  21.023  0.00  0.00    +0.000 C 
ATOM     14  C   UNL     1       0.911   7.936  21.188  0.00  0.00    +0.000 C 
ENDROOT
BRANCH   1  16
ATOM     15  C   UNL     1       4.825   5.392  16.667  0.00  0.00    +0.000 C 
ATOM     16  O   UNL     1       4.266   6.696  16.770  0.00  0.00    +0.000 OA
ENDBRANCH   1  16
BRANCH  11  17
ATOM     17  C   UNL     1      -1.103  11.750  19.992  0.00  0.00    +0.000 C 
BRANCH  17  18
ATOM     18  C   UNL     1      -2.113  12.193  21.037  0.00  0.00    +0.000 A 
ATOM     19  C   UNL     1      -1.848  12.028  22.405  0.00  0.00    +0.000 A 
ATOM     20  C   UNL     1      -2.814  12.362  23.357  0.00  0.00    +0.000 A 
ATOM     21  C   UNL     1      -4.048  12.869  22.953  0.00  0.00    +0.000 A 
ATOM     22  C   UNL     1      -4.315  13.057  21.599  0.00  0.00    +0.000 A 
ATOM     23  C   UNL     1      -3.351  12.725  20.645  0.00  0.00    +0.000 A 
ENDBRANCH  17  18
ENDBRANCH  11  17
TORSDOF 3
ENDMDL
MODEL 7
REMARK VINA RESULT:      -6.5      6.932      8.580
REMARK  Name = 
REMARK  4 active torsions:
REMARK  status: ('A' for Active; 'I' for Inactive)
REMARK    1  A    between atoms: C_1  and  O_2
REMARK    2  A    between atoms: O_2  and  C_3
REMARK    3  A    between atoms: N_13  and  C_14
REMARK    4  A    between atoms: C_14  and  C_15
REMARK                            x       y       z     vdW  Elec       q    Type
REMARK                         _______ _______ _______ _____ _____    ______ ____
ROOT
ATOM      1  C   UNL     1       2.131   3.134  20.881  0.00  0.00    +0.000 A 
ATOM      2  C   UNL     1       1.054   2.963  20.018  0.00  0.00    +0.000 A 
ATOM      3  C   UNL     1       1.223   3.163  18.649  0.00  0.00    +0.000 A 
ATOM      4  C   UNL     1       2.464   3.556  18.120  0.00  0.00    +0.000 A 
ATOM      5  C   UNL     1       3.549   3.788  18.991  0.00  0.00    +0.000 A 
ATOM      6  C   UNL     1       3.364   3.546  20.364  0.00  0.00    +0.000 A 
ATOM      7  C   UNL     1       4.902   4.255  18.445  0.00  0.00    +0.000 C 
ATOM      8  C   UNL     1       5.657   5.192  19.412  0.00  0.00    +0.000 C 
ATOM      9  C   UNL     1       6.902   5.805  18.780  0.00  0.00    +0.000 C 
ATOM     10  C   UNL     1       6.578   6.442  17.435  0.00  0.00    +0.000 C 
ATOM     11  N   UNL     1       5.979   5.494  16.478  0.00  0.00    +0.000 NA
ATOM     12  C   UNL     1       4.730   4.949  17.060  0.00  0.00    +0.000 C 
ATOM     13  C   UNL     1       3.978   3.999  16.119  0.00  0.00    +0.000 C 
ATOM     14  C   UNL     1       2.556   3.785  16.631  0.00  0.00    +0.000 C 
ENDROOT
BRANCH   1  16
ATOM     15  C   UNL     1       1.045   2.153  22.736  0.00  0.00    +0.000 C 
ATOM     16  O   UNL     1       2.094   2.975  22.239  0.00  0.00    +0.000 OA
ENDBRANCH   1  16
BRANCH  11  17
ATOM     17  C   UNL     1       6.931   4.481  15.987  0.00  0.00    +0.000 C 
BRANCH  17  18
ATOM     18  C   UNL     1       7.033   4.449  14.471  0.00  0.00    +0.000 A 
ATOM     19  C   UNL     1       7.814   5.392  13.786  0.00  0.00    +0.000 A 
ATOM     20  C   UNL     1       7.838   5.408  12.389  0.00  0.00    +0.000 A 
ATOM     21  C   UNL     1       7.092   4.479  11.666  0.00  0.00    +0.000 A 
ATOM     22  C   UNL     1       6.329   3.524  12.336  0.00  0.00    +0.000 A 
ATOM     23  C   UNL     1       6.303   3.506  13.731  0.00  0.00    +0.000 A 
ENDBRANCH  17  18
ENDBRANCH  11  17
TORSDOF 3
ENDMDL
MODEL 8
REMARK VINA RESULT:      -6.5      2.334      4.238
REMARK  Name = 
REMARK  4 active torsions:
REMARK  status: ('A' for Active; 'I' for Inactive)
REMARK    1  A    between atoms: C_1  and  O_2
REMARK    2  A    between atoms: O_2  and  C_3
REMARK    3  A    between atoms: N_13  and  C_14
REMARK    4  A    between atoms: C_14  and  C_15
REMARK                            x       y       z     vdW  Elec       q    Type
REMARK                         _______ _______ _______ _____ _____    ______ ____
ROOT
ATOM      1  C   UNL     1       3.398   7.043  17.902  0.00  0.00    +0.000 A 
ATOM      2  C   UNL     1       3.232   6.174  18.975  0.00  0.00    +0.000 A 
ATOM      3  C   UNL     1       2.381   6.520  20.023  0.00  0.00    +0.000 A 
ATOM      4  C   UNL     1       1.698   7.748  20.029  0.00  0.00    +0.000 A 
ATOM      5  C   UNL     1       1.902   8.663  18.975  0.00  0.00    +0.000 A 
ATOM      6  C   UNL     1       2.737   8.276  17.912  0.00  0.00    +0.000 A 
ATOM      7  C   UNL     1       1.201  10.025  18.976  0.00  0.00    +0.000 C 
ATOM      8  C   UNL     1       2.045  11.143  18.328  0.00  0.00    +0.000 C 
ATOM      9  C   UNL     1       1.425  12.524  18.512  0.00  0.00    +0.000 C 
ATOM     10  C   UNL     1       1.080  12.782  19.973  0.00  0.00    +0.000 C 
ATOM     11  N   UNL     1       0.165  11.773  20.535  0.00  0.00    +0.000 NA
ATOM     12  C   UNL     1       0.794  10.436  20.423  0.00  0.00    +0.000 C 
ATOM     13  C   UNL     1      -0.041   9.310  21.043  0.00  0.00    +0.000 C 
ATOM     14  C   UNL     1       0.822   8.064  21.218  0.00  0.00    +0.000 C 
ENDROOT
BRANCH   1  16
ATOM     15  C   UNL     1       4.726   5.506  16.694  0.00  0.00    +0.000 C 
ATOM     16  O   UNL     1       4.204   6.824  16.820  0.00  0.00    +0.000 OA
ENDBRANCH   1  16
BRANCH  11  17
ATOM     17  C   UNL     1      -1.205  11.863  19.997  0.00  0.00    +0.000 C 
BRANCH  17  18
ATOM     18  C   UNL     1      -2.238  12.204  21.058  0.00  0.00    +0.000 A 
ATOM     19  C   UNL     1      -3.484  12.742  20.696  0.00  0.00    +0.000 A 
ATOM     20  C   UNL     1      -4.397  13.129  21.680  0.00  0.00    +0.000 A 
ATOM     21  C   UNL     1      -4.080  12.975  23.029  0.00  0.00    +0.000 A 
ATOM     22  C   UNL     1      -2.856  12.423  23.398  0.00  0.00    +0.000 A 
ATOM     23  C   UNL     1      -1.941  12.034  22.418  0.00  0.00    +0.000 A 
ENDBRANCH  17  18
ENDBRANCH  11  17
TORSDOF 3
ENDMDL
MODEL 9
REMARK VINA RESULT:      -6.4      2.773      7.741
REMARK  Name = 
REMARK  4 active torsions:
REMARK  status: ('A' for Active; 'I' for Inactive)
REMARK    1  A    between atoms: C_1  and  O_2
REMARK    2  A    between atoms: O_2  and  C_3
REMARK    3  A    between atoms: N_13  and  C_14
REMARK    4  A    between atoms: C_14  and  C_15
REMARK                            x       y       z     vdW  Elec       q    Type
REMARK                         _______ _______ _______ _____ _____    ______ ____
ROOT
ATOM      1  C   UNL     1      -0.497  10.950  21.859  0.00  0.00    +0.000 A 
ATOM      2  C   UNL     1      -0.157  12.018  21.037  0.00  0.00    +0.000 A 
ATOM      3  C   UNL     1       0.543  11.789  19.854  0.00  0.00    +0.000 A 
ATOM      4  C   UNL     1       0.933  10.491  19.481  0.00  0.00    +0.000 A 
ATOM      5  C   UNL     1       0.644   9.406  20.334  0.00  0.00    +0.000 A 
ATOM      6  C   UNL     1      -0.094   9.658  21.504  0.00  0.00    +0.000 A 
ATOM      7  C   UNL     1       1.092   7.987  19.971  0.00  0.00    +0.000 C 
ATOM      8  C   UNL     1       1.451   7.129  21.202  0.00  0.00    +0.000 C 
ATOM      9  C   UNL     1       2.080   5.793  20.821  0.00  0.00    +0.000 C 
ATOM     10  C   UNL     1       3.238   5.989  19.850  0.00  0.00    +0.000 C 
ATOM     11  N   UNL     1       2.841   6.694  18.618  0.00  0.00    +0.000 NA
ATOM     12  C   UNL     1       2.294   8.023  18.979  0.00  0.00    +0.000 C 
ATOM     13  C   UNL     1       1.912   8.881  17.767  0.00  0.00    +0.000 C 
ATOM     14  C   UNL     1       1.718  10.330  18.201  0.00  0.00    +0.000 C 
ENDROOT
BRANCH   1  16
ATOM     15  C   UNL     1      -2.089  12.126  23.149  0.00  0.00    +0.000 C 
ATOM     16  O   UNL     1      -1.174  11.043  23.043  0.00  0.00    +0.000 OA
ENDBRANCH   1  16
BRANCH  11  17
ATOM     17  C   UNL     1       1.983   5.887  17.733  0.00  0.00    +0.000 C 
BRANCH  17  18
ATOM     18  C   UNL     1       2.293   4.401  17.798  0.00  0.00    +0.000 A 
ATOM     19  C   UNL     1       1.348   3.494  18.303  0.00  0.00    +0.000 A 
ATOM     20  C   UNL     1       1.669   2.141  18.437  0.00  0.00    +0.000 A 
ATOM     21  C   UNL     1       2.930   1.681  18.062  0.00  0.00    +0.000 A 
ATOM     22  C   UNL     1       3.869   2.568  17.540  0.00  0.00    +0.000 A 
ATOM     23  C   UNL     1       3.551   3.921  17.404  0.00  0.00    +0.000 A 
ENDBRANCH  17  18
ENDBRANCH  11  17
TORSDOF 3
ENDMDL
