MODEL 1
REMARK VINA RESULT:      -9.6      0.000      0.000
REMARK  Name = 
REMARK  4 active torsions:
REMARK  status: ('A' for Active; 'I' for Inactive)
REMARK    1  A    between atoms: C_1  and  N_2
REMARK    2  A    between atoms: C_12  and  O_13
REMARK    3  A    between atoms: O_13  and  C_14
REMARK    4  A    between atoms: C_14  and  C_15
REMARK                            x       y       z     vdW  Elec       q    Type
REMARK                         _______ _______ _______ _____ _____    ______ ____
ROOT
ATOM      1  C   UNL     1      -1.819  10.887  18.536  0.00  0.00    +0.000 C 
ATOM      2  N   UNL     1      -0.996  11.098  19.708  0.00  0.00    +0.000 N 
ATOM      3  C   UNL     1      -1.242  12.015  20.712  0.00  0.00    +0.000 A 
ATOM      4  C   UNL     1      -0.996  11.355  21.902  0.00  0.00    +0.000 A 
ATOM      5  C   UNL     1      -0.071  10.304  21.564  0.00  0.00    +0.000 A 
ATOM      6  C   UNL     1       0.780   9.422  22.250  0.00  0.00    +0.000 A 
ATOM      7  C   UNL     1       1.483   8.471  21.490  0.00  0.00    +0.000 A 
ATOM      8  C   UNL     1       1.334   8.405  20.123  0.00  0.00    +0.000 A 
ATOM      9  N   UNL     1       2.077   7.428  19.362  0.00  0.00    +0.000 N 
ATOM     10  C   UNL     1       2.746   7.811  18.206  0.00  0.00    +0.000 A 
ATOM     11  C   UNL     1       3.432   6.942  17.454  0.00  0.00    +0.000 A 
ATOM     12  C   UNL     1       3.397   5.530  17.782  0.00  0.00    +0.000 A 
ATOM     13  C   UNL     1       2.773   5.128  18.893  0.00  0.00    +0.000 A 
ATOM     14  C   UNL     1       2.076   6.094  19.786  0.00  0.00    +0.000 A 
ATOM     15  O   UNL     1       1.517   5.645  20.790  0.00  0.00    +0.000 OA
ATOM     16  N   UNL     1       0.586   9.286  19.404  0.00  0.00    +0.000 NA
ATOM     17  C   UNL     1      -0.090  10.177  20.175  0.00  0.00    +0.000 A 
ATOM     18  C   UNL     1      -1.570  11.796  23.216  0.00  0.00    +0.000 C 
ATOM     19  N   UNL     1      -1.849  13.251  23.319  0.00  0.00    +0.000 NA
ATOM     20  C   UNL     1      -3.088  13.727  22.695  0.00  0.00    +0.000 C 
ATOM     21  C   UNL     1      -2.967  14.135  21.234  0.00  0.00    +0.000 C 
ATOM     22  C   UNL     1      -1.772  13.469  20.492  0.00  0.00    +0.000 C 
ATOM     23  C   UNL     1      -0.650  14.180  21.306  0.00  0.00    +0.000 C 
ATOM     24  C   UNL     1      -0.719  14.050  22.857  0.00  0.00    +0.000 C 
ENDROOT
BRANCH  12  25
ATOM     25  O   UNL     1       3.991   4.595  16.945  0.00  0.00    +0.000 OA
BRANCH  25  26
ATOM     26  C   UNL     1       5.194   3.985  17.424  0.00  0.00    +0.000 C 
BRANCH  26  27
ATOM     27  C   UNL     1       6.280   4.980  17.768  0.00  0.00    +0.000 A 
ATOM     28  C   UNL     1       6.643   6.005  16.893  0.00  0.00    +0.000 A 
ATOM     29  C   UNL     1       7.550   6.973  17.324  0.00  0.00    +0.000 A 
ATOM     30  C   UNL     1       8.056   6.896  18.611  0.00  0.00    +0.000 A 
ATOM     31  F   UNL     1       8.906   7.825  19.064  0.00  0.00    +0.000 F 
ATOM     32  C   UNL     1       7.652   5.852  19.424  0.00  0.00    +0.000 A 
ATOM     33  N   UNL     1       6.776   4.899  19.034  0.00  0.00    +0.000 NA
ENDBRANCH  26  27
ENDBRANCH  25  26
ENDBRANCH  12  25
TORSDOF 3
ENDMDL
MODEL 2
REMARK VINA RESULT:      -9.6      2.180      2.561
REMARK  Name = 
REMARK  4 active torsions:
REMARK  status: ('A' for Active; 'I' for Inactive)
REMARK    1  A    between atoms: C_1  and  N_2
REMARK    2  A    between atoms: C_12  and  O_13
REMARK    3  A    between atoms: O_13  and  C_14
REMARK    4  A    between atoms: C_14  and  C_15
REMARK                            x       y       z     vdW  Elec       q    Type
REMARK                         _______ _______ _______ _____ _____    ______ ____
ROOT
ATOM      1  C   UNL     1      -1.571  10.821  18.312  0.00  0.00    +0.000 C 
ATOM      2  N   UNL     1      -0.832  11.011  19.542  0.00  0.00    +0.000 N 
ATOM      3  C   UNL     1      -1.160  11.896  20.552  0.00  0.00    +0.000 A 
ATOM      4  C   UNL     1      -0.983  11.206  21.738  0.00  0.00    +0.000 A 
ATOM      5  C   UNL     1      -0.020  10.178  21.434  0.00  0.00    +0.000 A 
ATOM      6  C   UNL     1       0.797   9.290  22.151  0.00  0.00    +0.000 A 
ATOM      7  C   UNL     1       1.564   8.370  21.414  0.00  0.00    +0.000 A 
ATOM      8  C   UNL     1       1.508   8.341  20.040  0.00  0.00    +0.000 A 
ATOM      9  N   UNL     1       2.316   7.397  19.304  0.00  0.00    +0.000 N 
ATOM     10  C   UNL     1       3.054   7.823  18.206  0.00  0.00    +0.000 A 
ATOM     11  C   UNL     1       3.803   6.984  17.478  0.00  0.00    +0.000 A 
ATOM     12  C   UNL     1       3.769   5.563  17.764  0.00  0.00    +0.000 A 
ATOM     13  C   UNL     1       3.079   5.122  18.820  0.00  0.00    +0.000 A 
ATOM     14  C   UNL     1       2.308   6.052  19.690  0.00  0.00    +0.000 A 
ATOM     15  O   UNL     1       1.690   5.566  20.642  0.00  0.00    +0.000 OA
ATOM     16  N   UNL     1       0.796   9.231  19.296  0.00  0.00    +0.000 NA
ATOM     17  C   UNL     1       0.055  10.091  20.044  0.00  0.00    +0.000 A 
ATOM     18  C   UNL     1      -1.651  11.601  23.021  0.00  0.00    +0.000 C 
ATOM     19  N   UNL     1      -1.959  13.049  23.145  0.00  0.00    +0.000 NA
ATOM     20  C   UNL     1      -3.162  13.525  22.453  0.00  0.00    +0.000 C 
ATOM     21  C   UNL     1      -2.950  13.975  21.015  0.00  0.00    +0.000 C 
ATOM     22  C   UNL     1      -1.697  13.348  20.337  0.00  0.00    +0.000 C 
ATOM     23  C   UNL     1      -0.644  14.052  21.243  0.00  0.00    +0.000 C 
ATOM     24  C   UNL     1      -0.814  13.877  22.782  0.00  0.00    +0.000 C 
ENDROOT
BRANCH  12  25
ATOM     25  O   UNL     1       4.433   4.662  16.944  0.00  0.00    +0.000 OA
BRANCH  25  26
ATOM     26  C   UNL     1       5.835   4.882  16.760  0.00  0.00    +0.000 C 
BRANCH  26  27
ATOM     27  C   UNL     1       6.307   4.625  15.346  0.00  0.00    +0.000 A 
ATOM     28  C   UNL     1       5.607   3.786  14.477  0.00  0.00    +0.000 A 
ATOM     29  C   UNL     1       6.012   3.700  13.146  0.00  0.00    +0.000 A 
ATOM     30  C   UNL     1       7.088   4.460  12.719  0.00  0.00    +0.000 A 
ATOM     31  F   UNL     1       7.484   4.423  11.441  0.00  0.00    +0.000 F 
ATOM     32  C   UNL     1       7.735   5.272  13.634  0.00  0.00    +0.000 A 
ATOM     33  N   UNL     1       7.367   5.373  14.932  0.00  0.00    +0.000 NA
ENDBRANCH  26  27
ENDBRANCH  25  26
ENDBRANCH  12  25
TORSDOF 3
ENDMDL
MODEL 3
REMARK VINA RESULT:      -8.7      2.020      3.119
REMARK  Name = 
REMARK  4 active torsions:
REMARK  status: ('A' for Active; 'I' for Inactive)
REMARK    1  A    between atoms: C_1  and  N_2
REMARK    2  A    between atoms: C_12  and  O_13
REMARK    3  A    between atoms: O_13  and  C_14
REMARK    4  A    between atoms: C_14  and  C_15
REMARK                            x       y       z     vdW  Elec       q    Type
REMARK                         _______ _______ _______ _____ _____    ______ ____
ROOT
ATOM      1  C   UNL     1      -4.314  12.184  19.202  0.00  0.00    +0.000 C 
ATOM      2  N   UNL     1      -3.525  12.752  20.275  0.00  0.00    +0.000 N 
ATOM      3  C   UNL     1      -3.975  13.663  21.212  0.00  0.00    +0.000 A 
ATOM      4  C   UNL     1      -3.477  13.238  22.430  0.00  0.00    +0.000 A 
ATOM      5  C   UNL     1      -2.303  12.469  22.108  0.00  0.00    +0.000 A 
ATOM      6  C   UNL     1      -1.192  11.952  22.793  0.00  0.00    +0.000 A 
ATOM      7  C   UNL     1      -0.282  11.166  22.062  0.00  0.00    +0.000 A 
ATOM      8  C   UNL     1      -0.483  10.909  20.725  0.00  0.00    +0.000 A 
ATOM      9  N   UNL     1       0.472  10.111  19.992  0.00  0.00    +0.000 N 
ATOM     10  C   UNL     1       0.930  10.541  18.753  0.00  0.00    +0.000 A 
ATOM     11  C   UNL     1       1.799   9.829  18.024  0.00  0.00    +0.000 A 
ATOM     12  C   UNL     1       2.203   8.512  18.478  0.00  0.00    +0.000 A 
ATOM     13  C   UNL     1       1.790   8.073  19.671  0.00  0.00    +0.000 A 
ATOM     14  C   UNL     1       0.890   8.889  20.531  0.00  0.00    +0.000 A 
ATOM     15  O   UNL     1       0.547   8.411  21.616  0.00  0.00    +0.000 OA
ATOM     16  N   UNL     1      -1.498  11.452  19.998  0.00  0.00    +0.000 NA
ATOM     17  C   UNL     1      -2.362  12.189  20.742  0.00  0.00    +0.000 A 
ATOM     18  C   UNL     1      -4.081  13.637  23.744  0.00  0.00    +0.000 C 
ATOM     19  N   UNL     1      -4.771  14.951  23.741  0.00  0.00    +0.000 NA
ATOM     20  C   UNL     1      -6.129  14.978  23.187  0.00  0.00    +0.000 C 
ATOM     21  C   UNL     1      -6.218  15.239  21.691  0.00  0.00    +0.000 C 
ATOM     22  C   UNL     1      -4.923  14.869  20.910  0.00  0.00    +0.000 C 
ATOM     23  C   UNL     1      -4.018  15.959  21.557  0.00  0.00    +0.000 C 
ATOM     24  C   UNL     1      -3.956  15.987  23.113  0.00  0.00    +0.000 C 
ENDROOT
BRANCH  12  25
ATOM     25  O   UNL     1       2.998   7.703  17.679  0.00  0.00    +0.000 OA
BRANCH  25  26
ATOM     26  C   UNL     1       2.978   6.302  17.972  0.00  0.00    +0.000 C 
BRANCH  26  27
ATOM     27  C   UNL     1       4.334   5.641  17.854  0.00  0.00    +0.000 A 
ATOM     28  C   UNL     1       4.879   5.295  16.617  0.00  0.00    +0.000 A 
ATOM     29  C   UNL     1       6.188   4.819  16.563  0.00  0.00    +0.000 A 
ATOM     30  C   UNL     1       6.915   4.714  17.737  0.00  0.00    +0.000 A 
ATOM     31  F   UNL     1       8.183   4.288  17.716  0.00  0.00    +0.000 F 
ATOM     32  C   UNL     1       6.312   5.076  18.928  0.00  0.00    +0.000 A 
ATOM     33  N   UNL     1       5.044   5.538  19.012  0.00  0.00    +0.000 NA
ENDBRANCH  26  27
ENDBRANCH  25  26
ENDBRANCH  12  25
TORSDOF 3
ENDMDL
MODEL 4
REMARK VINA RESULT:      -8.6      4.089     10.565
REMARK  Name = 
REMARK  4 active torsions:
REMARK  status: ('A' for Active; 'I' for Inactive)
REMARK    1  A    between atoms: C_1  and  N_2
REMARK    2  A    between atoms: C_12  and  O_13
REMARK    3  A    between atoms: O_13  and  C_14
REMARK    4  A    between atoms: C_14  and  C_15
REMARK                            x       y       z     vdW  Elec       q    Type
REMARK                         _______ _______ _______ _____ _____    ______ ____
ROOT
ATOM      1  C   UNL     1       1.589   5.459  20.717  0.00  0.00    +0.000 C 
ATOM      2  N   UNL     1       2.467   6.276  19.906  0.00  0.00    +0.000 N 
ATOM      3  C   UNL     1       3.525   5.815  19.145  0.00  0.00    +0.000 A 
ATOM      4  C   UNL     1       3.448   6.485  17.938  0.00  0.00    +0.000 A 
ATOM      5  C   UNL     1       2.742   7.706  18.230  0.00  0.00    +0.000 A 
ATOM      6  C   UNL     1       2.511   8.937  17.596  0.00  0.00    +0.000 A 
ATOM      7  C   UNL     1       1.669   9.857  18.245  0.00  0.00    +0.000 A 
ATOM      8  C   UNL     1       1.087   9.554  19.455  0.00  0.00    +0.000 A 
ATOM      9  N   UNL     1       0.237  10.521  20.110  0.00  0.00    +0.000 N 
ATOM     10  C   UNL     1       0.407  10.792  21.461  0.00  0.00    +0.000 A 
ATOM     11  C   UNL     1      -0.368  11.664  22.120  0.00  0.00    +0.000 A 
ATOM     12  C   UNL     1      -1.495  12.272  21.442  0.00  0.00    +0.000 A 
ATOM     13  C   UNL     1      -1.681  12.042  20.138  0.00  0.00    +0.000 A 
ATOM     14  C   UNL     1      -0.778  11.140  19.371  0.00  0.00    +0.000 A 
ATOM     15  O   UNL     1      -1.020  10.973  18.173  0.00  0.00    +0.000 OA
ATOM     16  N   UNL     1       1.343   8.410  20.147  0.00  0.00    +0.000 NA
ATOM     17  C   UNL     1       2.146   7.542  19.480  0.00  0.00    +0.000 A 
ATOM     18  C   UNL     1       4.082   5.974  16.678  0.00  0.00    +0.000 C 
ATOM     19  N   UNL     1       5.285   5.128  16.883  0.00  0.00    +0.000 NA
ATOM     20  C   UNL     1       5.049   3.728  17.250  0.00  0.00    +0.000 C 
ATOM     21  C   UNL     1       4.942   3.455  18.743  0.00  0.00    +0.000 C 
ATOM     22  C   UNL     1       4.528   4.699  19.582  0.00  0.00    +0.000 C 
ATOM     23  C   UNL     1       5.822   5.522  19.314  0.00  0.00    +0.000 C 
ATOM     24  C   UNL     1       6.220   5.739  17.824  0.00  0.00    +0.000 C 
ENDROOT
BRANCH  12  25
ATOM     25  O   UNL     1      -2.388  13.076  22.137  0.00  0.00    +0.000 OA
BRANCH  25  26
ATOM     26  C   UNL     1      -3.631  12.472  22.510  0.00  0.00    +0.000 C 
BRANCH  26  27
ATOM     27  C   UNL     1      -4.815  12.994  21.726  0.00  0.00    +0.000 A 
ATOM     28  C   UNL     1      -4.802  14.253  21.125  0.00  0.00    +0.000 A 
ATOM     29  C   UNL     1      -5.865  14.620  20.300  0.00  0.00    +0.000 A 
ATOM     30  C   UNL     1      -6.897  13.721  20.090  0.00  0.00    +0.000 A 
ATOM     31  F   UNL     1      -7.916  14.031  19.281  0.00  0.00    +0.000 F 
ATOM     32  C   UNL     1      -6.844  12.488  20.718  0.00  0.00    +0.000 A 
ATOM     33  N   UNL     1      -5.828  12.106  21.525  0.00  0.00    +0.000 NA
ENDBRANCH  26  27
ENDBRANCH  25  26
ENDBRANCH  12  25
TORSDOF 3
ENDMDL
MODEL 5
REMARK VINA RESULT:      -8.6      4.033     10.612
REMARK  Name = 
REMARK  4 active torsions:
REMARK  status: ('A' for Active; 'I' for Inactive)
REMARK    1  A    between atoms: C_1  and  N_2
REMARK    2  A    between atoms: C_12  and  O_13
REMARK    3  A    between atoms: O_13  and  C_14
REMARK    4  A    between atoms: C_14  and  C_15
REMARK                            x       y       z     vdW  Elec       q    Type
REMARK                         _______ _______ _______ _____ _____    ______ ____
ROOT
ATOM      1  C   UNL     1       1.485   5.257  20.820  0.00  0.00    +0.000 C 
ATOM      2  N   UNL     1       2.409   5.975  19.967  0.00  0.00    +0.000 N 
ATOM      3  C   UNL     1       3.430   5.409  19.227  0.00  0.00    +0.000 A 
ATOM      4  C   UNL     1       3.389   6.021  17.988  0.00  0.00    +0.000 A 
ATOM      5  C   UNL     1       2.765   7.298  18.219  0.00  0.00    +0.000 A 
ATOM      6  C   UNL     1       2.610   8.508  17.525  0.00  0.00    +0.000 A 
ATOM      7  C   UNL     1       1.832   9.512  18.129  0.00  0.00    +0.000 A 
ATOM      8  C   UNL     1       1.239   9.308  19.354  0.00  0.00    +0.000 A 
ATOM      9  N   UNL     1       0.457  10.359  19.962  0.00  0.00    +0.000 N 
ATOM     10  C   UNL     1       0.652  10.687  21.297  0.00  0.00    +0.000 A 
ATOM     11  C   UNL     1      -0.061  11.638  21.913  0.00  0.00    +0.000 A 
ATOM     12  C   UNL     1      -1.152  12.283  21.208  0.00  0.00    +0.000 A 
ATOM     13  C   UNL     1      -1.359  12.000  19.918  0.00  0.00    +0.000 A 
ATOM     14  C   UNL     1      -0.521  11.005  19.196  0.00  0.00    +0.000 A 
ATOM     15  O   UNL     1      -0.780  10.793  18.008  0.00  0.00    +0.000 OA
ATOM     16  N   UNL     1       1.425   8.186  20.103  0.00  0.00    +0.000 NA
ATOM     17  C   UNL     1       2.167   7.235  19.478  0.00  0.00    +0.000 A 
ATOM     18  C   UNL     1       3.981   5.407  16.754  0.00  0.00    +0.000 C 
ATOM     19  N   UNL     1       5.130   4.497  16.998  0.00  0.00    +0.000 NA
ATOM     20  C   UNL     1       4.806   3.135  17.436  0.00  0.00    +0.000 C 
ATOM     21  C   UNL     1       4.691   2.945  18.941  0.00  0.00    +0.000 C 
ATOM     22  C   UNL     1       4.362   4.254  19.717  0.00  0.00    +0.000 C 
ATOM     23  C   UNL     1       5.705   4.978  19.404  0.00  0.00    +0.000 C 
ATOM     24  C   UNL     1       6.107   5.093  17.904  0.00  0.00    +0.000 C 
ENDROOT
BRANCH  12  25
ATOM     25  O   UNL     1      -1.987  13.176  21.865  0.00  0.00    +0.000 OA
BRANCH  25  26
ATOM     26  C   UNL     1      -2.361  12.832  23.203  0.00  0.00    +0.000 C 
BRANCH  26  27
ATOM     27  C   UNL     1      -3.854  12.689  23.395  0.00  0.00    +0.000 A 
ATOM     28  C   UNL     1      -4.412  12.404  24.642  0.00  0.00    +0.000 A 
ATOM     29  C   UNL     1      -5.799  12.424  24.783  0.00  0.00    +0.000 A 
ATOM     30  C   UNL     1      -6.584  12.738  23.686  0.00  0.00    +0.000 A 
ATOM     31  F   UNL     1      -7.916  12.795  23.796  0.00  0.00    +0.000 F 
ATOM     32  C   UNL     1      -5.963  13.012  22.480  0.00  0.00    +0.000 A 
ATOM     33  N   UNL     1      -4.622  12.998  22.312  0.00  0.00    +0.000 NA
ENDBRANCH  26  27
ENDBRANCH  25  26
ENDBRANCH  12  25
TORSDOF 3
ENDMDL
MODEL 6
REMARK VINA RESULT:      -8.5      3.673      8.750
REMARK  Name = 
REMARK  4 active torsions:
REMARK  status: ('A' for Active; 'I' for Inactive)
REMARK    1  A    between atoms: C_1  and  N_2
REMARK    2  A    between atoms: C_12  and  O_13
REMARK    3  A    between atoms: O_13  and  C_14
REMARK    4  A    between atoms: C_14  and  C_15
REMARK                            x       y       z     vdW  Elec       q    Type
REMARK                         _______ _______ _______ _____ _____    ______ ____
ROOT
ATOM      1  C   UNL     1       4.104   7.127  17.467  0.00  0.00    +0.000 C 
ATOM      2  N   UNL     1       3.014   6.545  18.222  0.00  0.00    +0.000 N 
ATOM      3  C   UNL     1       2.861   5.203  18.512  0.00  0.00    +0.000 A 
ATOM      4  C   UNL     1       2.474   5.141  19.839  0.00  0.00    +0.000 A 
ATOM      5  C   UNL     1       1.850   6.411  20.108  0.00  0.00    +0.000 A 
ATOM      6  C   UNL     1       1.038   6.966  21.109  0.00  0.00    +0.000 A 
ATOM      7  C   UNL     1       0.705   8.328  20.998  0.00  0.00    +0.000 A 
ATOM      8  C   UNL     1       1.168   9.087  19.948  0.00  0.00    +0.000 A 
ATOM      9  N   UNL     1       0.800  10.480  19.847  0.00  0.00    +0.000 N 
ATOM     10  C   UNL     1       0.352  10.995  18.637  0.00  0.00    +0.000 A 
ATOM     11  C   UNL     1       0.020  12.283  18.486  0.00  0.00    +0.000 A 
ATOM     12  C   UNL     1       0.230  13.209  19.581  0.00  0.00    +0.000 A 
ATOM     13  C   UNL     1       0.648  12.746  20.763  0.00  0.00    +0.000 A 
ATOM     14  C   UNL     1       0.943  11.302  20.972  0.00  0.00    +0.000 A 
ATOM     15  O   UNL     1       1.332  10.953  22.090  0.00  0.00    +0.000 OA
ATOM     16  N   UNL     1       1.889   8.579  18.912  0.00  0.00    +0.000 NA
ATOM     17  C   UNL     1       2.205   7.266  19.065  0.00  0.00    +0.000 A 
ATOM     18  C   UNL     1       2.650   3.915  20.685  0.00  0.00    +0.000 C 
ATOM     19  N   UNL     1       2.635   2.632  19.936  0.00  0.00    +0.000 NA
ATOM     20  C   UNL     1       3.878   2.255  19.255  0.00  0.00    +0.000 C 
ATOM     21  C   UNL     1       4.019   2.767  17.828  0.00  0.00    +0.000 C 
ATOM     22  C   UNL     1       3.159   4.029  17.525  0.00  0.00    +0.000 C 
ATOM     23  C   UNL     1       1.775   3.330  17.672  0.00  0.00    +0.000 C 
ATOM     24  C   UNL     1       1.514   2.565  19.004  0.00  0.00    +0.000 C 
ENDROOT
BRANCH  12  25
ATOM     25  O   UNL     1       0.016  14.570  19.407  0.00  0.00    +0.000 OA
BRANCH  25  26
ATOM     26  C   UNL     1       0.947  15.448  20.049  0.00  0.00    +0.000 C 
BRANCH  26  27
ATOM     27  C   UNL     1       2.323  15.433  19.422  0.00  0.00    +0.000 A 
ATOM     28  C   UNL     1       3.461  15.090  20.154  0.00  0.00    +0.000 A 
ATOM     29  C   UNL     1       4.679  14.957  19.488  0.00  0.00    +0.000 A 
ATOM     30  C   UNL     1       4.724  15.156  18.118  0.00  0.00    +0.000 A 
ATOM     31  F   UNL     1       5.870  15.008  17.446  0.00  0.00    +0.000 F 
ATOM     32  C   UNL     1       3.556  15.493  17.456  0.00  0.00    +0.000 A 
ATOM     33  N   UNL     1       2.361  15.631  18.075  0.00  0.00    +0.000 NA
ENDBRANCH  26  27
ENDBRANCH  25  26
ENDBRANCH  12  25
TORSDOF 3
ENDMDL
MODEL 7
REMARK VINA RESULT:      -8.5      2.451      3.573
REMARK  Name = 
REMARK  4 active torsions:
REMARK  status: ('A' for Active; 'I' for Inactive)
REMARK    1  A    between atoms: C_1  and  N_2
REMARK    2  A    between atoms: C_12  and  O_13
REMARK    3  A    between atoms: O_13  and  C_14
REMARK    4  A    between atoms: C_14  and  C_15
REMARK                            x       y       z     vdW  Elec       q    Type
REMARK                         _______ _______ _______ _____ _____    ______ ____
ROOT
ATOM      1  C   UNL     1      -4.332  12.225  19.221  0.00  0.00    +0.000 C 
ATOM      2  N   UNL     1      -3.558  12.775  20.314  0.00  0.00    +0.000 N 
ATOM      3  C   UNL     1      -4.023  13.662  21.266  0.00  0.00    +0.000 A 
ATOM      4  C   UNL     1      -3.531  13.214  22.479  0.00  0.00    +0.000 A 
ATOM      5  C   UNL     1      -2.348  12.462  22.149  0.00  0.00    +0.000 A 
ATOM      6  C   UNL     1      -1.239  11.939  22.832  0.00  0.00    +0.000 A 
ATOM      7  C   UNL     1      -0.317  11.177  22.092  0.00  0.00    +0.000 A 
ATOM      8  C   UNL     1      -0.504  10.948  20.748  0.00  0.00    +0.000 A 
ATOM      9  N   UNL     1       0.464  10.175  20.006  0.00  0.00    +0.000 N 
ATOM     10  C   UNL     1       0.929  10.636  18.781  0.00  0.00    +0.000 A 
ATOM     11  C   UNL     1       1.810   9.948  18.044  0.00  0.00    +0.000 A 
ATOM     12  C   UNL     1       2.221   8.625  18.472  0.00  0.00    +0.000 A 
ATOM     13  C   UNL     1       1.802   8.155  19.651  0.00  0.00    +0.000 A 
ATOM     14  C   UNL     1       0.888   8.944  20.522  0.00  0.00    +0.000 A 
ATOM     15  O   UNL     1       0.539   8.439  21.592  0.00  0.00    +0.000 OA
ATOM     16  N   UNL     1      -1.517  11.499  20.025  0.00  0.00    +0.000 NA
ATOM     17  C   UNL     1      -2.394  12.212  20.778  0.00  0.00    +0.000 A 
ATOM     18  C   UNL     1      -4.150  13.578  23.796  0.00  0.00    +0.000 C 
ATOM     19  N   UNL     1      -4.851  14.887  23.816  0.00  0.00    +0.000 NA
ATOM     20  C   UNL     1      -6.205  14.914  23.252  0.00  0.00    +0.000 C 
ATOM     21  C   UNL     1      -6.283  15.208  21.760  0.00  0.00    +0.000 C 
ATOM     22  C   UNL     1      -4.978  14.866  20.983  0.00  0.00    +0.000 C 
ATOM     23  C   UNL     1      -4.088  15.949  21.662  0.00  0.00    +0.000 C 
ATOM     24  C   UNL     1      -4.040  15.943  23.219  0.00  0.00    +0.000 C 
ENDROOT
BRANCH  12  25
ATOM     25  O   UNL     1       3.030   7.840  17.662  0.00  0.00    +0.000 OA
BRANCH  25  26
ATOM     26  C   UNL     1       3.336   6.528  18.147  0.00  0.00    +0.000 C 
BRANCH  26  27
ATOM     27  C   UNL     1       4.240   5.739  17.226  0.00  0.00    +0.000 A 
ATOM     28  C   UNL     1       4.304   4.346  17.274  0.00  0.00    +0.000 A 
ATOM     29  C   UNL     1       5.047   3.669  16.309  0.00  0.00    +0.000 A 
ATOM     30  C   UNL     1       5.691   4.396  15.321  0.00  0.00    +0.000 A 
ATOM     31  F   UNL     1       6.388   3.775  14.363  0.00  0.00    +0.000 F 
ATOM     32  C   UNL     1       5.583   5.776  15.333  0.00  0.00    +0.000 A 
ATOM     33  N   UNL     1       4.872   6.460  16.258  0.00  0.00    +0.000 NA
ENDBRANCH  26  27
ENDBRANCH  25  26
ENDBRANCH  12  25
TORSDOF 3
ENDMDL
MODEL 8
REMARK VINA RESULT:      -8.5      4.163     10.803
REMARK  Name = 
REMARK  4 active torsions:
REMARK  status: ('A' for Active; 'I' for Inactive)
REMARK    1  A    between atoms: C_1  and  N_2
REMARK    2  A    between atoms: C_12  and  O_13
REMARK    3  A    between atoms: O_13  and  C_14
REMARK    4  A    between atoms: C_14  and  C_15
REMARK                            x       y       z     vdW  Elec       q    Type
REMARK                         _______ _______ _______ _____ _____    ______ ____
ROOT
ATOM      1  C   UNL     1       1.652   5.262  20.538  0.00  0.00    +0.000 C 
ATOM      2  N   UNL     1       2.551   6.117  19.792  0.00  0.00    +0.000 N 
ATOM      3  C   UNL     1       3.665   5.698  19.089  0.00  0.00    +0.000 A 
ATOM      4  C   UNL     1       3.639   6.382  17.888  0.00  0.00    +0.000 A 
ATOM      5  C   UNL     1       2.882   7.578  18.153  0.00  0.00    +0.000 A 
ATOM      6  C   UNL     1       2.652   8.811  17.523  0.00  0.00    +0.000 A 
ATOM      7  C   UNL     1       1.745   9.697  18.133  0.00  0.00    +0.000 A 
ATOM      8  C   UNL     1       1.103   9.359  19.302  0.00  0.00    +0.000 A 
ATOM      9  N   UNL     1       0.188  10.291  19.918  0.00  0.00    +0.000 N 
ATOM     10  C   UNL     1       0.270  10.548  21.281  0.00  0.00    +0.000 A 
ATOM     11  C   UNL     1      -0.568  11.386  21.904  0.00  0.00    +0.000 A 
ATOM     12  C   UNL     1      -1.672  11.972  21.168  0.00  0.00    +0.000 A 
ATOM     13  C   UNL     1      -1.773  11.756  19.853  0.00  0.00    +0.000 A 
ATOM     14  C   UNL     1      -0.800  10.892  19.129  0.00  0.00    +0.000 A 
ATOM     15  O   UNL     1      -0.966  10.735  17.916  0.00  0.00    +0.000 OA
ATOM     16  N   UNL     1       1.352   8.214  19.994  0.00  0.00    +0.000 NA
ATOM     17  C   UNL     1       2.218   7.378  19.364  0.00  0.00    +0.000 A 
ATOM     18  C   UNL     1       4.361   5.909  16.662  0.00  0.00    +0.000 C 
ATOM     19  N   UNL     1       5.575   5.095  16.927  0.00  0.00    +0.000 NA
ATOM     20  C   UNL     1       5.359   3.684  17.260  0.00  0.00    +0.000 C 
ATOM     21  C   UNL     1       5.173   3.385  18.741  0.00  0.00    +0.000 C 
ATOM     22  C   UNL     1       4.673   4.604  19.570  0.00  0.00    +0.000 C 
ATOM     23  C   UNL     1       5.956   5.469  19.390  0.00  0.00    +0.000 C 
ATOM     24  C   UNL     1       6.434   5.719  17.929  0.00  0.00    +0.000 C 
ENDROOT
BRANCH  12  25
ATOM     25  O   UNL     1      -2.627  12.739  21.820  0.00  0.00    +0.000 OA
BRANCH  25  26
ATOM     26  C   UNL     1      -3.874  12.917  21.139  0.00  0.00    +0.000 C 
BRANCH  26  27
ATOM     27  C   UNL     1      -5.037  13.183  22.068  0.00  0.00    +0.000 A 
ATOM     28  C   UNL     1      -6.292  12.608  21.861  0.00  0.00    +0.000 A 
ATOM     29  C   UNL     1      -7.282  12.778  22.827  0.00  0.00    +0.000 A 
ATOM     30  C   UNL     1      -6.990  13.502  23.972  0.00  0.00    +0.000 A 
ATOM     31  F   UNL     1      -7.910  13.658  24.931  0.00  0.00    +0.000 F 
ATOM     32  C   UNL     1      -5.724  14.043  24.112  0.00  0.00    +0.000 A 
ATOM     33  N   UNL     1      -4.745  13.897  23.191  0.00  0.00    +0.000 NA
ENDBRANCH  26  27
ENDBRANCH  25  26
ENDBRANCH  12  25
TORSDOF 3
ENDMDL
MODEL 9
REMARK VINA RESULT:      -8.5      3.213      4.825
REMARK  Name = 
REMARK  4 active torsions:
REMARK  status: ('A' for Active; 'I' for Inactive)
REMARK    1  A    between atoms: C_1  and  N_2
REMARK    2  A    between atoms: C_12  and  O_13
REMARK    3  A    between atoms: O_13  and  C_14
REMARK    4  A    between atoms: C_14  and  C_15
REMARK                            x       y       z     vdW  Elec       q    Type
REMARK                         _______ _______ _______ _____ _____    ______ ____
ROOT
ATOM      1  C   UNL     1      -4.835  12.136  19.397  0.00  0.00    +0.000 C 
ATOM      2  N   UNL     1      -3.999  12.988  20.216  0.00  0.00    +0.000 N 
ATOM      3  C   UNL     1      -4.417  14.120  20.889  0.00  0.00    +0.000 A 
ATOM      4  C   UNL     1      -3.834  14.057  22.142  0.00  0.00    +0.000 A 
ATOM      5  C   UNL     1      -2.661  13.240  21.970  0.00  0.00    +0.000 A 
ATOM      6  C   UNL     1      -1.497  12.945  22.697  0.00  0.00    +0.000 A 
ATOM      7  C   UNL     1      -0.612  11.995  22.155  0.00  0.00    +0.000 A 
ATOM      8  C   UNL     1      -0.886  11.374  20.959  0.00  0.00    +0.000 A 
ATOM      9  N   UNL     1       0.045  10.412  20.415  0.00  0.00    +0.000 N 
ATOM     10  C   UNL     1       0.416  10.484  19.078  0.00  0.00    +0.000 A 
ATOM     11  C   UNL     1       1.258   9.605  18.521  0.00  0.00    +0.000 A 
ATOM     12  C   UNL     1       1.725   8.471  19.295  0.00  0.00    +0.000 A 
ATOM     13  C   UNL     1       1.397   8.379  20.588  0.00  0.00    +0.000 A 
ATOM     14  C   UNL     1       0.528   9.394  21.245  0.00  0.00    +0.000 A 
ATOM     15  O   UNL     1       0.265   9.234  22.439  0.00  0.00    +0.000 OA
ATOM     16  N   UNL     1      -1.957  11.682  20.178  0.00  0.00    +0.000 NA
ATOM     17  C   UNL     1      -2.795  12.590  20.743  0.00  0.00    +0.000 A 
ATOM     18  C   UNL     1      -4.369  14.800  23.330  0.00  0.00    +0.000 C 
ATOM     19  N   UNL     1      -5.094  16.055  23.007  0.00  0.00    +0.000 NA
ATOM     20  C   UNL     1      -6.483  15.913  22.558  0.00  0.00    +0.000 C 
ATOM     21  C   UNL     1      -6.669  15.745  21.057  0.00  0.00    +0.000 C 
ATOM     22  C   UNL     1      -5.414  15.185  20.327  0.00  0.00    +0.000 C 
ATOM     23  C   UNL     1      -4.502  16.421  20.584  0.00  0.00    +0.000 C 
ATOM     24  C   UNL     1      -4.348  16.883  22.064  0.00  0.00    +0.000 C 
ENDROOT
BRANCH  12  25
ATOM     25  O   UNL     1       2.492   7.479  18.702  0.00  0.00    +0.000 OA
BRANCH  25  26
ATOM     26  C   UNL     1       3.011   6.469  19.574  0.00  0.00    +0.000 C 
BRANCH  26  27
ATOM     27  C   UNL     1       2.357   5.117  19.389  0.00  0.00    +0.000 A 
ATOM     28  C   UNL     1       1.634   4.503  20.413  0.00  0.00    +0.000 A 
ATOM     29  C   UNL     1       0.938   3.327  20.138  0.00  0.00    +0.000 A 
ATOM     30  C   UNL     1       0.972   2.807  18.855  0.00  0.00    +0.000 A 
ATOM     31  F   UNL     1       0.292   1.696  18.552  0.00  0.00    +0.000 F 
ATOM     32  C   UNL     1       1.709   3.470  17.888  0.00  0.00    +0.000 A 
ATOM     33  N   UNL     1       2.396   4.610  18.125  0.00  0.00    +0.000 NA
ENDBRANCH  26  27
ENDBRANCH  25  26
ENDBRANCH  12  25
TORSDOF 3
ENDMDL
