MODEL 1
REMARK VINA RESULT:      -7.0      0.000      0.000
REMARK  Name = 
REMARK  6 active torsions:
REMARK  status: ('A' for Active; 'I' for Inactive)
REMARK    1  A    between atoms: C_1  and  O_2
REMARK    2  A    between atoms: O_2  and  C_3
REMARK    3  A    between atoms: C_6  and  C_7
REMARK    4  A    between atoms: N_13  and  C_14
REMARK    5  A    between atoms: N_13  and  C_15
REMARK    6  A    between atoms: N_18  and  C_19
REMARK                            x       y       z     vdW  Elec       q    Type
REMARK                         _______ _______ _______ _____ _____    ______ ____
ROOT
ATOM      1  C   UNL     1       2.310   7.683  19.078  0.00  0.00    +0.000 A 
ATOM      2  N   UNL     1       3.018   8.139  18.080  0.00  0.00    +0.000 NA
ATOM      3  C   UNL     1       3.811   7.238  17.356  0.00  0.00    +0.000 A 
ATOM      4  C   UNL     1       4.616   7.664  16.325  0.00  0.00    +0.000 A 
ATOM      5  N   UNL     1       5.407   6.854  15.587  0.00  0.00    +0.000 NA
ATOM      6  C   UNL     1       5.418   5.549  15.885  0.00  0.00    +0.000 A 
ATOM      7  N   UNL     1       6.202   4.689  15.156  0.00  0.00    +0.000 N 
ATOM      8  C   UNL     1       6.983   5.160  14.032  0.00  0.00    +0.000 C 
ATOM      9  C   UNL     1       6.237   3.270  15.458  0.00  0.00    +0.000 C 
ATOM     10  N   UNL     1       4.674   5.053  16.880  0.00  0.00    +0.000 NA
ATOM     11  C   UNL     1       3.874   5.880  17.592  0.00  0.00    +0.000 A 
ATOM     12  N   UNL     1       3.097   5.363  18.661  0.00  0.00    +0.000 N 
ATOM     13  C   UNL     1       2.300   6.189  19.443  0.00  0.00    +0.000 A 
ATOM     14  O   UNL     1       1.561   5.798  20.341  0.00  0.00    +0.000 OA
ENDROOT
BRANCH   1  18
ATOM     15  C   UNL     1      -0.239  10.402  21.251  0.00  0.00    +0.000 A 
ATOM     16  C   UNL     1      -0.108  10.496  19.864  0.00  0.00    +0.000 A 
ATOM     17  C   UNL     1       0.725   9.614  19.164  0.00  0.00    +0.000 A 
ATOM     18  C   UNL     1       1.451   8.633  19.851  0.00  0.00    +0.000 A 
ATOM     19  C   UNL     1       1.355   8.581  21.246  0.00  0.00    +0.000 A 
ATOM     20  C   UNL     1       0.506   9.450  21.941  0.00  0.00    +0.000 A 
BRANCH  15  22
ATOM     21  C   UNL     1      -1.413  11.066  23.193  0.00  0.00    +0.000 C 
ATOM     22  O   UNL     1      -1.084  11.309  21.828  0.00  0.00    +0.000 OA
ENDBRANCH  15  22
ENDBRANCH   1  18
BRANCH  12  23
ATOM     23  C   UNL     1       3.121   3.962  18.901  0.00  0.00    +0.000 A 
ATOM     24  C   UNL     1       4.144   3.378  19.661  0.00  0.00    +0.000 A 
ATOM     25  C   UNL     1       4.184   1.998  19.854  0.00  0.00    +0.000 A 
ATOM     26  C   UNL     1       3.190   1.189  19.308  0.00  0.00    +0.000 A 
ATOM     27  C   UNL     1       2.169   1.756  18.547  0.00  0.00    +0.000 A 
ATOM     28  C   UNL     1       2.142   3.134  18.329  0.00  0.00    +0.000 A 
ENDBRANCH  12  23
TORSDOF 3
ENDMDL
MODEL 2
REMARK VINA RESULT:      -6.9      4.215      9.375
REMARK  Name = 
REMARK  6 active torsions:
REMARK  status: ('A' for Active; 'I' for Inactive)
REMARK    1  A    between atoms: C_1  and  O_2
REMARK    2  A    between atoms: O_2  and  C_3
REMARK    3  A    between atoms: C_6  and  C_7
REMARK    4  A    between atoms: N_13  and  C_14
REMARK    5  A    between atoms: N_13  and  C_15
REMARK    6  A    between atoms: N_18  and  C_19
REMARK                            x       y       z     vdW  Elec       q    Type
REMARK                         _______ _______ _______ _____ _____    ______ ____
ROOT
ATOM      1  C   UNL     1       0.987  10.538  19.179  0.00  0.00    +0.000 A 
ATOM      2  N   UNL     1       1.737  11.556  18.852  0.00  0.00    +0.000 NA
ATOM      3  C   UNL     1       1.190  12.844  18.938  0.00  0.00    +0.000 A 
ATOM      4  C   UNL     1       1.914  13.952  18.563  0.00  0.00    +0.000 A 
ATOM      5  N   UNL     1       1.451  15.221  18.615  0.00  0.00    +0.000 NA
ATOM      6  C   UNL     1       0.200  15.414  19.052  0.00  0.00    +0.000 A 
ATOM      7  N   UNL     1      -0.307  16.688  19.128  0.00  0.00    +0.000 N 
ATOM      8  C   UNL     1       0.505  17.838  18.793  0.00  0.00    +0.000 C 
ATOM      9  C   UNL     1      -1.661  16.927  19.594  0.00  0.00    +0.000 C 
ATOM     10  N   UNL     1      -0.575  14.390  19.425  0.00  0.00    +0.000 NA
ATOM     11  C   UNL     1      -0.084  13.130  19.383  0.00  0.00    +0.000 A 
ATOM     12  N   UNL     1      -0.908  12.038  19.760  0.00  0.00    +0.000 N 
ATOM     13  C   UNL     1      -0.453  10.727  19.686  0.00  0.00    +0.000 A 
ATOM     14  O   UNL     1      -1.092   9.746  20.051  0.00  0.00    +0.000 OA
ENDROOT
BRANCH   1  18
ATOM     15  C   UNL     1       2.725   6.598  18.925  0.00  0.00    +0.000 A 
ATOM     16  C   UNL     1       2.710   7.447  17.817  0.00  0.00    +0.000 A 
ATOM     17  C   UNL     1       2.139   8.723  17.904  0.00  0.00    +0.000 A 
ATOM     18  C   UNL     1       1.562   9.159  19.103  0.00  0.00    +0.000 A 
ATOM     19  C   UNL     1       1.534   8.282  20.192  0.00  0.00    +0.000 A 
ATOM     20  C   UNL     1       2.123   7.015  20.109  0.00  0.00    +0.000 A 
BRANCH  15  22
ATOM     21  C   UNL     1       4.708   5.312  19.013  0.00  0.00    +0.000 C 
ATOM     22  O   UNL     1       3.313   5.380  18.729  0.00  0.00    +0.000 OA
ENDBRANCH  15  22
ENDBRANCH   1  18
BRANCH  12  23
ATOM     23  C   UNL     1      -2.213  12.312  20.253  0.00  0.00    +0.000 A 
ATOM     24  C   UNL     1      -2.435  12.533  21.619  0.00  0.00    +0.000 A 
ATOM     25  C   UNL     1      -3.724  12.759  22.100  0.00  0.00    +0.000 A 
ATOM     26  C   UNL     1      -4.801  12.787  21.218  0.00  0.00    +0.000 A 
ATOM     27  C   UNL     1      -4.595  12.566  19.857  0.00  0.00    +0.000 A 
ATOM     28  C   UNL     1      -3.310  12.312  19.377  0.00  0.00    +0.000 A 
ENDBRANCH  12  23
TORSDOF 3
ENDMDL
MODEL 3
REMARK VINA RESULT:      -6.9      4.192      9.434
REMARK  Name = 
REMARK  6 active torsions:
REMARK  status: ('A' for Active; 'I' for Inactive)
REMARK    1  A    between atoms: C_1  and  O_2
REMARK    2  A    between atoms: O_2  and  C_3
REMARK    3  A    between atoms: C_6  and  C_7
REMARK    4  A    between atoms: N_13  and  C_14
REMARK    5  A    between atoms: N_13  and  C_15
REMARK    6  A    between atoms: N_18  and  C_19
REMARK                            x       y       z     vdW  Elec       q    Type
REMARK                         _______ _______ _______ _____ _____    ______ ____
ROOT
ATOM      1  C   UNL     1       0.994  10.546  19.162  0.00  0.00    +0.000 A 
ATOM      2  N   UNL     1       1.718  11.573  18.807  0.00  0.00    +0.000 NA
ATOM      3  C   UNL     1       1.166  12.856  18.933  0.00  0.00    +0.000 A 
ATOM      4  C   UNL     1       1.860  13.973  18.531  0.00  0.00    +0.000 A 
ATOM      5  N   UNL     1       1.391  15.238  18.618  0.00  0.00    +0.000 NA
ATOM      6  C   UNL     1       0.163  15.416  19.121  0.00  0.00    +0.000 A 
ATOM      7  N   UNL     1      -0.350  16.685  19.235  0.00  0.00    +0.000 N 
ATOM      8  C   UNL     1       0.435  17.845  18.869  0.00  0.00    +0.000 C 
ATOM      9  C   UNL     1      -1.680  16.909  19.772  0.00  0.00    +0.000 C 
ATOM     10  N   UNL     1      -0.584  14.382  19.523  0.00  0.00    +0.000 NA
ATOM     11  C   UNL     1      -0.086  13.127  19.445  0.00  0.00    +0.000 A 
ATOM     12  N   UNL     1      -0.881  12.025  19.853  0.00  0.00    +0.000 N 
ATOM     13  C   UNL     1      -0.420  10.719  19.744  0.00  0.00    +0.000 A 
ATOM     14  O   UNL     1      -1.031   9.729  20.133  0.00  0.00    +0.000 OA
ENDROOT
BRANCH   1  18
ATOM     15  C   UNL     1       2.747   6.623  18.781  0.00  0.00    +0.000 A 
ATOM     16  C   UNL     1       2.641   7.470  17.676  0.00  0.00    +0.000 A 
ATOM     17  C   UNL     1       2.065   8.741  17.805  0.00  0.00    +0.000 A 
ATOM     18  C   UNL     1       1.575   9.173  19.044  0.00  0.00    +0.000 A 
ATOM     19  C   UNL     1       1.637   8.297  20.132  0.00  0.00    +0.000 A 
ATOM     20  C   UNL     1       2.230   7.036  20.006  0.00  0.00    +0.000 A 
BRANCH  15  22
ATOM     21  C   UNL     1       2.571   4.503  17.747  0.00  0.00    +0.000 C 
ATOM     22  O   UNL     1       3.330   5.410  18.542  0.00  0.00    +0.000 OA
ENDBRANCH  15  22
ENDBRANCH   1  18
BRANCH  12  23
ATOM     23  C   UNL     1      -2.161  12.284  20.416  0.00  0.00    +0.000 A 
ATOM     24  C   UNL     1      -3.299  12.375  19.603  0.00  0.00    +0.000 A 
ATOM     25  C   UNL     1      -4.544  12.673  20.158  0.00  0.00    +0.000 A 
ATOM     26  C   UNL     1      -4.666  12.861  21.533  0.00  0.00    +0.000 A 
ATOM     27  C   UNL     1      -3.541  12.775  22.352  0.00  0.00    +0.000 A 
ATOM     28  C   UNL     1      -2.290  12.506  21.796  0.00  0.00    +0.000 A 
ENDBRANCH  12  23
TORSDOF 3
ENDMDL
MODEL 4
REMARK VINA RESULT:      -6.9      0.446      1.011
REMARK  Name = 
REMARK  6 active torsions:
REMARK  status: ('A' for Active; 'I' for Inactive)
REMARK    1  A    between atoms: C_1  and  O_2
REMARK    2  A    between atoms: O_2  and  C_3
REMARK    3  A    between atoms: C_6  and  C_7
REMARK    4  A    between atoms: N_13  and  C_14
REMARK    5  A    between atoms: N_13  and  C_15
REMARK    6  A    between atoms: N_18  and  C_19
REMARK                            x       y       z     vdW  Elec       q    Type
REMARK                         _______ _______ _______ _____ _____    ______ ____
ROOT
ATOM      1  C   UNL     1       2.248   7.643  19.298  0.00  0.00    +0.000 A 
ATOM      2  N   UNL     1       2.935   8.126  18.298  0.00  0.00    +0.000 NA
ATOM      3  C   UNL     1       3.712   7.246  17.533  0.00  0.00    +0.000 A 
ATOM      4  C   UNL     1       4.496   7.700  16.498  0.00  0.00    +0.000 A 
ATOM      5  N   UNL     1       5.272   6.911  15.722  0.00  0.00    +0.000 NA
ATOM      6  C   UNL     1       5.290   5.598  15.985  0.00  0.00    +0.000 A 
ATOM      7  N   UNL     1       6.059   4.759  15.216  0.00  0.00    +0.000 N 
ATOM      8  C   UNL     1       6.816   5.261  14.089  0.00  0.00    +0.000 C 
ATOM      9  C   UNL     1       6.101   3.333  15.480  0.00  0.00    +0.000 C 
ATOM     10  N   UNL     1       4.568   5.075  16.982  0.00  0.00    +0.000 NA
ATOM     11  C   UNL     1       3.782   5.882  17.732  0.00  0.00    +0.000 A 
ATOM     12  N   UNL     1       3.028   5.335  18.803  0.00  0.00    +0.000 N 
ATOM     13  C   UNL     1       2.246   6.140  19.623  0.00  0.00    +0.000 A 
ATOM     14  O   UNL     1       1.527   5.724  20.526  0.00  0.00    +0.000 OA
ENDROOT
BRANCH   1  18
ATOM     15  C   UNL     1      -0.110  10.337  21.705  0.00  0.00    +0.000 A 
ATOM     16  C   UNL     1       0.643   9.321  22.296  0.00  0.00    +0.000 A 
ATOM     17  C   UNL     1       1.403   8.446  21.509  0.00  0.00    +0.000 A 
ATOM     18  C   UNL     1       1.404   8.570  20.114  0.00  0.00    +0.000 A 
ATOM     19  C   UNL     1       0.605   9.557  19.528  0.00  0.00    +0.000 A 
ATOM     20  C   UNL     1      -0.137  10.443  20.317  0.00  0.00    +0.000 A 
BRANCH  15  22
ATOM     21  C   UNL     1      -0.716  12.537  22.325  0.00  0.00    +0.000 C 
ATOM     22  O   UNL     1      -0.806  11.136  22.569  0.00  0.00    +0.000 OA
ENDBRANCH  15  22
ENDBRANCH   1  18
BRANCH  12  23
ATOM     23  C   UNL     1       3.058   3.928  19.005  0.00  0.00    +0.000 A 
ATOM     24  C   UNL     1       4.117   3.322  19.693  0.00  0.00    +0.000 A 
ATOM     25  C   UNL     1       4.161   1.937  19.848  0.00  0.00    +0.000 A 
ATOM     26  C   UNL     1       3.136   1.146  19.335  0.00  0.00    +0.000 A 
ATOM     27  C   UNL     1       2.078   1.736  18.646  0.00  0.00    +0.000 A 
ATOM     28  C   UNL     1       2.046   3.119  18.465  0.00  0.00    +0.000 A 
ENDBRANCH  12  23
TORSDOF 3
ENDMDL
MODEL 5
REMARK VINA RESULT:      -6.8      2.728      7.372
REMARK  Name = 
REMARK  6 active torsions:
REMARK  status: ('A' for Active; 'I' for Inactive)
REMARK    1  A    between atoms: C_1  and  O_2
REMARK    2  A    between atoms: O_2  and  C_3
REMARK    3  A    between atoms: C_6  and  C_7
REMARK    4  A    between atoms: N_13  and  C_14
REMARK    5  A    between atoms: N_13  and  C_15
REMARK    6  A    between atoms: N_18  and  C_19
REMARK                            x       y       z     vdW  Elec       q    Type
REMARK                         _______ _______ _______ _____ _____    ______ ____
ROOT
ATOM      1  C   UNL     1       4.354   5.756  16.643  0.00  0.00    +0.000 A 
ATOM      2  N   UNL     1       4.117   7.038  16.717  0.00  0.00    +0.000 NA
ATOM      3  C   UNL     1       3.260   7.503  17.724  0.00  0.00    +0.000 A 
ATOM      4  C   UNL     1       2.933   8.835  17.825  0.00  0.00    +0.000 A 
ATOM      5  N   UNL     1       2.112   9.353  18.765  0.00  0.00    +0.000 NA
ATOM      6  C   UNL     1       1.570   8.511  19.655  0.00  0.00    +0.000 A 
ATOM      7  N   UNL     1       0.736   8.996  20.632  0.00  0.00    +0.000 N 
ATOM      8  C   UNL     1       0.470  10.414  20.753  0.00  0.00    +0.000 C 
ATOM      9  C   UNL     1       0.131   8.108  21.607  0.00  0.00    +0.000 C 
ATOM     10  N   UNL     1       1.825   7.199  19.620  0.00  0.00    +0.000 NA
ATOM     11  C   UNL     1       2.666   6.706  18.682  0.00  0.00    +0.000 A 
ATOM     12  N   UNL     1       2.926   5.312  18.629  0.00  0.00    +0.000 N 
ATOM     13  C   UNL     1       3.747   4.765  17.651  0.00  0.00    +0.000 A 
ATOM     14  O   UNL     1       4.059   3.580  17.586  0.00  0.00    +0.000 OA
ENDROOT
BRANCH   1  18
ATOM     15  C   UNL     1       6.956   4.326  13.513  0.00  0.00    +0.000 A 
ATOM     16  C   UNL     1       5.599   4.000  13.521  0.00  0.00    +0.000 A 
ATOM     17  C   UNL     1       4.760   4.462  14.543  0.00  0.00    +0.000 A 
ATOM     18  C   UNL     1       5.276   5.249  15.581  0.00  0.00    +0.000 A 
ATOM     19  C   UNL     1       6.647   5.526  15.593  0.00  0.00    +0.000 A 
ATOM     20  C   UNL     1       7.480   5.080  14.561  0.00  0.00    +0.000 A 
BRANCH  15  22
ATOM     21  C   UNL     1       6.973   2.955  11.587  0.00  0.00    +0.000 C 
ATOM     22  O   UNL     1       7.678   3.827  12.466  0.00  0.00    +0.000 OA
ENDBRANCH  15  22
ENDBRANCH   1  18
BRANCH  12  23
ATOM     23  C   UNL     1       2.352   4.477  19.626  0.00  0.00    +0.000 A 
ATOM     24  C   UNL     1       2.964   4.326  20.878  0.00  0.00    +0.000 A 
ATOM     25  C   UNL     1       2.417   3.471  21.835  0.00  0.00    +0.000 A 
ATOM     26  C   UNL     1       1.242   2.777  21.559  0.00  0.00    +0.000 A 
ATOM     27  C   UNL     1       0.625   2.916  20.317  0.00  0.00    +0.000 A 
ATOM     28  C   UNL     1       1.185   3.749  19.347  0.00  0.00    +0.000 A 
ENDBRANCH  12  23
TORSDOF 3
ENDMDL
MODEL 6
REMARK VINA RESULT:      -6.8      4.107      9.369
REMARK  Name = 
REMARK  6 active torsions:
REMARK  status: ('A' for Active; 'I' for Inactive)
REMARK    1  A    between atoms: C_1  and  O_2
REMARK    2  A    between atoms: O_2  and  C_3
REMARK    3  A    between atoms: C_6  and  C_7
REMARK    4  A    between atoms: N_13  and  C_14
REMARK    5  A    between atoms: N_13  and  C_15
REMARK    6  A    between atoms: N_18  and  C_19
REMARK                            x       y       z     vdW  Elec       q    Type
REMARK                         _______ _______ _______ _____ _____    ______ ____
ROOT
ATOM      1  C   UNL     1       1.083  10.439  19.165  0.00  0.00    +0.000 A 
ATOM      2  N   UNL     1       1.813  11.455  18.789  0.00  0.00    +0.000 NA
ATOM      3  C   UNL     1       1.270  12.743  18.896  0.00  0.00    +0.000 A 
ATOM      4  C   UNL     1       1.970  13.849  18.471  0.00  0.00    +0.000 A 
ATOM      5  N   UNL     1       1.509  15.118  18.540  0.00  0.00    +0.000 NA
ATOM      6  C   UNL     1       0.285  15.314  19.045  0.00  0.00    +0.000 A 
ATOM      7  N   UNL     1      -0.219  16.588  19.141  0.00  0.00    +0.000 N 
ATOM      8  C   UNL     1       0.572  17.736  18.751  0.00  0.00    +0.000 C 
ATOM      9  C   UNL     1      -1.544  16.829  19.680  0.00  0.00    +0.000 C 
ATOM     10  N   UNL     1      -0.467  14.292  19.469  0.00  0.00    +0.000 NA
ATOM     11  C   UNL     1       0.022  13.032  19.410  0.00  0.00    +0.000 A 
ATOM     12  N   UNL     1      -0.778  11.942  19.840  0.00  0.00    +0.000 N 
ATOM     13  C   UNL     1      -0.326  10.631  19.751  0.00  0.00    +0.000 A 
ATOM     14  O   UNL     1      -0.942   9.652  20.159  0.00  0.00    +0.000 OA
ENDROOT
BRANCH   1  18
ATOM     15  C   UNL     1       2.654   6.428  18.921  0.00  0.00    +0.000 A 
ATOM     16  C   UNL     1       2.154   6.930  20.125  0.00  0.00    +0.000 A 
ATOM     17  C   UNL     1       1.651   8.236  20.199  0.00  0.00    +0.000 A 
ATOM     18  C   UNL     1       1.655   9.061  19.067  0.00  0.00    +0.000 A 
ATOM     19  C   UNL     1       2.206   8.567  17.880  0.00  0.00    +0.000 A 
ATOM     20  C   UNL     1       2.690   7.256  17.802  0.00  0.00    +0.000 A 
BRANCH  15  22
ATOM     21  C   UNL     1       4.513   4.990  19.176  0.00  0.00    +0.000 C 
ATOM     22  O   UNL     1       3.113   5.141  18.962  0.00  0.00    +0.000 OA
ENDBRANCH  15  22
ENDBRANCH   1  18
BRANCH  12  23
ATOM     23  C   UNL     1      -2.053  12.219  20.405  0.00  0.00    +0.000 A 
ATOM     24  C   UNL     1      -3.189  12.340  19.593  0.00  0.00    +0.000 A 
ATOM     25  C   UNL     1      -4.428  12.655  20.150  0.00  0.00    +0.000 A 
ATOM     26  C   UNL     1      -4.548  12.831  21.526  0.00  0.00    +0.000 A 
ATOM     27  C   UNL     1      -3.425  12.716  22.345  0.00  0.00    +0.000 A 
ATOM     28  C   UNL     1      -2.179  12.429  21.787  0.00  0.00    +0.000 A 
ENDBRANCH  12  23
TORSDOF 3
ENDMDL
MODEL 7
REMARK VINA RESULT:      -6.8      1.705      2.102
REMARK  Name = 
REMARK  6 active torsions:
REMARK  status: ('A' for Active; 'I' for Inactive)
REMARK    1  A    between atoms: C_1  and  O_2
REMARK    2  A    between atoms: O_2  and  C_3
REMARK    3  A    between atoms: C_6  and  C_7
REMARK    4  A    between atoms: N_13  and  C_14
REMARK    5  A    between atoms: N_13  and  C_15
REMARK    6  A    between atoms: N_18  and  C_19
REMARK                            x       y       z     vdW  Elec       q    Type
REMARK                         _______ _______ _______ _____ _____    ______ ____
ROOT
ATOM      1  C   UNL     1       1.627   8.708  19.265  0.00  0.00    +0.000 A 
ATOM      2  N   UNL     1       2.450   8.811  18.257  0.00  0.00    +0.000 NA
ATOM      3  C   UNL     1       3.149   7.668  17.845  0.00  0.00    +0.000 A 
ATOM      4  C   UNL     1       4.065   7.722  16.821  0.00  0.00    +0.000 A 
ATOM      5  N   UNL     1       4.778   6.664  16.374  0.00  0.00    +0.000 NA
ATOM      6  C   UNL     1       4.588   5.483  16.976  0.00  0.00    +0.000 A 
ATOM      7  N   UNL     1       5.285   4.380  16.549  0.00  0.00    +0.000 N 
ATOM      8  C   UNL     1       6.189   4.457  15.421  0.00  0.00    +0.000 C 
ATOM      9  C   UNL     1       5.103   3.088  17.184  0.00  0.00    +0.000 C 
ATOM     10  N   UNL     1       3.725   5.346  17.988  0.00  0.00    +0.000 NA
ATOM     11  C   UNL     1       3.008   6.415  18.405  0.00  0.00    +0.000 A 
ATOM     12  N   UNL     1       2.104   6.279  19.491  0.00  0.00    +0.000 N 
ATOM     13  C   UNL     1       1.386   7.365  19.976  0.00  0.00    +0.000 A 
ATOM     14  O   UNL     1       0.548   7.303  20.869  0.00  0.00    +0.000 OA
ENDROOT
BRANCH   1  18
ATOM     15  C   UNL     1      -0.650  12.152  20.516  0.00  0.00    +0.000 A 
ATOM     16  C   UNL     1      -0.851  11.579  19.260  0.00  0.00    +0.000 A 
ATOM     17  C   UNL     1      -0.105  10.464  18.857  0.00  0.00    +0.000 A 
ATOM     18  C   UNL     1       0.865   9.917  19.706  0.00  0.00    +0.000 A 
ATOM     19  C   UNL     1       1.097  10.532  20.942  0.00  0.00    +0.000 A 
ATOM     20  C   UNL     1       0.337  11.633  21.351  0.00  0.00    +0.000 A 
BRANCH  15  22
ATOM     21  C   UNL     1      -2.837  13.045  20.618  0.00  0.00    +0.000 C 
ATOM     22  O   UNL     1      -1.437  13.231  20.807  0.00  0.00    +0.000 OA
ENDBRANCH  15  22
ENDBRANCH   1  18
BRANCH  12  23
ATOM     23  C   UNL     1       1.918   4.990  20.061  0.00  0.00    +0.000 A 
ATOM     24  C   UNL     1       1.108   4.035  19.431  0.00  0.00    +0.000 A 
ATOM     25  C   UNL     1       0.896   2.788  20.019  0.00  0.00    +0.000 A 
ATOM     26  C   UNL     1       1.509   2.476  21.230  0.00  0.00    +0.000 A 
ATOM     27  C   UNL     1       2.314   3.417  21.868  0.00  0.00    +0.000 A 
ATOM     28  C   UNL     1       2.505   4.676  21.296  0.00  0.00    +0.000 A 
ENDBRANCH  12  23
TORSDOF 3
ENDMDL
MODEL 8
REMARK VINA RESULT:      -6.8      1.627      2.208
REMARK  Name = 
REMARK  6 active torsions:
REMARK  status: ('A' for Active; 'I' for Inactive)
REMARK    1  A    between atoms: C_1  and  O_2
REMARK    2  A    between atoms: O_2  and  C_3
REMARK    3  A    between atoms: C_6  and  C_7
REMARK    4  A    between atoms: N_13  and  C_14
REMARK    5  A    between atoms: N_13  and  C_15
REMARK    6  A    between atoms: N_18  and  C_19
REMARK                            x       y       z     vdW  Elec       q    Type
REMARK                         _______ _______ _______ _____ _____    ______ ____
ROOT
ATOM      1  C   UNL     1       1.513   8.692  19.424  0.00  0.00    +0.000 A 
ATOM      2  N   UNL     1       2.327   8.840  18.414  0.00  0.00    +0.000 NA
ATOM      3  C   UNL     1       3.040   7.722  17.959  0.00  0.00    +0.000 A 
ATOM      4  C   UNL     1       3.948   7.823  16.931  0.00  0.00    +0.000 A 
ATOM      5  N   UNL     1       4.672   6.791  16.444  0.00  0.00    +0.000 NA
ATOM      6  C   UNL     1       4.503   5.588  17.008  0.00  0.00    +0.000 A 
ATOM      7  N   UNL     1       5.213   4.510  16.539  0.00  0.00    +0.000 N 
ATOM      8  C   UNL     1       6.107   4.637  15.409  0.00  0.00    +0.000 C 
ATOM      9  C   UNL     1       5.054   3.195  17.133  0.00  0.00    +0.000 C 
ATOM     10  N   UNL     1       3.650   5.404  18.021  0.00  0.00    +0.000 NA
ATOM     11  C   UNL     1       2.921   6.448  18.478  0.00  0.00    +0.000 A 
ATOM     12  N   UNL     1       2.027   6.264  19.566  0.00  0.00    +0.000 N 
ATOM     13  C   UNL     1       1.297   7.323  20.091  0.00  0.00    +0.000 A 
ATOM     14  O   UNL     1       0.467   7.219  20.988  0.00  0.00    +0.000 OA
ENDROOT
BRANCH   1  18
ATOM     15  C   UNL     1      -0.643  12.144  20.855  0.00  0.00    +0.000 A 
ATOM     16  C   UNL     1       0.255  11.466  21.682  0.00  0.00    +0.000 A 
ATOM     17  C   UNL     1       0.948  10.342  21.214  0.00  0.00    +0.000 A 
ATOM     18  C   UNL     1       0.738   9.875  19.911  0.00  0.00    +0.000 A 
ATOM     19  C   UNL     1      -0.202  10.528  19.107  0.00  0.00    +0.000 A 
ATOM     20  C   UNL     1      -0.879  11.662  19.570  0.00  0.00    +0.000 A 
BRANCH  15  22
ATOM     21  C   UNL     1      -1.251  13.281  22.837  0.00  0.00    +0.000 C 
ATOM     22  O   UNL     1      -1.257  13.230  21.413  0.00  0.00    +0.000 OA
ENDBRANCH  15  22
ENDBRANCH   1  18
BRANCH  12  23
ATOM     23  C   UNL     1       1.864   4.954  20.093  0.00  0.00    +0.000 A 
ATOM     24  C   UNL     1       1.058   4.011  19.441  0.00  0.00    +0.000 A 
ATOM     25  C   UNL     1       0.868   2.742  19.988  0.00  0.00    +0.000 A 
ATOM     26  C   UNL     1       1.499   2.397  21.181  0.00  0.00    +0.000 A 
ATOM     27  C   UNL     1       2.301   3.326  21.841  0.00  0.00    +0.000 A 
ATOM     28  C   UNL     1       2.470   4.606  21.310  0.00  0.00    +0.000 A 
ENDBRANCH  12  23
TORSDOF 3
ENDMDL
MODEL 9
REMARK VINA RESULT:      -6.7      3.736      8.978
REMARK  Name = 
REMARK  6 active torsions:
REMARK  status: ('A' for Active; 'I' for Inactive)
REMARK    1  A    between atoms: C_1  and  O_2
REMARK    2  A    between atoms: O_2  and  C_3
REMARK    3  A    between atoms: C_6  and  C_7
REMARK    4  A    between atoms: N_13  and  C_14
REMARK    5  A    between atoms: N_13  and  C_15
REMARK    6  A    between atoms: N_18  and  C_19
REMARK                            x       y       z     vdW  Elec       q    Type
REMARK                         _______ _______ _______ _____ _____    ______ ____
ROOT
ATOM      1  C   UNL     1       1.282   9.945  19.333  0.00  0.00    +0.000 A 
ATOM      2  N   UNL     1       2.007  10.861  18.749  0.00  0.00    +0.000 NA
ATOM      3  C   UNL     1       1.595  12.198  18.841  0.00  0.00    +0.000 A 
ATOM      4  C   UNL     1       2.288  13.203  18.208  0.00  0.00    +0.000 A 
ATOM      5  N   UNL     1       1.948  14.510  18.249  0.00  0.00    +0.000 NA
ATOM      6  C   UNL     1       0.856  14.852  18.944  0.00  0.00    +0.000 A 
ATOM      7  N   UNL     1       0.478  16.170  19.018  0.00  0.00    +0.000 N 
ATOM      8  C   UNL     1       1.271  17.211  18.399  0.00  0.00    +0.000 C 
ATOM      9  C   UNL     1      -0.703  16.569  19.760  0.00  0.00    +0.000 C 
ATOM     10  N   UNL     1       0.117  13.935  19.578  0.00  0.00    +0.000 NA
ATOM     11  C   UNL     1       0.488  12.634  19.540  0.00  0.00    +0.000 A 
ATOM     12  N   UNL     1      -0.302  11.654  20.196  0.00  0.00    +0.000 N 
ATOM     13  C   UNL     1       0.023  10.305  20.140  0.00  0.00    +0.000 A 
ATOM     14  O   UNL     1      -0.582   9.417  20.732  0.00  0.00    +0.000 OA
ENDROOT
BRANCH   1  18
ATOM     15  C   UNL     1       2.619   5.852  19.063  0.00  0.00    +0.000 A 
ATOM     16  C   UNL     1       2.626   6.683  17.942  0.00  0.00    +0.000 A 
ATOM     17  C   UNL     1       2.185   8.009  18.034  0.00  0.00    +0.000 A 
ATOM     18  C   UNL     1       1.718   8.516  19.253  0.00  0.00    +0.000 A 
ATOM     19  C   UNL     1       1.664   7.660  20.359  0.00  0.00    +0.000 A 
ATOM     20  C   UNL     1       2.123   6.341  20.269  0.00  0.00    +0.000 A 
BRANCH  15  22
ATOM     21  C   UNL     1       2.959   4.085  17.529  0.00  0.00    +0.000 C 
ATOM     22  O   UNL     1       3.076   4.580  18.860  0.00  0.00    +0.000 OA
ENDBRANCH  15  22
ENDBRANCH   1  18
BRANCH  12  23
ATOM     23  C   UNL     1      -1.427  12.086  20.951  0.00  0.00    +0.000 A 
ATOM     24  C   UNL     1      -1.354  12.212  22.345  0.00  0.00    +0.000 A 
ATOM     25  C   UNL     1      -2.474  12.593  23.082  0.00  0.00    +0.000 A 
ATOM     26  C   UNL     1      -3.673  12.875  22.431  0.00  0.00    +0.000 A 
ATOM     27  C   UNL     1      -3.760  12.751  21.045  0.00  0.00    +0.000 A 
ATOM     28  C   UNL     1      -2.648  12.342  20.308  0.00  0.00    +0.000 A 
ENDBRANCH  12  23
TORSDOF 3
ENDMDL
