MODEL 1
REMARK VINA RESULT:      -7.1      0.000      0.000
REMARK  Name = 
REMARK  11 active torsions:
REMARK  status: ('A' for Active; 'I' for Inactive)
REMARK    1  A    between atoms: C_1  and  C_2
REMARK    2  A    between atoms: C_2  and  C_3
REMARK    3  A    between atoms: C_6  and  C_7
REMARK    4  A    between atoms: N_9  and  N_10
REMARK    5  A    between atoms: N_10  and  C_21
REMARK    6  A    between atoms: C_11  and  C_13
REMARK    7  A    between atoms: C_16  and  C_17
REMARK    8  A    between atoms: C_17  and  C_18
REMARK    9  A    between atoms: C_21  and  C_22
REMARK   10  A    between atoms: C_21  and  C_23
REMARK   11  A    between atoms: C_21  and  C_24
REMARK                            x       y       z     vdW  Elec       q    Type
REMARK                         _______ _______ _______ _____ _____    ______ ____
ROOT
ATOM      1  N   UNL     1       5.314   5.773  16.959  0.00  0.00    +0.000 N 
ATOM      2  C   UNL     1       5.261   6.015  15.549  0.00  0.00    +0.000 C 
ATOM      3  O   UNL     1       4.634   6.984  15.100  0.00  0.00    +0.000 OA
ENDROOT
BRANCH   2   4
ATOM      4  C   UNL     1       5.875   5.102  14.492  0.00  0.00    +0.000 A 
ATOM      5  C   UNL     1       5.213   4.071  13.836  0.00  0.00    +0.000 A 
ATOM      6  C   UNL     1       5.728   3.353  12.779  0.00  0.00    +0.000 A 
ATOM      7  C   UNL     1       6.997   3.625  12.316  0.00  0.00    +0.000 A 
ATOM      8  C   UNL     1       7.747   4.608  12.971  0.00  0.00    +0.000 A 
ATOM      9  C   UNL     1       7.191   5.338  14.049  0.00  0.00    +0.000 A 
BRANCH   7  10
ATOM     10  C   UNL     1       7.435   2.891  11.077  0.00  0.00    +0.000 C 
ATOM     11  C   UNL     1       6.889   1.467  11.074  0.00  0.00    +0.000 C 
ENDBRANCH   7  10
ENDBRANCH   2   4
BRANCH   1  14
ATOM     12  C   UNL     1       3.212   6.501  18.032  0.00  0.00    +0.000 C 
ATOM     13  O   UNL     1       2.573   5.491  17.752  0.00  0.00    +0.000 OA
ATOM     14  N   UNL     1       4.568   6.682  17.785  0.00  0.00    +0.000 N 
ATOM     15  H   UNL     1       4.994   7.585  17.927  0.00  0.00    +0.000 HD
BRANCH  12  19
ATOM     16  C   UNL     1       0.837   9.730  19.655  0.00  0.00    +0.000 A 
ATOM     17  C   UNL     1       1.326   9.823  18.350  0.00  0.00    +0.000 A 
ATOM     18  C   UNL     1       2.163   8.824  17.821  0.00  0.00    +0.000 A 
ATOM     19  C   UNL     1       2.488   7.698  18.588  0.00  0.00    +0.000 A 
ATOM     20  C   UNL     1       2.049   7.643  19.919  0.00  0.00    +0.000 A 
ATOM     21  C   UNL     1       1.228   8.646  20.446  0.00  0.00    +0.000 A 
BRANCH  16  23
ATOM     22  C   UNL     1      -1.190  11.099  19.109  0.00  0.00    +0.000 C 
ATOM     23  C   UNL     1      -0.159  10.743  20.176  0.00  0.00    +0.000 C 
ENDBRANCH  16  23
ENDBRANCH  12  19
ENDBRANCH   1  14
BRANCH   1  24
ATOM     24  C   UNL     1       5.759   4.552  17.722  0.00  0.00    +0.000 C 
ATOM     25  C   UNL     1       5.597   4.606  19.272  0.00  0.00    +0.000 C 
ATOM     26  C   UNL     1       4.834   3.355  17.338  0.00  0.00    +0.000 C 
ATOM     27  C   UNL     1       7.299   4.382  17.572  0.00  0.00    +0.000 C 
ENDBRANCH   1  24
TORSDOF 6
ENDMDL
MODEL 2
REMARK VINA RESULT:      -6.9      4.264     11.673
REMARK  Name = 
REMARK  11 active torsions:
REMARK  status: ('A' for Active; 'I' for Inactive)
REMARK    1  A    between atoms: C_1  and  C_2
REMARK    2  A    between atoms: C_2  and  C_3
REMARK    3  A    between atoms: C_6  and  C_7
REMARK    4  A    between atoms: N_9  and  N_10
REMARK    5  A    between atoms: N_10  and  C_21
REMARK    6  A    between atoms: C_11  and  C_13
REMARK    7  A    between atoms: C_16  and  C_17
REMARK    8  A    between atoms: C_17  and  C_18
REMARK    9  A    between atoms: C_21  and  C_22
REMARK   10  A    between atoms: C_21  and  C_23
REMARK   11  A    between atoms: C_21  and  C_24
REMARK                            x       y       z     vdW  Elec       q    Type
REMARK                         _______ _______ _______ _____ _____    ______ ____
ROOT
ATOM      1  N   UNL     1      -0.561  10.484  21.085  0.00  0.00    +0.000 N 
ATOM      2  C   UNL     1      -1.006  10.680  22.432  0.00  0.00    +0.000 C 
ATOM      3  O   UNL     1      -0.931   9.763  23.260  0.00  0.00    +0.000 OA
ENDROOT
BRANCH   2   4
ATOM      4  C   UNL     1      -1.664  11.957  22.946  0.00  0.00    +0.000 A 
ATOM      5  C   UNL     1      -2.979  12.066  23.381  0.00  0.00    +0.000 A 
ATOM      6  C   UNL     1      -3.518  13.182  23.984  0.00  0.00    +0.000 A 
ATOM      7  C   UNL     1      -2.742  14.305  24.172  0.00  0.00    +0.000 A 
ATOM      8  C   UNL     1      -1.424  14.289  23.700  0.00  0.00    +0.000 A 
ATOM      9  C   UNL     1      -0.892  13.127  23.092  0.00  0.00    +0.000 A 
BRANCH   7  10
ATOM     10  C   UNL     1      -3.362  15.431  24.954  0.00  0.00    +0.000 C 
ATOM     11  C   UNL     1      -2.704  16.760  24.598  0.00  0.00    +0.000 C 
ENDBRANCH   7  10
ENDBRANCH   2   4
BRANCH   1  14
ATOM     12  C   UNL     1       1.220   8.772  21.052  0.00  0.00    +0.000 C 
ATOM     13  O   UNL     1       2.007   9.399  21.756  0.00  0.00    +0.000 OA
ATOM     14  N   UNL     1      -0.082   9.168  20.764  0.00  0.00    +0.000 N 
ATOM     15  H   UNL     1      -0.624   8.666  20.078  0.00  0.00    +0.000 HD
BRANCH  12  19
ATOM     16  C   UNL     1       2.320   5.269  18.769  0.00  0.00    +0.000 A 
ATOM     17  C   UNL     1       1.824   5.118  20.066  0.00  0.00    +0.000 A 
ATOM     18  C   UNL     1       1.529   6.240  20.859  0.00  0.00    +0.000 A 
ATOM     19  C   UNL     1       1.694   7.532  20.343  0.00  0.00    +0.000 A 
ATOM     20  C   UNL     1       2.254   7.678  19.066  0.00  0.00    +0.000 A 
ATOM     21  C   UNL     1       2.560   6.558  18.285  0.00  0.00    +0.000 A 
BRANCH  16  23
ATOM     22  C   UNL     1       3.833   4.160  17.108  0.00  0.00    +0.000 C 
ATOM     23  C   UNL     1       2.520   4.063  17.878  0.00  0.00    +0.000 C 
ENDBRANCH  16  23
ENDBRANCH  12  19
ENDBRANCH   1  14
BRANCH   1  24
ATOM     24  C   UNL     1      -0.790  11.318  19.852  0.00  0.00    +0.000 C 
ATOM     25  C   UNL     1      -2.108  12.151  19.812  0.00  0.00    +0.000 C 
ATOM     26  C   UNL     1       0.302  12.433  19.791  0.00  0.00    +0.000 C 
ATOM     27  C   UNL     1      -0.970  10.384  18.621  0.00  0.00    +0.000 C 
ENDBRANCH   1  24
TORSDOF 6
ENDMDL
MODEL 3
REMARK VINA RESULT:      -6.9      4.919     11.812
REMARK  Name = 
REMARK  11 active torsions:
REMARK  status: ('A' for Active; 'I' for Inactive)
REMARK    1  A    between atoms: C_1  and  C_2
REMARK    2  A    between atoms: C_2  and  C_3
REMARK    3  A    between atoms: C_6  and  C_7
REMARK    4  A    between atoms: N_9  and  N_10
REMARK    5  A    between atoms: N_10  and  C_21
REMARK    6  A    between atoms: C_11  and  C_13
REMARK    7  A    between atoms: C_16  and  C_17
REMARK    8  A    between atoms: C_17  and  C_18
REMARK    9  A    between atoms: C_21  and  C_22
REMARK   10  A    between atoms: C_21  and  C_23
REMARK   11  A    between atoms: C_21  and  C_24
REMARK                            x       y       z     vdW  Elec       q    Type
REMARK                         _______ _______ _______ _____ _____    ______ ____
ROOT
ATOM      1  N   UNL     1      -0.545  10.806  21.128  0.00  0.00    +0.000 N 
ATOM      2  C   UNL     1      -1.050  10.959  22.459  0.00  0.00    +0.000 C 
ATOM      3  O   UNL     1      -1.044  10.005  23.249  0.00  0.00    +0.000 OA
ENDROOT
BRANCH   2   4
ATOM      4  C   UNL     1      -1.696  12.233  22.997  0.00  0.00    +0.000 A 
ATOM      5  C   UNL     1      -3.017  12.352  23.411  0.00  0.00    +0.000 A 
ATOM      6  C   UNL     1      -3.548  13.461  24.035  0.00  0.00    +0.000 A 
ATOM      7  C   UNL     1      -2.756  14.564  24.267  0.00  0.00    +0.000 A 
ATOM      8  C   UNL     1      -1.431  14.539  23.818  0.00  0.00    +0.000 A 
ATOM      9  C   UNL     1      -0.907  13.384  23.188  0.00  0.00    +0.000 A 
BRANCH   7  10
ATOM     10  C   UNL     1      -3.372  15.679  25.069  0.00  0.00    +0.000 C 
ATOM     11  C   UNL     1      -4.714  16.092  24.474  0.00  0.00    +0.000 C 
ENDBRANCH   7  10
ENDBRANCH   2   4
BRANCH   1  14
ATOM     12  C   UNL     1       1.179   9.036  21.123  0.00  0.00    +0.000 C 
ATOM     13  O   UNL     1       1.938   9.601  21.905  0.00  0.00    +0.000 OA
ATOM     14  N   UNL     1      -0.088   9.491  20.773  0.00  0.00    +0.000 N 
ATOM     15  H   UNL     1      -0.600   9.042  20.030  0.00  0.00    +0.000 HD
BRANCH  12  19
ATOM     16  C   UNL     1       2.277   5.579  18.771  0.00  0.00    +0.000 A 
ATOM     17  C   UNL     1       1.863   5.408  20.094  0.00  0.00    +0.000 A 
ATOM     18  C   UNL     1       1.572   6.518  20.906  0.00  0.00    +0.000 A 
ATOM     19  C   UNL     1       1.658   7.815  20.384  0.00  0.00    +0.000 A 
ATOM     20  C   UNL     1       2.137   7.982  19.077  0.00  0.00    +0.000 A 
ATOM     21  C   UNL     1       2.439   6.876  18.277  0.00  0.00    +0.000 A 
BRANCH  16  23
ATOM     22  C   UNL     1       3.324   3.313  18.544  0.00  0.00    +0.000 C 
ATOM     23  C   UNL     1       2.470   4.381  17.867  0.00  0.00    +0.000 C 
ENDBRANCH  16  23
ENDBRANCH  12  19
ENDBRANCH   1  14
BRANCH   1  24
ATOM     24  C   UNL     1      -0.686  11.700  19.924  0.00  0.00    +0.000 C 
ATOM     25  C   UNL     1      -0.441  11.035  18.534  0.00  0.00    +0.000 C 
ATOM     26  C   UNL     1      -2.176  12.156  19.809  0.00  0.00    +0.000 C 
ATOM     27  C   UNL     1       0.426  12.788  19.953  0.00  0.00    +0.000 C 
ENDBRANCH   1  24
TORSDOF 6
ENDMDL
MODEL 4
REMARK VINA RESULT:      -6.8      4.835     12.213
REMARK  Name = 
REMARK  11 active torsions:
REMARK  status: ('A' for Active; 'I' for Inactive)
REMARK    1  A    between atoms: C_1  and  C_2
REMARK    2  A    between atoms: C_2  and  C_3
REMARK    3  A    between atoms: C_6  and  C_7
REMARK    4  A    between atoms: N_9  and  N_10
REMARK    5  A    between atoms: N_10  and  C_21
REMARK    6  A    between atoms: C_11  and  C_13
REMARK    7  A    between atoms: C_16  and  C_17
REMARK    8  A    between atoms: C_17  and  C_18
REMARK    9  A    between atoms: C_21  and  C_22
REMARK   10  A    between atoms: C_21  and  C_23
REMARK   11  A    between atoms: C_21  and  C_24
REMARK                            x       y       z     vdW  Elec       q    Type
REMARK                         _______ _______ _______ _____ _____    ______ ____
ROOT
ATOM      1  N   UNL     1      -1.020  11.321  21.256  0.00  0.00    +0.000 N 
ATOM      2  C   UNL     1      -1.378  11.381  22.641  0.00  0.00    +0.000 C 
ATOM      3  O   UNL     1      -1.181  10.410  23.385  0.00  0.00    +0.000 OA
ENDROOT
BRANCH   2   4
ATOM      4  C   UNL     1      -2.083  12.562  23.301  0.00  0.00    +0.000 A 
ATOM      5  C   UNL     1      -1.522  13.815  23.518  0.00  0.00    +0.000 A 
ATOM      6  C   UNL     1      -2.212  14.917  23.974  0.00  0.00    +0.000 A 
ATOM      7  C   UNL     1      -3.553  14.815  24.272  0.00  0.00    +0.000 A 
ATOM      8  C   UNL     1      -4.170  13.565  24.138  0.00  0.00    +0.000 A 
ATOM      9  C   UNL     1      -3.441  12.451  23.659  0.00  0.00    +0.000 A 
BRANCH   7  10
ATOM     10  C   UNL     1      -4.263  16.090  24.636  0.00  0.00    +0.000 C 
ATOM     11  C   UNL     1      -3.275  17.122  25.172  0.00  0.00    +0.000 C 
ENDBRANCH   7  10
ENDBRANCH   2   4
BRANCH   1  14
ATOM     12  C   UNL     1       0.874   9.769  20.931  0.00  0.00    +0.000 C 
ATOM     13  O   UNL     1       1.678  10.414  21.599  0.00  0.00    +0.000 OA
ATOM     14  N   UNL     1      -0.477  10.073  20.797  0.00  0.00    +0.000 N 
ATOM     15  H   UNL     1      -1.045   9.573  20.132  0.00  0.00    +0.000 HD
BRANCH  12  19
ATOM     16  C   UNL     1       2.604   6.490  18.707  0.00  0.00    +0.000 A 
ATOM     17  C   UNL     1       2.288   7.679  18.046  0.00  0.00    +0.000 A 
ATOM     18  C   UNL     1       1.656   8.735  18.726  0.00  0.00    +0.000 A 
ATOM     19  C   UNL     1       1.367   8.621  20.092  0.00  0.00    +0.000 A 
ATOM     20  C   UNL     1       1.627   7.401  20.734  0.00  0.00    +0.000 A 
ATOM     21  C   UNL     1       2.243   6.348  20.050  0.00  0.00    +0.000 A 
BRANCH  16  23
ATOM     22  C   UNL     1       2.493   4.240  17.609  0.00  0.00    +0.000 C 
ATOM     23  C   UNL     1       3.393   5.407  18.003  0.00  0.00    +0.000 C 
ENDBRANCH  16  23
ENDBRANCH  12  19
ENDBRANCH   1  14
BRANCH   1  24
ATOM     24  C   UNL     1      -1.394  12.229  20.114  0.00  0.00    +0.000 C 
ATOM     25  C   UNL     1      -2.780  12.937  20.215  0.00  0.00    +0.000 C 
ATOM     26  C   UNL     1      -0.409  13.441  20.092  0.00  0.00    +0.000 C 
ATOM     27  C   UNL     1      -1.566  11.385  18.817  0.00  0.00    +0.000 C 
ENDBRANCH   1  24
TORSDOF 6
ENDMDL
MODEL 5
REMARK VINA RESULT:      -6.8      4.458     11.819
REMARK  Name = 
REMARK  11 active torsions:
REMARK  status: ('A' for Active; 'I' for Inactive)
REMARK    1  A    between atoms: C_1  and  C_2
REMARK    2  A    between atoms: C_2  and  C_3
REMARK    3  A    between atoms: C_6  and  C_7
REMARK    4  A    between atoms: N_9  and  N_10
REMARK    5  A    between atoms: N_10  and  C_21
REMARK    6  A    between atoms: C_11  and  C_13
REMARK    7  A    between atoms: C_16  and  C_17
REMARK    8  A    between atoms: C_17  and  C_18
REMARK    9  A    between atoms: C_21  and  C_22
REMARK   10  A    between atoms: C_21  and  C_23
REMARK   11  A    between atoms: C_21  and  C_24
REMARK                            x       y       z     vdW  Elec       q    Type
REMARK                         _______ _______ _______ _____ _____    ______ ____
ROOT
ATOM      1  N   UNL     1      -0.683  10.734  21.134  0.00  0.00    +0.000 N 
ATOM      2  C   UNL     1      -1.094  10.930  22.491  0.00  0.00    +0.000 C 
ATOM      3  O   UNL     1      -0.996  10.013  23.318  0.00  0.00    +0.000 OA
ENDROOT
BRANCH   2   4
ATOM      4  C   UNL     1      -1.743  12.205  23.021  0.00  0.00    +0.000 A 
ATOM      5  C   UNL     1      -3.060  12.320  23.450  0.00  0.00    +0.000 A 
ATOM      6  C   UNL     1      -3.591  13.432  24.066  0.00  0.00    +0.000 A 
ATOM      7  C   UNL     1      -2.806  14.545  24.276  0.00  0.00    +0.000 A 
ATOM      8  C   UNL     1      -1.486  14.524  23.810  0.00  0.00    +0.000 A 
ATOM      9  C   UNL     1      -0.961  13.365  23.188  0.00  0.00    +0.000 A 
BRANCH   7  10
ATOM     10  C   UNL     1      -3.420  15.665  25.071  0.00  0.00    +0.000 C 
ATOM     11  C   UNL     1      -4.689  16.172  24.394  0.00  0.00    +0.000 C 
ENDBRANCH   7  10
ENDBRANCH   2   4
BRANCH   1  14
ATOM     12  C   UNL     1       1.085   9.009  21.108  0.00  0.00    +0.000 C 
ATOM     13  O   UNL     1       1.864   9.619  21.836  0.00  0.00    +0.000 OA
ATOM     14  N   UNL     1      -0.208   9.419  20.801  0.00  0.00    +0.000 N 
ATOM     15  H   UNL     1      -0.740   8.932  20.097  0.00  0.00    +0.000 HD
BRANCH  12  19
ATOM     16  C   UNL     1       2.711   5.433  19.301  0.00  0.00    +0.000 A 
ATOM     17  C   UNL     1       2.795   6.649  18.619  0.00  0.00    +0.000 A 
ATOM     18  C   UNL     1       2.210   7.813  19.147  0.00  0.00    +0.000 A 
ATOM     19  C   UNL     1       1.563   7.776  20.389  0.00  0.00    +0.000 A 
ATOM     20  C   UNL     1       1.425   6.540  21.037  0.00  0.00    +0.000 A 
ATOM     21  C   UNL     1       1.996   5.381  20.501  0.00  0.00    +0.000 A 
BRANCH  16  23
ATOM     22  C   UNL     1       3.405   4.145  17.266  0.00  0.00    +0.000 C 
ATOM     23  C   UNL     1       3.446   4.213  18.790  0.00  0.00    +0.000 C 
ENDBRANCH  16  23
ENDBRANCH  12  19
ENDBRANCH   1  14
BRANCH   1  24
ATOM     24  C   UNL     1      -0.944  11.567  19.906  0.00  0.00    +0.000 C 
ATOM     25  C   UNL     1      -2.291  12.352  19.875  0.00  0.00    +0.000 C 
ATOM     26  C   UNL     1       0.107  12.720  19.849  0.00  0.00    +0.000 C 
ATOM     27  C   UNL     1      -1.095  10.634  18.670  0.00  0.00    +0.000 C 
ENDBRANCH   1  24
TORSDOF 6
ENDMDL
MODEL 6
REMARK VINA RESULT:      -6.7      4.290     11.544
REMARK  Name = 
REMARK  11 active torsions:
REMARK  status: ('A' for Active; 'I' for Inactive)
REMARK    1  A    between atoms: C_1  and  C_2
REMARK    2  A    between atoms: C_2  and  C_3
REMARK    3  A    between atoms: C_6  and  C_7
REMARK    4  A    between atoms: N_9  and  N_10
REMARK    5  A    between atoms: N_10  and  C_21
REMARK    6  A    between atoms: C_11  and  C_13
REMARK    7  A    between atoms: C_16  and  C_17
REMARK    8  A    between atoms: C_17  and  C_18
REMARK    9  A    between atoms: C_21  and  C_22
REMARK   10  A    between atoms: C_21  and  C_23
REMARK   11  A    between atoms: C_21  and  C_24
REMARK                            x       y       z     vdW  Elec       q    Type
REMARK                         _______ _______ _______ _____ _____    ______ ____
ROOT
ATOM      1  N   UNL     1      -0.379  10.527  21.132  0.00  0.00    +0.000 N 
ATOM      2  C   UNL     1      -0.873  10.719  22.462  0.00  0.00    +0.000 C 
ATOM      3  O   UNL     1      -0.900   9.778  23.266  0.00  0.00    +0.000 OA
ENDROOT
BRANCH   2   4
ATOM      4  C   UNL     1      -1.465  12.026  22.983  0.00  0.00    +0.000 A 
ATOM      5  C   UNL     1      -0.797  13.243  23.047  0.00  0.00    +0.000 A 
ATOM      6  C   UNL     1      -1.385  14.445  23.375  0.00  0.00    +0.000 A 
ATOM      7  C   UNL     1      -2.725  14.493  23.690  0.00  0.00    +0.000 A 
ATOM      8  C   UNL     1      -3.447  13.294  23.709  0.00  0.00    +0.000 A 
ATOM      9  C   UNL     1      -2.822  12.073  23.360  0.00  0.00    +0.000 A 
BRANCH   7  10
ATOM     10  C   UNL     1      -3.319  15.859  23.906  0.00  0.00    +0.000 C 
ATOM     11  C   UNL     1      -3.601  16.540  22.571  0.00  0.00    +0.000 C 
ENDBRANCH   7  10
ENDBRANCH   2   4
BRANCH   1  14
ATOM     12  C   UNL     1       1.270   8.689  21.151  0.00  0.00    +0.000 C 
ATOM     13  O   UNL     1       2.053   9.233  21.924  0.00  0.00    +0.000 OA
ATOM     14  N   UNL     1       0.023   9.189  20.795  0.00  0.00    +0.000 N 
ATOM     15  H   UNL     1      -0.508   8.751  20.059  0.00  0.00    +0.000 HD
BRANCH  12  19
ATOM     16  C   UNL     1       2.238   5.168  18.835  0.00  0.00    +0.000 A 
ATOM     17  C   UNL     1       1.748   5.024  20.134  0.00  0.00    +0.000 A 
ATOM     18  C   UNL     1       1.496   6.150  20.938  0.00  0.00    +0.000 A 
ATOM     19  C   UNL     1       1.699   7.439  20.429  0.00  0.00    +0.000 A 
ATOM     20  C   UNL     1       2.253   7.575  19.148  0.00  0.00    +0.000 A 
ATOM     21  C   UNL     1       2.516   6.452  18.357  0.00  0.00    +0.000 A 
BRANCH  16  23
ATOM     22  C   UNL     1       3.670   4.053  17.106  0.00  0.00    +0.000 C 
ATOM     23  C   UNL     1       2.392   3.962  17.934  0.00  0.00    +0.000 C 
ENDBRANCH  16  23
ENDBRANCH  12  19
ENDBRANCH   1  14
BRANCH   1  24
ATOM     24  C   UNL     1      -0.491  11.407  19.914  0.00  0.00    +0.000 C 
ATOM     25  C   UNL     1      -0.276  10.712  18.535  0.00  0.00    +0.000 C 
ATOM     26  C   UNL     1      -1.962  11.918  19.797  0.00  0.00    +0.000 C 
ATOM     27  C   UNL     1       0.662  12.452  19.924  0.00  0.00    +0.000 C 
ENDBRANCH   1  24
TORSDOF 6
ENDMDL
MODEL 7
REMARK VINA RESULT:      -6.7      0.414      1.037
REMARK  Name = 
REMARK  11 active torsions:
REMARK  status: ('A' for Active; 'I' for Inactive)
REMARK    1  A    between atoms: C_1  and  C_2
REMARK    2  A    between atoms: C_2  and  C_3
REMARK    3  A    between atoms: C_6  and  C_7
REMARK    4  A    between atoms: N_9  and  N_10
REMARK    5  A    between atoms: N_10  and  C_21
REMARK    6  A    between atoms: C_11  and  C_13
REMARK    7  A    between atoms: C_16  and  C_17
REMARK    8  A    between atoms: C_17  and  C_18
REMARK    9  A    between atoms: C_21  and  C_22
REMARK   10  A    between atoms: C_21  and  C_23
REMARK   11  A    between atoms: C_21  and  C_24
REMARK                            x       y       z     vdW  Elec       q    Type
REMARK                         _______ _______ _______ _____ _____    ______ ____
ROOT
ATOM      1  N   UNL     1       5.255   5.840  17.018  0.00  0.00    +0.000 N 
ATOM      2  C   UNL     1       5.221   6.073  15.606  0.00  0.00    +0.000 C 
ATOM      3  O   UNL     1       4.574   7.021  15.139  0.00  0.00    +0.000 OA
ENDROOT
BRANCH   2   4
ATOM      4  C   UNL     1       5.882   5.173  14.566  0.00  0.00    +0.000 A 
ATOM      5  C   UNL     1       5.283   4.081  13.951  0.00  0.00    +0.000 A 
ATOM      6  C   UNL     1       5.833   3.368  12.906  0.00  0.00    +0.000 A 
ATOM      7  C   UNL     1       7.073   3.713  12.415  0.00  0.00    +0.000 A 
ATOM      8  C   UNL     1       7.762   4.765  13.030  0.00  0.00    +0.000 A 
ATOM      9  C   UNL     1       7.172   5.486  14.095  0.00  0.00    +0.000 A 
BRANCH   7  10
ATOM     10  C   UNL     1       7.544   2.975  11.192  0.00  0.00    +0.000 C 
ATOM     11  C   UNL     1       6.864   1.613  11.091  0.00  0.00    +0.000 C 
ENDBRANCH   7  10
ENDBRANCH   2   4
BRANCH   1  14
ATOM     12  C   UNL     1       3.114   6.506  18.054  0.00  0.00    +0.000 C 
ATOM     13  O   UNL     1       2.514   5.472  17.775  0.00  0.00    +0.000 OA
ATOM     14  N   UNL     1       4.467   6.731  17.824  0.00  0.00    +0.000 N 
ATOM     15  H   UNL     1       4.859   7.649  17.964  0.00  0.00    +0.000 HD
BRANCH  12  19
ATOM     16  C   UNL     1       1.202  10.080  19.561  0.00  0.00    +0.000 A 
ATOM     17  C   UNL     1       1.339   8.968  20.395  0.00  0.00    +0.000 A 
ATOM     18  C   UNL     1       1.887   7.768  19.911  0.00  0.00    +0.000 A 
ATOM     19  C   UNL     1       2.342   7.683  18.588  0.00  0.00    +0.000 A 
ATOM     20  C   UNL     1       2.142   8.780  17.739  0.00  0.00    +0.000 A 
ATOM     21  C   UNL     1       1.582   9.968  18.220  0.00  0.00    +0.000 A 
BRANCH  16  23
ATOM     22  C   UNL     1      -0.686  11.286  20.683  0.00  0.00    +0.000 C 
ATOM     23  C   UNL     1       0.726  11.404  20.118  0.00  0.00    +0.000 C 
ENDBRANCH  16  23
ENDBRANCH  12  19
ENDBRANCH   1  14
BRANCH   1  24
ATOM     24  C   UNL     1       5.722   4.638  17.796  0.00  0.00    +0.000 C 
ATOM     25  C   UNL     1       5.529   4.695  19.343  0.00  0.00    +0.000 C 
ATOM     26  C   UNL     1       4.841   3.411  17.402  0.00  0.00    +0.000 C 
ATOM     27  C   UNL     1       7.269   4.513  17.676  0.00  0.00    +0.000 C 
ENDBRANCH   1  24
TORSDOF 6
ENDMDL
MODEL 8
REMARK VINA RESULT:      -6.7      4.844     12.362
REMARK  Name = 
REMARK  11 active torsions:
REMARK  status: ('A' for Active; 'I' for Inactive)
REMARK    1  A    between atoms: C_1  and  C_2
REMARK    2  A    between atoms: C_2  and  C_3
REMARK    3  A    between atoms: C_6  and  C_7
REMARK    4  A    between atoms: N_9  and  N_10
REMARK    5  A    between atoms: N_10  and  C_21
REMARK    6  A    between atoms: C_11  and  C_13
REMARK    7  A    between atoms: C_16  and  C_17
REMARK    8  A    between atoms: C_17  and  C_18
REMARK    9  A    between atoms: C_21  and  C_22
REMARK   10  A    between atoms: C_21  and  C_23
REMARK   11  A    between atoms: C_21  and  C_24
REMARK                            x       y       z     vdW  Elec       q    Type
REMARK                         _______ _______ _______ _____ _____    ______ ____
ROOT
ATOM      1  N   UNL     1      -1.224  11.599  21.170  0.00  0.00    +0.000 N 
ATOM      2  C   UNL     1      -1.404  11.783  22.578  0.00  0.00    +0.000 C 
ATOM      3  O   UNL     1      -0.871  11.012  23.388  0.00  0.00    +0.000 OA
ENDROOT
BRANCH   2   4
ATOM      4  C   UNL     1      -2.296  12.853  23.202  0.00  0.00    +0.000 A 
ATOM      5  C   UNL     1      -1.995  14.208  23.276  0.00  0.00    +0.000 A 
ATOM      6  C   UNL     1      -2.870  15.184  23.702  0.00  0.00    +0.000 A 
ATOM      7  C   UNL     1      -4.138  14.840  24.115  0.00  0.00    +0.000 A 
ATOM      8  C   UNL     1      -4.488  13.484  24.128  0.00  0.00    +0.000 A 
ATOM      9  C   UNL     1      -3.575  12.502  23.677  0.00  0.00    +0.000 A 
BRANCH   7  10
ATOM     10  C   UNL     1      -5.074  15.973  24.439  0.00  0.00    +0.000 C 
ATOM     11  C   UNL     1      -4.451  17.311  24.055  0.00  0.00    +0.000 C 
ENDBRANCH   7  10
ENDBRANCH   2   4
BRANCH   1  14
ATOM     12  C   UNL     1       0.822  10.595  20.218  0.00  0.00    +0.000 C 
ATOM     13  O   UNL     1       1.467  11.639  20.180  0.00  0.00    +0.000 OA
ATOM     14  N   UNL     1      -0.444  10.458  20.777  0.00  0.00    +0.000 N 
ATOM     15  H   UNL     1      -0.961   9.601  20.657  0.00  0.00    +0.000 HD
BRANCH  12  19
ATOM     16  C   UNL     1       2.663   7.113  18.433  0.00  0.00    +0.000 A 
ATOM     17  C   UNL     1       2.448   8.253  17.656  0.00  0.00    +0.000 A 
ATOM     18  C   UNL     1       1.784   9.372  18.187  0.00  0.00    +0.000 A 
ATOM     19  C   UNL     1       1.361   9.373  19.522  0.00  0.00    +0.000 A 
ATOM     20  C   UNL     1       1.521   8.203  20.278  0.00  0.00    +0.000 A 
ATOM     21  C   UNL     1       2.169   7.085  19.741  0.00  0.00    +0.000 A 
BRANCH  16  23
ATOM     22  C   UNL     1       4.554   6.453  16.927  0.00  0.00    +0.000 C 
ATOM     23  C   UNL     1       3.483   5.961  17.896  0.00  0.00    +0.000 C 
ENDBRANCH  16  23
ENDBRANCH  12  19
ENDBRANCH   1  14
BRANCH   1  24
ATOM     24  C   UNL     1      -1.961  12.208  20.005  0.00  0.00    +0.000 C 
ATOM     25  C   UNL     1      -3.469  12.532  20.232  0.00  0.00    +0.000 C 
ATOM     26  C   UNL     1      -1.363  13.621  19.716  0.00  0.00    +0.000 C 
ATOM     27  C   UNL     1      -2.032  11.176  18.842  0.00  0.00    +0.000 C 
ENDBRANCH   1  24
TORSDOF 6
ENDMDL
MODEL 9
REMARK VINA RESULT:      -6.6      4.292     11.723
REMARK  Name = 
REMARK  11 active torsions:
REMARK  status: ('A' for Active; 'I' for Inactive)
REMARK    1  A    between atoms: C_1  and  C_2
REMARK    2  A    between atoms: C_2  and  C_3
REMARK    3  A    between atoms: C_6  and  C_7
REMARK    4  A    between atoms: N_9  and  N_10
REMARK    5  A    between atoms: N_10  and  C_21
REMARK    6  A    between atoms: C_11  and  C_13
REMARK    7  A    between atoms: C_16  and  C_17
REMARK    8  A    between atoms: C_17  and  C_18
REMARK    9  A    between atoms: C_21  and  C_22
REMARK   10  A    between atoms: C_21  and  C_23
REMARK   11  A    between atoms: C_21  and  C_24
REMARK                            x       y       z     vdW  Elec       q    Type
REMARK                         _______ _______ _______ _____ _____    ______ ____
ROOT
ATOM      1  N   UNL     1      -0.465  10.667  21.117  0.00  0.00    +0.000 N 
ATOM      2  C   UNL     1      -0.954  10.821  22.454  0.00  0.00    +0.000 C 
ATOM      3  O   UNL     1      -0.944   9.865  23.241  0.00  0.00    +0.000 OA
ENDROOT
BRANCH   2   4
ATOM      4  C   UNL     1      -1.584  12.098  23.002  0.00  0.00    +0.000 A 
ATOM      5  C   UNL     1      -0.936  13.320  23.139  0.00  0.00    +0.000 A 
ATOM      6  C   UNL     1      -1.553  14.501  23.491  0.00  0.00    +0.000 A 
ATOM      7  C   UNL     1      -2.905  14.519  23.756  0.00  0.00    +0.000 A 
ATOM      8  C   UNL     1      -3.610  13.311  23.699  0.00  0.00    +0.000 A 
ATOM      9  C   UNL     1      -2.955  12.113  23.327  0.00  0.00    +0.000 A 
BRANCH   7  10
ATOM     10  C   UNL     1      -3.527  15.867  24.002  0.00  0.00    +0.000 C 
ATOM     11  C   UNL     1      -2.862  16.558  25.188  0.00  0.00    +0.000 C 
ENDBRANCH   7  10
ENDBRANCH   2   4
BRANCH   1  14
ATOM     12  C   UNL     1       1.217   8.859  21.150  0.00  0.00    +0.000 C 
ATOM     13  O   UNL     1       1.953   9.389  21.977  0.00  0.00    +0.000 OA
ATOM     14  N   UNL     1      -0.022   9.350  20.753  0.00  0.00    +0.000 N 
ATOM     15  H   UNL     1      -0.510   8.928  19.978  0.00  0.00    +0.000 HD
BRANCH  12  19
ATOM     16  C   UNL     1       2.332   5.415  18.786  0.00  0.00    +0.000 A 
ATOM     17  C   UNL     1       1.920   5.238  20.108  0.00  0.00    +0.000 A 
ATOM     18  C   UNL     1       1.624   6.344  20.924  0.00  0.00    +0.000 A 
ATOM     19  C   UNL     1       1.702   7.643  20.406  0.00  0.00    +0.000 A 
ATOM     20  C   UNL     1       2.179   7.817  19.099  0.00  0.00    +0.000 A 
ATOM     21  C   UNL     1       2.486   6.715  18.295  0.00  0.00    +0.000 A 
BRANCH  16  23
ATOM     22  C   UNL     1       3.912   4.247  17.230  0.00  0.00    +0.000 C 
ATOM     23  C   UNL     1       2.530   4.221  17.877  0.00  0.00    +0.000 C 
ENDBRANCH  16  23
ENDBRANCH  12  19
ENDBRANCH   1  14
BRANCH   1  24
ATOM     24  C   UNL     1      -0.615  11.565  19.916  0.00  0.00    +0.000 C 
ATOM     25  C   UNL     1       0.231  12.875  19.920  0.00  0.00    +0.000 C 
ATOM     26  C   UNL     1      -0.058  10.820  18.661  0.00  0.00    +0.000 C 
ATOM     27  C   UNL     1      -2.066  12.125  19.867  0.00  0.00    +0.000 C 
ENDBRANCH   1  24
TORSDOF 6
ENDMDL
