MODEL 1
REMARK VINA RESULT:      -9.0      0.000      0.000
REMARK  Name = 
REMARK  14 active torsions:
REMARK  status: ('A' for Active; 'I' for Inactive)
REMARK    1  A    between atoms: C_1  and  C_2
REMARK    2  A    between atoms: C_2  and  O_3
REMARK    3  A    between atoms: O_3  and  C_4
REMARK    4  A    between atoms: C_4  and  C_6
REMARK    5  A    between atoms: C_9  and  C_10
REMARK    6  A    between atoms: C_10  and  C_11
REMARK    7  A    between atoms: C_10  and  C_13
REMARK    8  A    between atoms: C_10  and  N_15
REMARK    9  A    between atoms: C_11  and  C_12
REMARK   10  A    between atoms: C_13  and  C_14
REMARK   11  A    between atoms: C_16  and  C_18
REMARK   12  A    between atoms: C_24  and  C_25
REMARK   13  A    between atoms: C_32  and  C_33
REMARK   14  A    between atoms: C_32  and  C_34
REMARK                            x       y       z     vdW  Elec       q    Type
REMARK                         _______ _______ _______ _____ _____    ______ ____
ROOT
ATOM      1  N   UNL     1       1.866   6.115  20.586  0.00  0.00    +0.000 N 
ATOM      2  C   UNL     1       1.712   7.280  19.855  0.00  0.00    +0.000 C 
ATOM      3  O   UNL     1       1.840   7.320  18.634  0.00  0.00    +0.000 OA
ATOM      4  H   UNL     1       1.569   6.124  21.549  0.00  0.00    +0.000 HD
ENDROOT
BRANCH   2   5
ATOM      5  C   UNL     1       1.384   8.470  20.625  0.00  0.00    +0.000 A 
ATOM      6  C   UNL     1       1.897   8.964  21.849  0.00  0.00    +0.000 A 
ATOM      7  N   UNL     1       1.337  10.117  22.241  0.00  0.00    +0.000 NA
ATOM      8  N   UNL     1       0.476  10.396  21.242  0.00  0.00    +0.000 N 
ATOM      9  C   UNL     1       0.440   9.421  20.271  0.00  0.00    +0.000 A 
ATOM     10  N   UNL     1      -0.407   9.529  19.215  0.00  0.00    +0.000 N 
ATOM     11  C   UNL     1      -1.551  10.425  19.332  0.00  0.00    +0.000 C 
ATOM     12  C   UNL     1      -1.037  11.776  19.859  0.00  0.00    +0.000 C 
ATOM     13  C   UNL     1      -0.377  11.594  21.258  0.00  0.00    +0.000 C 
ATOM     14  C   UNL     1       0.455  12.850  21.573  0.00  0.00    +0.000 C 
ATOM     15  C   UNL     1      -1.472  11.442  22.334  0.00  0.00    +0.000 C 
ATOM     16  H   UNL     1      -0.529   8.722  18.599  0.00  0.00    +0.000 HD
BRANCH  11  17
ATOM     17  C   UNL     1      -2.280  10.536  18.009  0.00  0.00    +0.000 A 
ATOM     18  C   UNL     1      -3.412  11.364  17.909  0.00  0.00    +0.000 A 
ATOM     19  C   UNL     1      -4.110  11.480  16.706  0.00  0.00    +0.000 A 
ATOM     20  C   UNL     1      -3.686  10.769  15.587  0.00  0.00    +0.000 A 
ATOM     21  C   UNL     1      -2.566   9.943  15.669  0.00  0.00    +0.000 A 
ATOM     22  C   UNL     1      -1.867   9.826  16.873  0.00  0.00    +0.000 A 
ENDBRANCH  11  17
ENDBRANCH   2   5
BRANCH   1  23
ATOM     23  C   UNL     1       2.225   4.800  20.005  0.00  0.00    +0.000 C 
BRANCH  23  27
ATOM     24  C   UNL     1       5.742   5.019  17.370  0.00  0.00    +0.000 A 
ATOM     25  C   UNL     1       4.516   4.562  16.886  0.00  0.00    +0.000 A 
ATOM     26  C   UNL     1       3.391   4.521  17.717  0.00  0.00    +0.000 A 
ATOM     27  C   UNL     1       3.458   4.937  19.062  0.00  0.00    +0.000 A 
ATOM     28  C   UNL     1       4.710   5.390  19.530  0.00  0.00    +0.000 A 
ATOM     29  C   UNL     1       5.836   5.445  18.697  0.00  0.00    +0.000 A 
BRANCH  24  30
ATOM     30  C   UNL     1       6.922   4.919  16.474  0.00  0.00    +0.000 C 
ATOM     31  O   UNL     1       7.991   4.449  16.830  0.00  0.00    +0.000 OA
BRANCH  30  32
ATOM     32  O   UNL     1       6.682   5.543  15.297  0.00  0.00    +0.000 OA
BRANCH  32  34
ATOM     33  C   UNL     1       6.094   3.923  13.653  0.00  0.00    +0.000 C 
ATOM     34  C   UNL     1       7.187   4.859  14.141  0.00  0.00    +0.000 C 
ENDBRANCH  32  34
ENDBRANCH  30  32
ENDBRANCH  24  30
ENDBRANCH  23  27
BRANCH  23  35
ATOM     35  C   UNL     1       1.042   4.234  19.144  0.00  0.00    +0.000 C 
ATOM     36  C   UNL     1       0.581   2.819  19.501  0.00  0.00    +0.000 C 
ENDBRANCH  23  35
BRANCH  23  37
ATOM     37  C   UNL     1       2.508   3.792  21.172  0.00  0.00    +0.000 C 
ATOM     38  C   UNL     1       3.416   2.621  20.798  0.00  0.00    +0.000 C 
ENDBRANCH  23  37
ENDBRANCH   1  23
TORSDOF 9
ENDMDL
MODEL 2
REMARK VINA RESULT:      -8.5      2.513      9.427
REMARK  Name = 
REMARK  14 active torsions:
REMARK  status: ('A' for Active; 'I' for Inactive)
REMARK    1  A    between atoms: C_1  and  C_2
REMARK    2  A    between atoms: C_2  and  O_3
REMARK    3  A    between atoms: O_3  and  C_4
REMARK    4  A    between atoms: C_4  and  C_6
REMARK    5  A    between atoms: C_9  and  C_10
REMARK    6  A    between atoms: C_10  and  C_11
REMARK    7  A    between atoms: C_10  and  C_13
REMARK    8  A    between atoms: C_10  and  N_15
REMARK    9  A    between atoms: C_11  and  C_12
REMARK   10  A    between atoms: C_13  and  C_14
REMARK   11  A    between atoms: C_16  and  C_18
REMARK   12  A    between atoms: C_24  and  C_25
REMARK   13  A    between atoms: C_32  and  C_33
REMARK   14  A    between atoms: C_32  and  C_34
REMARK                            x       y       z     vdW  Elec       q    Type
REMARK                         _______ _______ _______ _____ _____    ______ ____
ROOT
ATOM      1  N   UNL     1       1.185   8.672  19.672  0.00  0.00    +0.000 N 
ATOM      2  C   UNL     1       2.132   7.889  19.034  0.00  0.00    +0.000 C 
ATOM      3  O   UNL     1       2.909   8.338  18.196  0.00  0.00    +0.000 OA
ATOM      4  H   UNL     1       0.712   8.278  20.469  0.00  0.00    +0.000 HD
ENDROOT
BRANCH   2   5
ATOM      5  C   UNL     1       2.155   6.486  19.420  0.00  0.00    +0.000 A 
ATOM      6  C   UNL     1       1.464   5.784  20.438  0.00  0.00    +0.000 A 
ATOM      7  N   UNL     1       1.749   4.475  20.476  0.00  0.00    +0.000 NA
ATOM      8  N   UNL     1       2.605   4.316  19.447  0.00  0.00    +0.000 N 
ATOM      9  C   UNL     1       2.909   5.497  18.810  0.00  0.00    +0.000 A 
ATOM     10  N   UNL     1       3.792   5.518  17.778  0.00  0.00    +0.000 N 
ATOM     11  C   UNL     1       4.720   4.402  17.635  0.00  0.00    +0.000 C 
ATOM     12  C   UNL     1       3.905   3.100  17.733  0.00  0.00    +0.000 C 
ATOM     13  C   UNL     1       3.195   3.010  19.116  0.00  0.00    +0.000 C 
ATOM     14  C   UNL     1       2.104   1.926  19.036  0.00  0.00    +0.000 C 
ATOM     15  C   UNL     1       4.215   2.606  20.200  0.00  0.00    +0.000 C 
ATOM     16  H   UNL     1       4.120   6.422  17.431  0.00  0.00    +0.000 HD
BRANCH  11  17
ATOM     17  C   UNL     1       5.506   4.522  16.347  0.00  0.00    +0.000 A 
ATOM     18  C   UNL     1       4.953   4.033  15.150  0.00  0.00    +0.000 A 
ATOM     19  C   UNL     1       5.657   4.122  13.948  0.00  0.00    +0.000 A 
ATOM     20  C   UNL     1       6.922   4.701  13.926  0.00  0.00    +0.000 A 
ATOM     21  C   UNL     1       7.485   5.191  15.104  0.00  0.00    +0.000 A 
ATOM     22  C   UNL     1       6.782   5.102  16.308  0.00  0.00    +0.000 A 
ENDBRANCH  11  17
ENDBRANCH   2   5
BRANCH   1  23
ATOM     23  C   UNL     1       0.975  10.115  19.410  0.00  0.00    +0.000 C 
BRANCH  23  27
ATOM     24  C   UNL     1      -2.950  10.920  17.591  0.00  0.00    +0.000 A 
ATOM     25  C   UNL     1      -2.085   9.979  17.033  0.00  0.00    +0.000 A 
ATOM     26  C   UNL     1      -0.850   9.703  17.629  0.00  0.00    +0.000 A 
ATOM     27  C   UNL     1      -0.441  10.361  18.806  0.00  0.00    +0.000 A 
ATOM     28  C   UNL     1      -1.330  11.313  19.349  0.00  0.00    +0.000 A 
ATOM     29  C   UNL     1      -2.574  11.583  18.762  0.00  0.00    +0.000 A 
BRANCH  24  30
ATOM     30  C   UNL     1      -4.187  11.256  16.841  0.00  0.00    +0.000 C 
ATOM     31  O   UNL     1      -4.391  10.889  15.694  0.00  0.00    +0.000 OA
BRANCH  30  32
ATOM     32  O   UNL     1      -4.953  12.120  17.547  0.00  0.00    +0.000 OA
BRANCH  32  34
ATOM     33  C   UNL     1      -6.526  10.716  18.653  0.00  0.00    +0.000 C 
ATOM     34  C   UNL     1      -6.349  11.788  17.591  0.00  0.00    +0.000 C 
ENDBRANCH  32  34
ENDBRANCH  30  32
ENDBRANCH  24  30
ENDBRANCH  23  27
BRANCH  23  35
ATOM     35  C   UNL     1       2.023  10.648  18.372  0.00  0.00    +0.000 C 
ATOM     36  C   UNL     1       2.206  12.166  18.335  0.00  0.00    +0.000 C 
ENDBRANCH  23  35
BRANCH  23  37
ATOM     37  C   UNL     1       1.168  10.905  20.751  0.00  0.00    +0.000 C 
ATOM     38  C   UNL     1       0.762  10.138  22.009  0.00  0.00    +0.000 C 
ENDBRANCH  23  37
ENDBRANCH   1  23
TORSDOF 9
ENDMDL
MODEL 3
REMARK VINA RESULT:      -8.3      0.756      1.129
REMARK  Name = 
REMARK  14 active torsions:
REMARK  status: ('A' for Active; 'I' for Inactive)
REMARK    1  A    between atoms: C_1  and  C_2
REMARK    2  A    between atoms: C_2  and  O_3
REMARK    3  A    between atoms: O_3  and  C_4
REMARK    4  A    between atoms: C_4  and  C_6
REMARK    5  A    between atoms: C_9  and  C_10
REMARK    6  A    between atoms: C_10  and  C_11
REMARK    7  A    between atoms: C_10  and  C_13
REMARK    8  A    between atoms: C_10  and  N_15
REMARK    9  A    between atoms: C_11  and  C_12
REMARK   10  A    between atoms: C_13  and  C_14
REMARK   11  A    between atoms: C_16  and  C_18
REMARK   12  A    between atoms: C_24  and  C_25
REMARK   13  A    between atoms: C_32  and  C_33
REMARK   14  A    between atoms: C_32  and  C_34
REMARK                            x       y       z     vdW  Elec       q    Type
REMARK                         _______ _______ _______ _____ _____    ______ ____
ROOT
ATOM      1  N   UNL     1       1.976   6.347  20.619  0.00  0.00    +0.000 N 
ATOM      2  C   UNL     1       1.628   7.465  19.880  0.00  0.00    +0.000 C 
ATOM      3  O   UNL     1       1.618   7.473  18.652  0.00  0.00    +0.000 OA
ATOM      4  H   UNL     1       1.786   6.362  21.608  0.00  0.00    +0.000 HD
ENDROOT
BRANCH   2   5
ATOM      5  C   UNL     1       1.268   8.645  20.652  0.00  0.00    +0.000 A 
ATOM      6  C   UNL     1       1.759   9.143  21.883  0.00  0.00    +0.000 A 
ATOM      7  N   UNL     1       1.171  10.283  22.275  0.00  0.00    +0.000 NA
ATOM      8  N   UNL     1       0.315  10.549  21.268  0.00  0.00    +0.000 N 
ATOM      9  C   UNL     1       0.308   9.578  20.293  0.00  0.00    +0.000 A 
ATOM     10  N   UNL     1      -0.531   9.672  19.229  0.00  0.00    +0.000 N 
ATOM     11  C   UNL     1      -1.695  10.544  19.339  0.00  0.00    +0.000 C 
ATOM     12  C   UNL     1      -1.214  11.903  19.877  0.00  0.00    +0.000 C 
ATOM     13  C   UNL     1      -0.563  11.729  21.282  0.00  0.00    +0.000 C 
ATOM     14  C   UNL     1       0.240  13.001  21.610  0.00  0.00    +0.000 C 
ATOM     15  C   UNL     1      -1.665  11.550  22.347  0.00  0.00    +0.000 C 
ATOM     16  H   UNL     1      -0.630   8.866  18.609  0.00  0.00    +0.000 HD
BRANCH  11  17
ATOM     17  C   UNL     1      -2.414  10.645  18.010  0.00  0.00    +0.000 A 
ATOM     18  C   UNL     1      -3.558  11.455  17.901  0.00  0.00    +0.000 A 
ATOM     19  C   UNL     1      -4.247  11.562  16.693  0.00  0.00    +0.000 A 
ATOM     20  C   UNL     1      -3.800  10.861  15.576  0.00  0.00    +0.000 A 
ATOM     21  C   UNL     1      -2.667  10.053  15.666  0.00  0.00    +0.000 A 
ATOM     22  C   UNL     1      -1.978   9.945  16.876  0.00  0.00    +0.000 A 
ENDBRANCH  11  17
ENDBRANCH   2   5
BRANCH   1  23
ATOM     23  C   UNL     1       2.400   5.053  20.034  0.00  0.00    +0.000 C 
BRANCH  23  27
ATOM     24  C   UNL     1       5.989   5.737  17.583  0.00  0.00    +0.000 A 
ATOM     25  C   UNL     1       6.074   5.054  18.796  0.00  0.00    +0.000 A 
ATOM     26  C   UNL     1       4.927   4.811  19.560  0.00  0.00    +0.000 A 
ATOM     27  C   UNL     1       3.657   5.246  19.132  0.00  0.00    +0.000 A 
ATOM     28  C   UNL     1       3.597   5.940  17.905  0.00  0.00    +0.000 A 
ATOM     29  C   UNL     1       4.741   6.173  17.131  0.00  0.00    +0.000 A 
BRANCH  24  30
ATOM     30  C   UNL     1       7.257   6.070  16.885  0.00  0.00    +0.000 C 
ATOM     31  O   UNL     1       7.683   7.210  16.785  0.00  0.00    +0.000 OA
BRANCH  30  32
ATOM     32  O   UNL     1       7.766   4.976  16.272  0.00  0.00    +0.000 OA
BRANCH  32  34
ATOM     33  C   UNL     1       7.012   4.839  14.018  0.00  0.00    +0.000 C 
ATOM     34  C   UNL     1       6.844   4.280  15.421  0.00  0.00    +0.000 C 
ENDBRANCH  32  34
ENDBRANCH  30  32
ENDBRANCH  24  30
ENDBRANCH  23  27
BRANCH  23  35
ATOM     35  C   UNL     1       1.265   4.457  19.130  0.00  0.00    +0.000 C 
ATOM     36  C   UNL     1       1.688   3.315  18.203  0.00  0.00    +0.000 C 
ENDBRANCH  23  35
BRANCH  23  37
ATOM     37  C   UNL     1       2.682   4.041  21.198  0.00  0.00    +0.000 C 
ATOM     38  C   UNL     1       1.493   3.161  21.581  0.00  0.00    +0.000 C 
ENDBRANCH  23  37
ENDBRANCH   1  23
TORSDOF 9
ENDMDL
MODEL 4
REMARK VINA RESULT:      -8.2      0.977      1.421
REMARK  Name = 
REMARK  14 active torsions:
REMARK  status: ('A' for Active; 'I' for Inactive)
REMARK    1  A    between atoms: C_1  and  C_2
REMARK    2  A    between atoms: C_2  and  O_3
REMARK    3  A    between atoms: O_3  and  C_4
REMARK    4  A    between atoms: C_4  and  C_6
REMARK    5  A    between atoms: C_9  and  C_10
REMARK    6  A    between atoms: C_10  and  C_11
REMARK    7  A    between atoms: C_10  and  C_13
REMARK    8  A    between atoms: C_10  and  N_15
REMARK    9  A    between atoms: C_11  and  C_12
REMARK   10  A    between atoms: C_13  and  C_14
REMARK   11  A    between atoms: C_16  and  C_18
REMARK   12  A    between atoms: C_24  and  C_25
REMARK   13  A    between atoms: C_32  and  C_33
REMARK   14  A    between atoms: C_32  and  C_34
REMARK                            x       y       z     vdW  Elec       q    Type
REMARK                         _______ _______ _______ _____ _____    ______ ____
ROOT
ATOM      1  N   UNL     1       1.843   6.230  20.520  0.00  0.00    +0.000 N 
ATOM      2  C   UNL     1       1.744   7.452  19.876  0.00  0.00    +0.000 C 
ATOM      3  O   UNL     1       1.992   7.595  18.682  0.00  0.00    +0.000 OA
ATOM      4  H   UNL     1       1.452   6.156  21.445  0.00  0.00    +0.000 HD
ENDROOT
BRANCH   2   5
ATOM      5  C   UNL     1       1.321   8.570  20.705  0.00  0.00    +0.000 A 
ATOM      6  C   UNL     1       1.763   9.012  21.976  0.00  0.00    +0.000 A 
ATOM      7  N   UNL     1       1.123  10.105  22.417  0.00  0.00    +0.000 NA
ATOM      8  N   UNL     1       0.282  10.398  21.406  0.00  0.00    +0.000 N 
ATOM      9  C   UNL     1       0.336   9.487  20.376  0.00  0.00    +0.000 A 
ATOM     10  N   UNL     1      -0.481   9.613  19.298  0.00  0.00    +0.000 N 
ATOM     11  C   UNL     1      -1.679  10.435  19.427  0.00  0.00    +0.000 C 
ATOM     12  C   UNL     1      -1.263  11.776  20.056  0.00  0.00    +0.000 C 
ATOM     13  C   UNL     1      -0.640  11.542  21.464  0.00  0.00    +0.000 C 
ATOM     14  C   UNL     1       0.106  12.821  21.887  0.00  0.00    +0.000 C 
ATOM     15  C   UNL     1      -1.759  11.261  22.488  0.00  0.00    +0.000 C 
ATOM     16  H   UNL     1      -0.535   8.842  18.630  0.00  0.00    +0.000 HD
BRANCH  11  17
ATOM     17  C   UNL     1      -2.369  10.588  18.088  0.00  0.00    +0.000 A 
ATOM     18  C   UNL     1      -3.528  11.378  17.992  0.00  0.00    +0.000 A 
ATOM     19  C   UNL     1      -4.190  11.532  16.774  0.00  0.00    +0.000 A 
ATOM     20  C   UNL     1      -3.703  10.897  15.634  0.00  0.00    +0.000 A 
ATOM     21  C   UNL     1      -2.555  10.110  15.712  0.00  0.00    +0.000 A 
ATOM     22  C   UNL     1      -1.891   9.955  16.931  0.00  0.00    +0.000 A 
ENDBRANCH  11  17
ENDBRANCH   2   5
BRANCH   1  23
ATOM     23  C   UNL     1       2.280   4.972  19.870  0.00  0.00    +0.000 C 
BRANCH  23  27
ATOM     24  C   UNL     1       5.997   5.446  17.566  0.00  0.00    +0.000 A 
ATOM     25  C   UNL     1       4.772   5.294  16.918  0.00  0.00    +0.000 A 
ATOM     26  C   UNL     1       3.587   5.172  17.652  0.00  0.00    +0.000 A 
ATOM     27  C   UNL     1       3.592   5.201  19.060  0.00  0.00    +0.000 A 
ATOM     28  C   UNL     1       4.844   5.350  19.694  0.00  0.00    +0.000 A 
ATOM     29  C   UNL     1       6.032   5.485  18.961  0.00  0.00    +0.000 A 
BRANCH  24  30
ATOM     30  C   UNL     1       7.227   5.444  16.733  0.00  0.00    +0.000 C 
ATOM     31  O   UNL     1       7.749   4.420  16.318  0.00  0.00    +0.000 OA
BRANCH  30  32
ATOM     32  O   UNL     1       7.742   6.692  16.637  0.00  0.00    +0.000 OA
BRANCH  32  34
ATOM     33  C   UNL     1       7.955   8.854  17.611  0.00  0.00    +0.000 C 
ATOM     34  C   UNL     1       7.933   7.361  17.892  0.00  0.00    +0.000 C 
ENDBRANCH  32  34
ENDBRANCH  30  32
ENDBRANCH  24  30
ENDBRANCH  23  27
BRANCH  23  35
ATOM     35  C   UNL     1       1.192   4.464  18.861  0.00  0.00    +0.000 C 
ATOM     36  C   UNL     1       0.781   2.998  19.012  0.00  0.00    +0.000 C 
ENDBRANCH  23  35
BRANCH  23  37
ATOM     37  C   UNL     1       2.475   3.875  20.973  0.00  0.00    +0.000 C 
ATOM     38  C   UNL     1       3.434   2.748  20.592  0.00  0.00    +0.000 C 
ENDBRANCH  23  37
ENDBRANCH   1  23
TORSDOF 9
ENDMDL
MODEL 5
REMARK VINA RESULT:      -8.2      1.175      1.913
REMARK  Name = 
REMARK  14 active torsions:
REMARK  status: ('A' for Active; 'I' for Inactive)
REMARK    1  A    between atoms: C_1  and  C_2
REMARK    2  A    between atoms: C_2  and  O_3
REMARK    3  A    between atoms: O_3  and  C_4
REMARK    4  A    between atoms: C_4  and  C_6
REMARK    5  A    between atoms: C_9  and  C_10
REMARK    6  A    between atoms: C_10  and  C_11
REMARK    7  A    between atoms: C_10  and  C_13
REMARK    8  A    between atoms: C_10  and  N_15
REMARK    9  A    between atoms: C_11  and  C_12
REMARK   10  A    between atoms: C_13  and  C_14
REMARK   11  A    between atoms: C_16  and  C_18
REMARK   12  A    between atoms: C_24  and  C_25
REMARK   13  A    between atoms: C_32  and  C_33
REMARK   14  A    between atoms: C_32  and  C_34
REMARK                            x       y       z     vdW  Elec       q    Type
REMARK                         _______ _______ _______ _____ _____    ______ ____
ROOT
ATOM      1  N   UNL     1       1.922   6.372  20.773  0.00  0.00    +0.000 N 
ATOM      2  C   UNL     1       1.488   7.446  20.014  0.00  0.00    +0.000 C 
ATOM      3  O   UNL     1       1.375   7.392  18.792  0.00  0.00    +0.000 OA
ATOM      4  H   UNL     1       1.815   6.434  21.773  0.00  0.00    +0.000 HD
ENDROOT
BRANCH   2   5
ATOM      5  C   UNL     1       1.166   8.655  20.755  0.00  0.00    +0.000 A 
ATOM      6  C   UNL     1       1.678   9.171  21.971  0.00  0.00    +0.000 A 
ATOM      7  N   UNL     1       1.127  10.338  22.335  0.00  0.00    +0.000 NA
ATOM      8  N   UNL     1       0.273  10.602  21.325  0.00  0.00    +0.000 N 
ATOM      9  C   UNL     1       0.233   9.606  20.376  0.00  0.00    +0.000 A 
ATOM     10  N   UNL     1      -0.609   9.698  19.314  0.00  0.00    +0.000 N 
ATOM     11  C   UNL     1      -1.746  10.606  19.406  0.00  0.00    +0.000 C 
ATOM     12  C   UNL     1      -1.222  11.964  19.905  0.00  0.00    +0.000 C 
ATOM     13  C   UNL     1      -0.570  11.807  21.311  0.00  0.00    +0.000 C 
ATOM     14  C   UNL     1       0.272  13.063  21.602  0.00  0.00    +0.000 C 
ATOM     15  C   UNL     1      -1.670  11.690  22.385  0.00  0.00    +0.000 C 
ATOM     16  H   UNL     1      -0.735   8.878  18.716  0.00  0.00    +0.000 HD
BRANCH  11  17
ATOM     17  C   UNL     1      -2.468  10.693  18.078  0.00  0.00    +0.000 A 
ATOM     18  C   UNL     1      -1.958  10.000  16.965  0.00  0.00    +0.000 A 
ATOM     19  C   UNL     1      -2.596  10.068  15.726  0.00  0.00    +0.000 A 
ATOM     20  C   UNL     1      -3.753  10.828  15.582  0.00  0.00    +0.000 A 
ATOM     21  C   UNL     1      -4.272  11.522  16.675  0.00  0.00    +0.000 A 
ATOM     22  C   UNL     1      -3.634  11.455  17.916  0.00  0.00    +0.000 A 
ENDBRANCH  11  17
ENDBRANCH   2   5
BRANCH   1  23
ATOM     23  C   UNL     1       2.324   5.059  20.218  0.00  0.00    +0.000 C 
BRANCH  23  27
ATOM     24  C   UNL     1       5.840   5.612  17.631  0.00  0.00    +0.000 A 
ATOM     25  C   UNL     1       5.821   4.613  18.605  0.00  0.00    +0.000 A 
ATOM     26  C   UNL     1       4.691   4.420  19.407  0.00  0.00    +0.000 A 
ATOM     27  C   UNL     1       3.542   5.221  19.258  0.00  0.00    +0.000 A 
ATOM     28  C   UNL     1       3.586   6.228  18.271  0.00  0.00    +0.000 A 
ATOM     29  C   UNL     1       4.711   6.417  17.457  0.00  0.00    +0.000 A 
BRANCH  24  30
ATOM     30  C   UNL     1       7.112   5.846  16.901  0.00  0.00    +0.000 C 
ATOM     31  O   UNL     1       7.818   4.940  16.485  0.00  0.00    +0.000 OA
BRANCH  30  32
ATOM     32  O   UNL     1       7.429   7.162  16.903  0.00  0.00    +0.000 OA
BRANCH  32  34
ATOM     33  C   UNL     1       8.190   9.137  17.993  0.00  0.00    +0.000 C 
ATOM     34  C   UNL     1       8.050   7.629  18.109  0.00  0.00    +0.000 C 
ENDBRANCH  32  34
ENDBRANCH  30  32
ENDBRANCH  24  30
ENDBRANCH  23  27
BRANCH  23  35
ATOM     35  C   UNL     1       1.155   4.429  19.384  0.00  0.00    +0.000 C 
ATOM     36  C   UNL     1       1.553   3.822  18.037  0.00  0.00    +0.000 C 
ENDBRANCH  23  35
BRANCH  23  37
ATOM     37  C   UNL     1       2.658   4.090  21.404  0.00  0.00    +0.000 C 
ATOM     38  C   UNL     1       1.715   2.894  21.537  0.00  0.00    +0.000 C 
ENDBRANCH  23  37
ENDBRANCH   1  23
TORSDOF 9
ENDMDL
MODEL 6
REMARK VINA RESULT:      -8.2      2.470      9.081
REMARK  Name = 
REMARK  14 active torsions:
REMARK  status: ('A' for Active; 'I' for Inactive)
REMARK    1  A    between atoms: C_1  and  C_2
REMARK    2  A    between atoms: C_2  and  O_3
REMARK    3  A    between atoms: O_3  and  C_4
REMARK    4  A    between atoms: C_4  and  C_6
REMARK    5  A    between atoms: C_9  and  C_10
REMARK    6  A    between atoms: C_10  and  C_11
REMARK    7  A    between atoms: C_10  and  C_13
REMARK    8  A    between atoms: C_10  and  N_15
REMARK    9  A    between atoms: C_11  and  C_12
REMARK   10  A    between atoms: C_13  and  C_14
REMARK   11  A    between atoms: C_16  and  C_18
REMARK   12  A    between atoms: C_24  and  C_25
REMARK   13  A    between atoms: C_32  and  C_33
REMARK   14  A    between atoms: C_32  and  C_34
REMARK                            x       y       z     vdW  Elec       q    Type
REMARK                         _______ _______ _______ _____ _____    ______ ____
ROOT
ATOM      1  N   UNL     1       1.266   8.815  19.569  0.00  0.00    +0.000 N 
ATOM      2  C   UNL     1       2.195   7.999  18.946  0.00  0.00    +0.000 C 
ATOM      3  O   UNL     1       2.969   8.411  18.085  0.00  0.00    +0.000 OA
ATOM      4  H   UNL     1       0.797   8.452  20.383  0.00  0.00    +0.000 HD
ENDROOT
BRANCH   2   5
ATOM      5  C   UNL     1       2.205   6.609  19.376  0.00  0.00    +0.000 A 
ATOM      6  C   UNL     1       1.519   5.950  20.425  0.00  0.00    +0.000 A 
ATOM      7  N   UNL     1       1.786   4.638  20.501  0.00  0.00    +0.000 NA
ATOM      8  N   UNL     1       2.625   4.435  19.465  0.00  0.00    +0.000 N 
ATOM      9  C   UNL     1       2.936   5.591  18.786  0.00  0.00    +0.000 A 
ATOM     10  N   UNL     1       3.804   5.566  17.742  0.00  0.00    +0.000 N 
ATOM     11  C   UNL     1       4.714   4.433  17.622  0.00  0.00    +0.000 C 
ATOM     12  C   UNL     1       3.883   3.147  17.772  0.00  0.00    +0.000 C 
ATOM     13  C   UNL     1       3.191   3.111  19.168  0.00  0.00    +0.000 C 
ATOM     14  C   UNL     1       2.085   2.040  19.138  0.00  0.00    +0.000 C 
ATOM     15  C   UNL     1       4.222   2.727  20.249  0.00  0.00    +0.000 C 
ATOM     16  H   UNL     1       4.139   6.454  17.361  0.00  0.00    +0.000 HD
BRANCH  11  17
ATOM     17  C   UNL     1       5.482   4.501  16.319  0.00  0.00    +0.000 A 
ATOM     18  C   UNL     1       6.754   5.102  16.296  0.00  0.00    +0.000 A 
ATOM     19  C   UNL     1       7.483   5.188  15.109  0.00  0.00    +0.000 A 
ATOM     20  C   UNL     1       6.952   4.674  13.930  0.00  0.00    +0.000 A 
ATOM     21  C   UNL     1       5.692   4.075  13.935  0.00  0.00    +0.000 A 
ATOM     22  C   UNL     1       4.961   3.989  15.122  0.00  0.00    +0.000 A 
ENDBRANCH  11  17
ENDBRANCH   2   5
BRANCH   1  23
ATOM     23  C   UNL     1       1.071  10.252  19.263  0.00  0.00    +0.000 C 
BRANCH  23  27
ATOM     24  C   UNL     1      -2.678  10.943  17.067  0.00  0.00    +0.000 A 
ATOM     25  C   UNL     1      -1.959   9.760  16.895  0.00  0.00    +0.000 A 
ATOM     26  C   UNL     1      -0.783   9.530  17.616  0.00  0.00    +0.000 A 
ATOM     27  C   UNL     1      -0.288  10.477  18.535  0.00  0.00    +0.000 A 
ATOM     28  C   UNL     1      -1.030  11.668  18.687  0.00  0.00    +0.000 A 
ATOM     29  C   UNL     1      -2.215  11.897  17.977  0.00  0.00    +0.000 A 
BRANCH  24  30
ATOM     30  C   UNL     1      -3.847  11.179  16.182  0.00  0.00    +0.000 C 
ATOM     31  O   UNL     1      -4.992  11.267  16.598  0.00  0.00    +0.000 OA
BRANCH  30  32
ATOM     32  O   UNL     1      -3.477  11.134  14.880  0.00  0.00    +0.000 OA
BRANCH  32  34
ATOM     33  C   UNL     1      -4.241  10.040  12.909  0.00  0.00    +0.000 C 
ATOM     34  C   UNL     1      -3.592   9.841  14.268  0.00  0.00    +0.000 C 
ENDBRANCH  32  34
ENDBRANCH  30  32
ENDBRANCH  24  30
ENDBRANCH  23  27
BRANCH  23  35
ATOM     35  C   UNL     1       2.202  10.773  18.310  0.00  0.00    +0.000 C 
ATOM     36  C   UNL     1       2.397  12.290  18.281  0.00  0.00    +0.000 C 
ENDBRANCH  23  35
BRANCH  23  37
ATOM     37  C   UNL     1       1.143  11.066  20.601  0.00  0.00    +0.000 C 
ATOM     38  C   UNL     1       0.319  10.484  21.749  0.00  0.00    +0.000 C 
ENDBRANCH  23  37
ENDBRANCH   1  23
TORSDOF 9
ENDMDL
MODEL 7
REMARK VINA RESULT:      -8.0      0.973      1.395
REMARK  Name = 
REMARK  14 active torsions:
REMARK  status: ('A' for Active; 'I' for Inactive)
REMARK    1  A    between atoms: C_1  and  C_2
REMARK    2  A    between atoms: C_2  and  O_3
REMARK    3  A    between atoms: O_3  and  C_4
REMARK    4  A    between atoms: C_4  and  C_6
REMARK    5  A    between atoms: C_9  and  C_10
REMARK    6  A    between atoms: C_10  and  C_11
REMARK    7  A    between atoms: C_10  and  C_13
REMARK    8  A    between atoms: C_10  and  N_15
REMARK    9  A    between atoms: C_11  and  C_12
REMARK   10  A    between atoms: C_13  and  C_14
REMARK   11  A    between atoms: C_16  and  C_18
REMARK   12  A    between atoms: C_24  and  C_25
REMARK   13  A    between atoms: C_32  and  C_33
REMARK   14  A    between atoms: C_32  and  C_34
REMARK                            x       y       z     vdW  Elec       q    Type
REMARK                         _______ _______ _______ _____ _____    ______ ____
ROOT
ATOM      1  N   UNL     1       2.014   6.576  20.446  0.00  0.00    +0.000 N 
ATOM      2  C   UNL     1       1.662   7.759  19.817  0.00  0.00    +0.000 C 
ATOM      3  O   UNL     1       1.745   7.915  18.602  0.00  0.00    +0.000 OA
ATOM      4  H   UNL     1       1.750   6.463  21.411  0.00  0.00    +0.000 HD
ENDROOT
BRANCH   2   5
ATOM      5  C   UNL     1       1.181   8.819  20.690  0.00  0.00    +0.000 A 
ATOM      6  C   UNL     1       1.595   9.228  21.981  0.00  0.00    +0.000 A 
ATOM      7  N   UNL     1       0.900  10.268  22.464  0.00  0.00    +0.000 NA
ATOM      8  N   UNL     1       0.051  10.563  21.460  0.00  0.00    +0.000 N 
ATOM      9  C   UNL     1       0.154   9.700  20.393  0.00  0.00    +0.000 A 
ATOM     10  N   UNL     1      -0.662   9.833  19.316  0.00  0.00    +0.000 N 
ATOM     11  C   UNL     1      -1.900  10.589  19.471  0.00  0.00    +0.000 C 
ATOM     12  C   UNL     1      -1.553  11.921  20.159  0.00  0.00    +0.000 C 
ATOM     13  C   UNL     1      -0.926  11.658  21.561  0.00  0.00    +0.000 C 
ATOM     14  C   UNL     1      -0.246  12.952  22.042  0.00  0.00    +0.000 C 
ATOM     15  C   UNL     1      -2.036  11.279  22.563  0.00  0.00    +0.000 C 
ATOM     16  H   UNL     1      -0.675   9.089  18.615  0.00  0.00    +0.000 HD
BRANCH  11  17
ATOM     17  C   UNL     1      -2.589  10.765  18.135  0.00  0.00    +0.000 A 
ATOM     18  C   UNL     1      -2.006  10.219  16.977  0.00  0.00    +0.000 A 
ATOM     19  C   UNL     1      -2.613  10.373  15.730  0.00  0.00    +0.000 A 
ATOM     20  C   UNL     1      -3.811  11.072  15.623  0.00  0.00    +0.000 A 
ATOM     21  C   UNL     1      -4.403  11.620  16.761  0.00  0.00    +0.000 A 
ATOM     22  C   UNL     1      -3.796  11.468  18.010  0.00  0.00    +0.000 A 
ENDBRANCH  11  17
ENDBRANCH   2   5
BRANCH   1  23
ATOM     23  C   UNL     1       2.550   5.383  19.750  0.00  0.00    +0.000 C 
BRANCH  23  27
ATOM     24  C   UNL     1       6.239   6.250  17.513  0.00  0.00    +0.000 A 
ATOM     25  C   UNL     1       5.016   6.781  17.104  0.00  0.00    +0.000 A 
ATOM     26  C   UNL     1       3.849   6.528  17.833  0.00  0.00    +0.000 A 
ATOM     27  C   UNL     1       3.869   5.736  18.997  0.00  0.00    +0.000 A 
ATOM     28  C   UNL     1       5.117   5.205  19.389  0.00  0.00    +0.000 A 
ATOM     29  C   UNL     1       6.291   5.466  18.668  0.00  0.00    +0.000 A 
BRANCH  24  30
ATOM     30  C   UNL     1       7.414   6.452  16.628  0.00  0.00    +0.000 C 
ATOM     31  O   UNL     1       8.158   7.417  16.717  0.00  0.00    +0.000 OA
BRANCH  30  32
ATOM     32  O   UNL     1       7.442   5.516  15.650  0.00  0.00    +0.000 OA
BRANCH  32  34
ATOM     33  C   UNL     1       5.987   3.886  14.702  0.00  0.00    +0.000 C 
ATOM     34  C   UNL     1       6.734   4.306  15.957  0.00  0.00    +0.000 C 
ENDBRANCH  32  34
ENDBRANCH  30  32
ENDBRANCH  24  30
ENDBRANCH  23  27
BRANCH  23  35
ATOM     35  C   UNL     1       1.529   4.861  18.680  0.00  0.00    +0.000 C 
ATOM     36  C   UNL     1       2.037   3.739  17.771  0.00  0.00    +0.000 C 
ENDBRANCH  23  35
BRANCH  23  37
ATOM     37  C   UNL     1       2.781   4.245  20.803  0.00  0.00    +0.000 C 
ATOM     38  C   UNL     1       1.512   3.518  21.247  0.00  0.00    +0.000 C 
ENDBRANCH  23  37
ENDBRANCH   1  23
TORSDOF 9
ENDMDL
MODEL 8
REMARK VINA RESULT:      -7.8      1.083      1.222
REMARK  Name = 
REMARK  14 active torsions:
REMARK  status: ('A' for Active; 'I' for Inactive)
REMARK    1  A    between atoms: C_1  and  C_2
REMARK    2  A    between atoms: C_2  and  O_3
REMARK    3  A    between atoms: O_3  and  C_4
REMARK    4  A    between atoms: C_4  and  C_6
REMARK    5  A    between atoms: C_9  and  C_10
REMARK    6  A    between atoms: C_10  and  C_11
REMARK    7  A    between atoms: C_10  and  C_13
REMARK    8  A    between atoms: C_10  and  N_15
REMARK    9  A    between atoms: C_11  and  C_12
REMARK   10  A    between atoms: C_13  and  C_14
REMARK   11  A    between atoms: C_16  and  C_18
REMARK   12  A    between atoms: C_24  and  C_25
REMARK   13  A    between atoms: C_32  and  C_33
REMARK   14  A    between atoms: C_32  and  C_34
REMARK                            x       y       z     vdW  Elec       q    Type
REMARK                         _______ _______ _______ _____ _____    ______ ____
ROOT
ATOM      1  N   UNL     1       2.344   6.728  20.213  0.00  0.00    +0.000 N 
ATOM      2  C   UNL     1       1.130   7.199  20.684  0.00  0.00    +0.000 C 
ATOM      3  O   UNL     1       0.124   6.497  20.744  0.00  0.00    +0.000 OA
ATOM      4  H   UNL     1       3.158   7.302  20.363  0.00  0.00    +0.000 HD
ENDROOT
BRANCH   2   5
ATOM      5  C   UNL     1       1.115   8.589  21.112  0.00  0.00    +0.000 A 
ATOM      6  C   UNL     1       1.804   9.255  22.155  0.00  0.00    +0.000 A 
ATOM      7  N   UNL     1       1.529  10.565  22.231  0.00  0.00    +0.000 NA
ATOM      8  N   UNL     1       0.681  10.761  21.202  0.00  0.00    +0.000 N 
ATOM      9  C   UNL     1       0.372   9.602  20.527  0.00  0.00    +0.000 A 
ATOM     10  N   UNL     1      -0.505   9.619  19.490  0.00  0.00    +0.000 N 
ATOM     11  C   UNL     1      -1.423  10.747  19.376  0.00  0.00    +0.000 C 
ATOM     12  C   UNL     1      -0.599  12.039  19.518  0.00  0.00    +0.000 C 
ATOM     13  C   UNL     1       0.103  12.081  20.908  0.00  0.00    +0.000 C 
ATOM     14  C   UNL     1       1.202  13.159  20.867  0.00  0.00    +0.000 C 
ATOM     15  C   UNL     1      -0.921  12.460  21.997  0.00  0.00    +0.000 C 
ATOM     16  H   UNL     1      -0.837   8.729  19.113  0.00  0.00    +0.000 HD
BRANCH  11  17
ATOM     17  C   UNL     1      -2.202  10.671  18.079  0.00  0.00    +0.000 A 
ATOM     18  C   UNL     1      -3.384  11.419  17.937  0.00  0.00    +0.000 A 
ATOM     19  C   UNL     1      -4.128  11.364  16.758  0.00  0.00    +0.000 A 
ATOM     20  C   UNL     1      -3.700  10.561  15.705  0.00  0.00    +0.000 A 
ATOM     21  C   UNL     1      -2.530   9.813  15.829  0.00  0.00    +0.000 A 
ATOM     22  C   UNL     1      -1.785   9.867  17.009  0.00  0.00    +0.000 A 
ENDBRANCH  11  17
ENDBRANCH   2   5
BRANCH   1  23
ATOM     23  C   UNL     1       2.572   5.355  19.705  0.00  0.00    +0.000 C 
BRANCH  23  27
ATOM     24  C   UNL     1       5.582   5.302  16.496  0.00  0.00    +0.000 A 
ATOM     25  C   UNL     1       4.763   6.415  16.687  0.00  0.00    +0.000 A 
ATOM     26  C   UNL     1       3.826   6.442  17.726  0.00  0.00    +0.000 A 
ATOM     27  C   UNL     1       3.681   5.354  18.609  0.00  0.00    +0.000 A 
ATOM     28  C   UNL     1       4.516   4.237  18.393  0.00  0.00    +0.000 A 
ATOM     29  C   UNL     1       5.464   4.212  17.361  0.00  0.00    +0.000 A 
BRANCH  24  30
ATOM     30  C   UNL     1       6.465   5.287  15.302  0.00  0.00    +0.000 C 
ATOM     31  O   UNL     1       7.614   5.700  15.318  0.00  0.00    +0.000 OA
BRANCH  30  32
ATOM     32  O   UNL     1       5.775   4.901  14.203  0.00  0.00    +0.000 OA
BRANCH  32  34
ATOM     33  C   UNL     1       6.875   4.019  12.284  0.00  0.00    +0.000 C 
ATOM     34  C   UNL     1       6.225   3.672  13.613  0.00  0.00    +0.000 C 
ENDBRANCH  32  34
ENDBRANCH  30  32
ENDBRANCH  24  30
ENDBRANCH  23  27
BRANCH  23  35
ATOM     35  C   UNL     1       1.267   4.785  19.047  0.00  0.00    +0.000 C 
ATOM     36  C   UNL     1       1.445   4.144  17.669  0.00  0.00    +0.000 C 
ENDBRANCH  23  35
BRANCH  23  37
ATOM     37  C   UNL     1       2.959   4.429  20.909  0.00  0.00    +0.000 C 
ATOM     38  C   UNL     1       1.859   3.465  21.354  0.00  0.00    +0.000 C 
ENDBRANCH  23  37
ENDBRANCH   1  23
TORSDOF 9
ENDMDL
MODEL 9
REMARK VINA RESULT:      -7.8      3.425      7.001
REMARK  Name = 
REMARK  14 active torsions:
REMARK  status: ('A' for Active; 'I' for Inactive)
REMARK    1  A    between atoms: C_1  and  C_2
REMARK    2  A    between atoms: C_2  and  O_3
REMARK    3  A    between atoms: O_3  and  C_4
REMARK    4  A    between atoms: C_4  and  C_6
REMARK    5  A    between atoms: C_9  and  C_10
REMARK    6  A    between atoms: C_10  and  C_11
REMARK    7  A    between atoms: C_10  and  C_13
REMARK    8  A    between atoms: C_10  and  N_15
REMARK    9  A    between atoms: C_11  and  C_12
REMARK   10  A    between atoms: C_13  and  C_14
REMARK   11  A    between atoms: C_16  and  C_18
REMARK   12  A    between atoms: C_24  and  C_25
REMARK   13  A    between atoms: C_32  and  C_33
REMARK   14  A    between atoms: C_32  and  C_34
REMARK                            x       y       z     vdW  Elec       q    Type
REMARK                         _______ _______ _______ _____ _____    ______ ____
ROOT
ATOM      1  N   UNL     1      -1.097  11.113  19.482  0.00  0.00    +0.000 N 
ATOM      2  C   UNL     1      -1.805  11.799  18.510  0.00  0.00    +0.000 C 
ATOM      3  O   UNL     1      -1.262  12.516  17.674  0.00  0.00    +0.000 OA
ATOM      4  H   UNL     1      -1.588  10.410  20.010  0.00  0.00    +0.000 HD
ENDROOT
BRANCH   2   5
ATOM      5  C   UNL     1      -3.248  11.616  18.534  0.00  0.00    +0.000 A 
ATOM      6  C   UNL     1      -4.113  10.882  17.685  0.00  0.00    +0.000 A 
ATOM      7  N   UNL     1      -5.404  10.951  18.042  0.00  0.00    +0.000 NA
ATOM      8  N   UNL     1      -5.373  11.707  19.158  0.00  0.00    +0.000 N 
ATOM      9  C   UNL     1      -4.112  12.161  19.470  0.00  0.00    +0.000 A 
ATOM     10  N   UNL     1      -3.915  12.972  20.542  0.00  0.00    +0.000 N 
ATOM     11  C   UNL     1      -5.059  13.695  21.085  0.00  0.00    +0.000 C 
ATOM     12  C   UNL     1      -6.207  12.686  21.268  0.00  0.00    +0.000 C 
ATOM     13  C   UNL     1      -6.596  12.055  19.898  0.00  0.00    +0.000 C 
ATOM     14  C   UNL     1      -7.447  10.800  20.163  0.00  0.00    +0.000 C 
ATOM     15  C   UNL     1      -7.435  13.060  19.082  0.00  0.00    +0.000 C 
ATOM     16  H   UNL     1      -3.004  13.421  20.656  0.00  0.00    +0.000 HD
BRANCH  11  17
ATOM     17  C   UNL     1      -4.680  14.411  22.364  0.00  0.00    +0.000 A 
ATOM     18  C   UNL     1      -3.504  14.042  23.042  0.00  0.00    +0.000 A 
ATOM     19  C   UNL     1      -3.133  14.677  24.227  0.00  0.00    +0.000 A 
ATOM     20  C   UNL     1      -3.930  15.692  24.750  0.00  0.00    +0.000 A 
ATOM     21  C   UNL     1      -5.099  16.070  24.090  0.00  0.00    +0.000 A 
ATOM     22  C   UNL     1      -5.472  15.434  22.904  0.00  0.00    +0.000 A 
ENDBRANCH  11  17
ENDBRANCH   2   5
BRANCH   1  23
ATOM     23  C   UNL     1       0.374  11.179  19.652  0.00  0.00    +0.000 C 
BRANCH  23  27
ATOM     24  C   UNL     1       2.341   7.298  18.996  0.00  0.00    +0.000 A 
ATOM     25  C   UNL     1       1.843   7.642  20.253  0.00  0.00    +0.000 A 
ATOM     26  C   UNL     1       1.192   8.864  20.453  0.00  0.00    +0.000 A 
ATOM     27  C   UNL     1       1.017   9.782  19.399  0.00  0.00    +0.000 A 
ATOM     28  C   UNL     1       1.534   9.415  18.138  0.00  0.00    +0.000 A 
ATOM     29  C   UNL     1       2.176   8.186  17.931  0.00  0.00    +0.000 A 
BRANCH  24  30
ATOM     30  C   UNL     1       3.130   6.045  18.882  0.00  0.00    +0.000 C 
ATOM     31  O   UNL     1       3.664   5.687  17.843  0.00  0.00    +0.000 OA
BRANCH  30  32
ATOM     32  O   UNL     1       3.041   5.319  20.020  0.00  0.00    +0.000 OA
BRANCH  32  34
ATOM     33  C   UNL     1       1.094   4.004  20.410  0.00  0.00    +0.000 C 
ATOM     34  C   UNL     1       2.507   3.998  19.850  0.00  0.00    +0.000 C 
ENDBRANCH  32  34
ENDBRANCH  30  32
ENDBRANCH  24  30
ENDBRANCH  23  27
BRANCH  23  35
ATOM     35  C   UNL     1       0.744  11.603  21.116  0.00  0.00    +0.000 C 
ATOM     36  C   UNL     1      -0.441  11.862  22.050  0.00  0.00    +0.000 C 
ENDBRANCH  23  35
BRANCH  23  37
ATOM     37  C   UNL     1       0.948  12.258  18.669  0.00  0.00    +0.000 C 
ATOM     38  C   UNL     1       2.140  13.046  19.211  0.00  0.00    +0.000 C 
ENDBRANCH  23  37
ENDBRANCH   1  23
TORSDOF 9
ENDMDL
