MODEL 1
REMARK VINA RESULT:      -7.5      0.000      0.000
REMARK  Name = 
REMARK  12 active torsions:
REMARK  status: ('A' for Active; 'I' for Inactive)
REMARK    1  A    between atoms: C_1  and  C_2
REMARK    2  A    between atoms: C_2  and  C_3
REMARK    3  A    between atoms: C_2  and  C_4
REMARK    4  A    between atoms: C_2  and  C_5
REMARK    5  A    between atoms: C_8  and  O_9
REMARK    6  A    between atoms: O_9  and  C_10
REMARK    7  A    between atoms: C_13  and  C_14
REMARK    8  A    between atoms: C_16  and  C_17
REMARK    9  A    between atoms: C_20  and  C_21
REMARK   10  A    between atoms: C_21  and  C_22
REMARK   11  A    between atoms: C_21  and  C_23
REMARK   12  A    between atoms: C_21  and  C_24
REMARK                            x       y       z     vdW  Elec       q    Type
REMARK                         _______ _______ _______ _____ _____    ______ ____
ROOT
ATOM      1  C   UNL     1       4.780   5.146  16.937  0.00  0.00    +0.000 A 
ATOM      2  C   UNL     1       4.675   6.493  17.274  0.00  0.00    +0.000 A 
ATOM      3  C   UNL     1       3.782   6.916  18.261  0.00  0.00    +0.000 A 
ATOM      4  C   UNL     1       3.036   6.006  19.043  0.00  0.00    +0.000 A 
ATOM      5  C   UNL     1       3.072   4.642  18.702  0.00  0.00    +0.000 A 
ATOM      6  C   UNL     1       3.890   4.281  17.592  0.00  0.00    +0.000 A 
ENDROOT
BRANCH   1   8
ATOM      7  C   UNL     1       5.498   3.126  15.519  0.00  0.00    +0.000 C 
ATOM      8  C   UNL     1       5.810   4.576  15.947  0.00  0.00    +0.000 C 
ATOM      9  C   UNL     1       7.232   4.594  16.544  0.00  0.00    +0.000 C 
ATOM     10  C   UNL     1       5.822   5.437  14.658  0.00  0.00    +0.000 C 
ENDBRANCH   1   8
BRANCH   5  11
ATOM     11  C   UNL     1       2.282   3.489  19.363  0.00  0.00    +0.000 C 
ATOM     12  C   UNL     1       2.134   2.370  18.305  0.00  0.00    +0.000 C 
ATOM     13  C   UNL     1       3.024   2.959  20.634  0.00  0.00    +0.000 C 
ATOM     14  C   UNL     1       0.864   3.817  19.881  0.00  0.00    +0.000 C 
ENDBRANCH   5  11
BRANCH   4  15
ATOM     15  O   UNL     1       2.232   6.459  20.082  0.00  0.00    +0.000 OA
BRANCH  15  16
ATOM     16  C   UNL     1       1.711   7.743  20.014  0.00  0.00    +0.000 A 
ATOM     17  C   UNL     1       1.678   8.475  18.826  0.00  0.00    +0.000 A 
ATOM     18  C   UNL     1       1.012   9.707  18.775  0.00  0.00    +0.000 A 
ATOM     19  C   UNL     1       0.432  10.251  19.923  0.00  0.00    +0.000 A 
ATOM     20  C   UNL     1       0.550   9.567  21.150  0.00  0.00    +0.000 A 
ATOM     21  C   UNL     1       1.203   8.314  21.187  0.00  0.00    +0.000 A 
BRANCH  19  22
ATOM     22  C   UNL     1      -0.295  11.492  19.807  0.00  0.00    +0.000 C 
ATOM     23  N   UNL     1      -0.847  12.508  19.732  0.00  0.00    +0.000 NA
ENDBRANCH  19  22
BRANCH  20  24
ATOM     24  C   UNL     1      -0.001  10.108  22.357  0.00  0.00    +0.000 C 
ATOM     25  N   UNL     1      -0.441  10.546  23.333  0.00  0.00    +0.000 NA
ENDBRANCH  20  24
ENDBRANCH  15  16
ENDBRANCH   4  15
TORSDOF 6
ENDMDL
MODEL 2
REMARK VINA RESULT:      -7.5      3.285      7.553
REMARK  Name = 
REMARK  12 active torsions:
REMARK  status: ('A' for Active; 'I' for Inactive)
REMARK    1  A    between atoms: C_1  and  C_2
REMARK    2  A    between atoms: C_2  and  C_3
REMARK    3  A    between atoms: C_2  and  C_4
REMARK    4  A    between atoms: C_2  and  C_5
REMARK    5  A    between atoms: C_8  and  O_9
REMARK    6  A    between atoms: O_9  and  C_10
REMARK    7  A    between atoms: C_13  and  C_14
REMARK    8  A    between atoms: C_16  and  C_17
REMARK    9  A    between atoms: C_20  and  C_21
REMARK   10  A    between atoms: C_21  and  C_22
REMARK   11  A    between atoms: C_21  and  C_23
REMARK   12  A    between atoms: C_21  and  C_24
REMARK                            x       y       z     vdW  Elec       q    Type
REMARK                         _______ _______ _______ _____ _____    ______ ____
ROOT
ATOM      1  C   UNL     1      -1.201  10.262  18.293  0.00  0.00    +0.000 A 
ATOM      2  C   UNL     1      -0.245   9.701  17.451  0.00  0.00    +0.000 A 
ATOM      3  C   UNL     1       0.906   9.106  17.971  0.00  0.00    +0.000 A 
ATOM      4  C   UNL     1       1.105   8.935  19.359  0.00  0.00    +0.000 A 
ATOM      5  C   UNL     1       0.190   9.531  20.246  0.00  0.00    +0.000 A 
ATOM      6  C   UNL     1      -0.891  10.252  19.661  0.00  0.00    +0.000 A 
ENDROOT
BRANCH   1   8
ATOM      7  C   UNL     1      -2.467  11.487  16.421  0.00  0.00    +0.000 C 
ATOM      8  C   UNL     1      -2.548  10.837  17.819  0.00  0.00    +0.000 C 
ATOM      9  C   UNL     1      -3.082  11.899  18.801  0.00  0.00    +0.000 C 
ATOM     10  C   UNL     1      -3.594   9.697  17.729  0.00  0.00    +0.000 C 
ENDBRANCH   1   8
BRANCH   5  11
ATOM     11  C   UNL     1       0.253   9.541  21.792  0.00  0.00    +0.000 C 
ATOM     12  C   UNL     1      -0.323  10.896  22.265  0.00  0.00    +0.000 C 
ATOM     13  C   UNL     1      -0.564   8.349  22.391  0.00  0.00    +0.000 C 
ATOM     14  C   UNL     1       1.647   9.387  22.438  0.00  0.00    +0.000 C 
ENDBRANCH   5  11
BRANCH   4  15
ATOM     15  O   UNL     1       2.216   8.251  19.837  0.00  0.00    +0.000 OA
BRANCH  15  16
ATOM     16  C   UNL     1       2.366   6.911  19.512  0.00  0.00    +0.000 A 
ATOM     17  C   UNL     1       2.847   6.491  18.270  0.00  0.00    +0.000 A 
ATOM     18  C   UNL     1       3.119   5.136  18.041  0.00  0.00    +0.000 A 
ATOM     19  C   UNL     1       2.851   4.179  19.022  0.00  0.00    +0.000 A 
ATOM     20  C   UNL     1       2.269   4.582  20.241  0.00  0.00    +0.000 A 
ATOM     21  C   UNL     1       2.020   5.953  20.473  0.00  0.00    +0.000 A 
BRANCH  19  22
ATOM     22  C   UNL     1       3.205   2.805  18.761  0.00  0.00    +0.000 C 
ATOM     23  N   UNL     1       3.467   1.702  18.517  0.00  0.00    +0.000 NA
ENDBRANCH  19  22
BRANCH  20  24
ATOM     24  C   UNL     1       1.947   3.627  21.260  0.00  0.00    +0.000 C 
ATOM     25  N   UNL     1       1.688   2.860  22.086  0.00  0.00    +0.000 NA
ENDBRANCH  20  24
ENDBRANCH  15  16
ENDBRANCH   4  15
TORSDOF 6
ENDMDL
MODEL 3
REMARK VINA RESULT:      -7.4      3.562      7.021
REMARK  Name = 
REMARK  12 active torsions:
REMARK  status: ('A' for Active; 'I' for Inactive)
REMARK    1  A    between atoms: C_1  and  C_2
REMARK    2  A    between atoms: C_2  and  C_3
REMARK    3  A    between atoms: C_2  and  C_4
REMARK    4  A    between atoms: C_2  and  C_5
REMARK    5  A    between atoms: C_8  and  O_9
REMARK    6  A    between atoms: O_9  and  C_10
REMARK    7  A    between atoms: C_13  and  C_14
REMARK    8  A    between atoms: C_16  and  C_17
REMARK    9  A    between atoms: C_20  and  C_21
REMARK   10  A    between atoms: C_21  and  C_22
REMARK   11  A    between atoms: C_21  and  C_23
REMARK   12  A    between atoms: C_21  and  C_24
REMARK                            x       y       z     vdW  Elec       q    Type
REMARK                         _______ _______ _______ _____ _____    ______ ____
ROOT
ATOM      1  C   UNL     1       1.710   7.502  20.073  0.00  0.00    +0.000 A 
ATOM      2  C   UNL     1       2.242   7.739  18.809  0.00  0.00    +0.000 A 
ATOM      3  C   UNL     1       2.758   6.692  18.041  0.00  0.00    +0.000 A 
ATOM      4  C   UNL     1       2.662   5.342  18.447  0.00  0.00    +0.000 A 
ATOM      5  C   UNL     1       2.179   5.062  19.738  0.00  0.00    +0.000 A 
ATOM      6  C   UNL     1       1.799   6.181  20.535  0.00  0.00    +0.000 A 
ENDROOT
BRANCH   1   8
ATOM      7  C   UNL     1       1.840   8.954  22.190  0.00  0.00    +0.000 C 
ATOM      8  C   UNL     1       1.020   8.570  20.939  0.00  0.00    +0.000 C 
ATOM      9  C   UNL     1      -0.368   8.096  21.415  0.00  0.00    +0.000 C 
ATOM     10  C   UNL     1       0.827   9.865  20.109  0.00  0.00    +0.000 C 
ENDBRANCH   1   8
BRANCH   5  11
ATOM     11  C   UNL     1       2.061   3.677  20.415  0.00  0.00    +0.000 C 
ATOM     12  C   UNL     1       0.712   3.063  19.972  0.00  0.00    +0.000 C 
ATOM     13  C   UNL     1       3.254   2.751  20.006  0.00  0.00    +0.000 C 
ATOM     14  C   UNL     1       2.091   3.646  21.959  0.00  0.00    +0.000 C 
ENDBRANCH   5  11
BRANCH   4  15
ATOM     15  O   UNL     1       3.098   4.319  17.613  0.00  0.00    +0.000 OA
BRANCH  15  16
ATOM     16  C   UNL     1       4.258   4.506  16.877  0.00  0.00    +0.000 A 
ATOM     17  C   UNL     1       4.583   3.709  15.777  0.00  0.00    +0.000 A 
ATOM     18  C   UNL     1       5.689   4.028  14.978  0.00  0.00    +0.000 A 
ATOM     19  C   UNL     1       6.520   5.101  15.307  0.00  0.00    +0.000 A 
ATOM     20  C   UNL     1       6.259   5.847  16.474  0.00  0.00    +0.000 A 
ATOM     21  C   UNL     1       5.128   5.534  17.260  0.00  0.00    +0.000 A 
BRANCH  19  22
ATOM     22  C   UNL     1       7.611   5.426  14.419  0.00  0.00    +0.000 C 
ATOM     23  N   UNL     1       8.460   5.709  13.683  0.00  0.00    +0.000 NA
ENDBRANCH  19  22
BRANCH  20  24
ATOM     24  C   UNL     1       7.108   6.933  16.865  0.00  0.00    +0.000 C 
ATOM     25  N   UNL     1       7.790   7.812  17.184  0.00  0.00    +0.000 NA
ENDBRANCH  20  24
ENDBRANCH  15  16
ENDBRANCH   4  15
TORSDOF 6
ENDMDL
MODEL 4
REMARK VINA RESULT:      -7.4      0.453      1.100
REMARK  Name = 
REMARK  12 active torsions:
REMARK  status: ('A' for Active; 'I' for Inactive)
REMARK    1  A    between atoms: C_1  and  C_2
REMARK    2  A    between atoms: C_2  and  C_3
REMARK    3  A    between atoms: C_2  and  C_4
REMARK    4  A    between atoms: C_2  and  C_5
REMARK    5  A    between atoms: C_8  and  O_9
REMARK    6  A    between atoms: O_9  and  C_10
REMARK    7  A    between atoms: C_13  and  C_14
REMARK    8  A    between atoms: C_16  and  C_17
REMARK    9  A    between atoms: C_20  and  C_21
REMARK   10  A    between atoms: C_21  and  C_22
REMARK   11  A    between atoms: C_21  and  C_23
REMARK   12  A    between atoms: C_21  and  C_24
REMARK                            x       y       z     vdW  Elec       q    Type
REMARK                         _______ _______ _______ _____ _____    ______ ____
ROOT
ATOM      1  C   UNL     1       4.935   5.206  16.904  0.00  0.00    +0.000 A 
ATOM      2  C   UNL     1       4.700   6.552  17.172  0.00  0.00    +0.000 A 
ATOM      3  C   UNL     1       3.740   6.937  18.111  0.00  0.00    +0.000 A 
ATOM      4  C   UNL     1       3.052   6.000  18.914  0.00  0.00    +0.000 A 
ATOM      5  C   UNL     1       3.221   4.631  18.641  0.00  0.00    +0.000 A 
ATOM      6  C   UNL     1       4.105   4.295  17.574  0.00  0.00    +0.000 A 
ENDROOT
BRANCH   1   8
ATOM      7  C   UNL     1       6.335   5.638  14.792  0.00  0.00    +0.000 C 
ATOM      8  C   UNL     1       6.045   4.687  15.973  0.00  0.00    +0.000 C 
ATOM      9  C   UNL     1       5.687   3.306  15.388  0.00  0.00    +0.000 C 
ATOM     10  C   UNL     1       7.365   4.541  16.773  0.00  0.00    +0.000 C 
ENDBRANCH   1   8
BRANCH   5  11
ATOM     11  C   UNL     1       2.515   3.442  19.333  0.00  0.00    +0.000 C 
ATOM     12  C   UNL     1       1.072   3.380  18.778  0.00  0.00    +0.000 C 
ATOM     13  C   UNL     1       3.275   2.103  19.059  0.00  0.00    +0.000 C 
ATOM     14  C   UNL     1       2.408   3.490  20.874  0.00  0.00    +0.000 C 
ENDBRANCH   5  11
BRANCH   4  15
ATOM     15  O   UNL     1       2.176   6.424  19.905  0.00  0.00    +0.000 OA
BRANCH  15  16
ATOM     16  C   UNL     1       1.717   7.733  19.876  0.00  0.00    +0.000 A 
ATOM     17  C   UNL     1       1.733   8.507  18.714  0.00  0.00    +0.000 A 
ATOM     18  C   UNL     1       1.126   9.769  18.699  0.00  0.00    +0.000 A 
ATOM     19  C   UNL     1       0.557  10.300  19.858  0.00  0.00    +0.000 A 
ATOM     20  C   UNL     1       0.627   9.570  21.062  0.00  0.00    +0.000 A 
ATOM     21  C   UNL     1       1.220   8.288  21.062  0.00  0.00    +0.000 A 
BRANCH  19  22
ATOM     22  C   UNL     1      -0.110  11.577  19.777  0.00  0.00    +0.000 C 
ATOM     23  N   UNL     1      -0.644  12.606  19.753  0.00  0.00    +0.000 NA
ENDBRANCH  19  22
BRANCH  20  24
ATOM     24  C   UNL     1       0.086  10.094  22.281  0.00  0.00    +0.000 C 
ATOM     25  N   UNL     1      -0.354  10.514  23.265  0.00  0.00    +0.000 NA
ENDBRANCH  20  24
ENDBRANCH  15  16
ENDBRANCH   4  15
TORSDOF 6
ENDMDL
MODEL 5
REMARK VINA RESULT:      -7.4      1.246      1.535
REMARK  Name = 
REMARK  12 active torsions:
REMARK  status: ('A' for Active; 'I' for Inactive)
REMARK    1  A    between atoms: C_1  and  C_2
REMARK    2  A    between atoms: C_2  and  C_3
REMARK    3  A    between atoms: C_2  and  C_4
REMARK    4  A    between atoms: C_2  and  C_5
REMARK    5  A    between atoms: C_8  and  O_9
REMARK    6  A    between atoms: O_9  and  C_10
REMARK    7  A    between atoms: C_13  and  C_14
REMARK    8  A    between atoms: C_16  and  C_17
REMARK    9  A    between atoms: C_20  and  C_21
REMARK   10  A    between atoms: C_21  and  C_22
REMARK   11  A    between atoms: C_21  and  C_23
REMARK   12  A    between atoms: C_21  and  C_24
REMARK                            x       y       z     vdW  Elec       q    Type
REMARK                         _______ _______ _______ _____ _____    ______ ____
ROOT
ATOM      1  C   UNL     1       5.445   6.067  17.464  0.00  0.00    +0.000 A 
ATOM      2  C   UNL     1       4.845   7.284  17.151  0.00  0.00    +0.000 A 
ATOM      3  C   UNL     1       3.532   7.556  17.539  0.00  0.00    +0.000 A 
ATOM      4  C   UNL     1       2.791   6.676  18.360  0.00  0.00    +0.000 A 
ATOM      5  C   UNL     1       3.339   5.415  18.657  0.00  0.00    +0.000 A 
ATOM      6  C   UNL     1       4.626   5.132  18.114  0.00  0.00    +0.000 A 
ENDROOT
BRANCH   1   8
ATOM      7  C   UNL     1       7.489   4.664  18.140  0.00  0.00    +0.000 C 
ATOM      8  C   UNL     1       6.918   5.726  17.177  0.00  0.00    +0.000 C 
ATOM      9  C   UNL     1       7.813   6.978  17.272  0.00  0.00    +0.000 C 
ATOM     10  C   UNL     1       7.046   5.152  15.742  0.00  0.00    +0.000 C 
ENDBRANCH   1   8
BRANCH   5  11
ATOM     11  C   UNL     1       2.679   4.272  19.464  0.00  0.00    +0.000 C 
ATOM     12  C   UNL     1       3.708   3.121  19.552  0.00  0.00    +0.000 C 
ATOM     13  C   UNL     1       2.268   4.761  20.891  0.00  0.00    +0.000 C 
ATOM     14  C   UNL     1       1.374   3.675  18.895  0.00  0.00    +0.000 C 
ENDBRANCH   5  11
BRANCH   4  15
ATOM     15  O   UNL     1       1.523   7.024  18.808  0.00  0.00    +0.000 OA
BRANCH  15  16
ATOM     16  C   UNL     1       1.334   8.275  19.376  0.00  0.00    +0.000 A 
ATOM     17  C   UNL     1       1.370   9.451  18.624  0.00  0.00    +0.000 A 
ATOM     18  C   UNL     1       1.029  10.675  19.214  0.00  0.00    +0.000 A 
ATOM     19  C   UNL     1       0.716  10.749  20.574  0.00  0.00    +0.000 A 
ATOM     20  C   UNL     1       0.779   9.583  21.363  0.00  0.00    +0.000 A 
ATOM     21  C   UNL     1       1.099   8.349  20.755  0.00  0.00    +0.000 A 
BRANCH  19  22
ATOM     22  C   UNL     1       0.313  12.022  21.121  0.00  0.00    +0.000 C 
ATOM     23  N   UNL     1      -0.024  13.056  21.523  0.00  0.00    +0.000 NA
ENDBRANCH  19  22
BRANCH  20  24
ATOM     24  C   UNL     1       0.499   9.622  22.767  0.00  0.00    +0.000 C 
ATOM     25  N   UNL     1       0.269   9.657  23.901  0.00  0.00    +0.000 NA
ENDBRANCH  20  24
ENDBRANCH  15  16
ENDBRANCH   4  15
TORSDOF 6
ENDMDL
MODEL 6
REMARK VINA RESULT:      -7.3      1.414      1.733
REMARK  Name = 
REMARK  12 active torsions:
REMARK  status: ('A' for Active; 'I' for Inactive)
REMARK    1  A    between atoms: C_1  and  C_2
REMARK    2  A    between atoms: C_2  and  C_3
REMARK    3  A    between atoms: C_2  and  C_4
REMARK    4  A    between atoms: C_2  and  C_5
REMARK    5  A    between atoms: C_8  and  O_9
REMARK    6  A    between atoms: O_9  and  C_10
REMARK    7  A    between atoms: C_13  and  C_14
REMARK    8  A    between atoms: C_16  and  C_17
REMARK    9  A    between atoms: C_20  and  C_21
REMARK   10  A    between atoms: C_21  and  C_22
REMARK   11  A    between atoms: C_21  and  C_23
REMARK   12  A    between atoms: C_21  and  C_24
REMARK                            x       y       z     vdW  Elec       q    Type
REMARK                         _______ _______ _______ _____ _____    ______ ____
ROOT
ATOM      1  C   UNL     1       5.581   6.220  17.899  0.00  0.00    +0.000 A 
ATOM      2  C   UNL     1       5.073   7.412  17.389  0.00  0.00    +0.000 A 
ATOM      3  C   UNL     1       3.715   7.718  17.502  0.00  0.00    +0.000 A 
ATOM      4  C   UNL     1       2.818   6.908  18.233  0.00  0.00    +0.000 A 
ATOM      5  C   UNL     1       3.276   5.671  18.720  0.00  0.00    +0.000 A 
ATOM      6  C   UNL     1       4.637   5.341  18.451  0.00  0.00    +0.000 A 
ENDROOT
BRANCH   1   8
ATOM      7  C   UNL     1       7.417   4.671  16.984  0.00  0.00    +0.000 C 
ATOM      8  C   UNL     1       7.074   5.850  17.920  0.00  0.00    +0.000 C 
ATOM      9  C   UNL     1       7.539   5.472  19.342  0.00  0.00    +0.000 C 
ATOM     10  C   UNL     1       7.915   7.063  17.447  0.00  0.00    +0.000 C 
ENDBRANCH   1   8
BRANCH   5  11
ATOM     11  C   UNL     1       2.456   4.597  19.472  0.00  0.00    +0.000 C 
ATOM     12  C   UNL     1       1.416   4.033  18.475  0.00  0.00    +0.000 C 
ATOM     13  C   UNL     1       3.384   3.459  20.010  0.00  0.00    +0.000 C 
ATOM     14  C   UNL     1       1.682   5.057  20.727  0.00  0.00    +0.000 C 
ENDBRANCH   5  11
BRANCH   4  15
ATOM     15  O   UNL     1       1.495   7.295  18.407  0.00  0.00    +0.000 OA
BRANCH  15  16
ATOM     16  C   UNL     1       1.229   8.507  19.026  0.00  0.00    +0.000 A 
ATOM     17  C   UNL     1       1.104   9.701  18.312  0.00  0.00    +0.000 A 
ATOM     18  C   UNL     1       0.691  10.871  18.962  0.00  0.00    +0.000 A 
ATOM     19  C   UNL     1       0.466  10.879  20.341  0.00  0.00    +0.000 A 
ATOM     20  C   UNL     1       0.691   9.704  21.086  0.00  0.00    +0.000 A 
ATOM     21  C   UNL     1       1.083   8.523  20.419  0.00  0.00    +0.000 A 
BRANCH  19  22
ATOM     22  C   UNL     1      -0.016  12.093  20.954  0.00  0.00    +0.000 C 
ATOM     23  N   UNL     1      -0.398  13.051  21.484  0.00  0.00    +0.000 NA
ENDBRANCH  19  22
BRANCH  20  24
ATOM     24  C   UNL     1       0.505   9.680  22.507  0.00  0.00    +0.000 C 
ATOM     25  N   UNL     1       0.350   9.663  23.653  0.00  0.00    +0.000 NA
ENDBRANCH  20  24
ENDBRANCH  15  16
ENDBRANCH   4  15
TORSDOF 6
ENDMDL
MODEL 7
REMARK VINA RESULT:      -7.3      3.282      7.511
REMARK  Name = 
REMARK  12 active torsions:
REMARK  status: ('A' for Active; 'I' for Inactive)
REMARK    1  A    between atoms: C_1  and  C_2
REMARK    2  A    between atoms: C_2  and  C_3
REMARK    3  A    between atoms: C_2  and  C_4
REMARK    4  A    between atoms: C_2  and  C_5
REMARK    5  A    between atoms: C_8  and  O_9
REMARK    6  A    between atoms: O_9  and  C_10
REMARK    7  A    between atoms: C_13  and  C_14
REMARK    8  A    between atoms: C_16  and  C_17
REMARK    9  A    between atoms: C_20  and  C_21
REMARK   10  A    between atoms: C_21  and  C_22
REMARK   11  A    between atoms: C_21  and  C_23
REMARK   12  A    between atoms: C_21  and  C_24
REMARK                            x       y       z     vdW  Elec       q    Type
REMARK                         _______ _______ _______ _____ _____    ______ ____
ROOT
ATOM      1  C   UNL     1      -1.204  10.290  18.342  0.00  0.00    +0.000 A 
ATOM      2  C   UNL     1      -0.232   9.758  17.500  0.00  0.00    +0.000 A 
ATOM      3  C   UNL     1       0.915   9.155  18.022  0.00  0.00    +0.000 A 
ATOM      4  C   UNL     1       1.093   8.948  19.408  0.00  0.00    +0.000 A 
ATOM      5  C   UNL     1       0.161   9.515  20.296  0.00  0.00    +0.000 A 
ATOM      6  C   UNL     1      -0.916  10.245  19.714  0.00  0.00    +0.000 A 
ENDROOT
BRANCH   1   8
ATOM      7  C   UNL     1      -3.112  11.948  18.810  0.00  0.00    +0.000 C 
ATOM      8  C   UNL     1      -2.546  10.870  17.861  0.00  0.00    +0.000 C 
ATOM      9  C   UNL     1      -3.614   9.766  17.715  0.00  0.00    +0.000 C 
ATOM     10  C   UNL     1      -2.356  11.539  16.477  0.00  0.00    +0.000 C 
ENDBRANCH   1   8
BRANCH   5  11
ATOM     11  C   UNL     1       0.199   9.482  21.842  0.00  0.00    +0.000 C 
ATOM     12  C   UNL     1      -0.564   8.214  22.293  0.00  0.00    +0.000 C 
ATOM     13  C   UNL     1       1.672   9.461  22.365  0.00  0.00    +0.000 C 
ATOM     14  C   UNL     1      -0.432  10.681  22.584  0.00  0.00    +0.000 C 
ENDBRANCH   5  11
BRANCH   4  15
ATOM     15  O   UNL     1       2.200   8.257  19.885  0.00  0.00    +0.000 OA
BRANCH  15  16
ATOM     16  C   UNL     1       2.353   6.922  19.543  0.00  0.00    +0.000 A 
ATOM     17  C   UNL     1       2.849   6.519  18.301  0.00  0.00    +0.000 A 
ATOM     18  C   UNL     1       3.122   5.168  18.055  0.00  0.00    +0.000 A 
ATOM     19  C   UNL     1       2.842   4.197  19.020  0.00  0.00    +0.000 A 
ATOM     20  C   UNL     1       2.246   4.583  20.237  0.00  0.00    +0.000 A 
ATOM     21  C   UNL     1       1.995   5.950  20.486  0.00  0.00    +0.000 A 
BRANCH  19  22
ATOM     22  C   UNL     1       3.198   2.826  18.743  0.00  0.00    +0.000 C 
ATOM     23  N   UNL     1       3.445   1.717  18.516  0.00  0.00    +0.000 NA
ENDBRANCH  19  22
BRANCH  20  24
ATOM     24  C   UNL     1       1.910   3.614  21.238  0.00  0.00    +0.000 C 
ATOM     25  N   UNL     1       1.643   2.833  22.050  0.00  0.00    +0.000 NA
ENDBRANCH  20  24
ENDBRANCH  15  16
ENDBRANCH   4  15
TORSDOF 6
ENDMDL
MODEL 8
REMARK VINA RESULT:      -7.3      3.594      8.678
REMARK  Name = 
REMARK  12 active torsions:
REMARK  status: ('A' for Active; 'I' for Inactive)
REMARK    1  A    between atoms: C_1  and  C_2
REMARK    2  A    between atoms: C_2  and  C_3
REMARK    3  A    between atoms: C_2  and  C_4
REMARK    4  A    between atoms: C_2  and  C_5
REMARK    5  A    between atoms: C_8  and  O_9
REMARK    6  A    between atoms: O_9  and  C_10
REMARK    7  A    between atoms: C_13  and  C_14
REMARK    8  A    between atoms: C_16  and  C_17
REMARK    9  A    between atoms: C_20  and  C_21
REMARK   10  A    between atoms: C_21  and  C_22
REMARK   11  A    between atoms: C_21  and  C_23
REMARK   12  A    between atoms: C_21  and  C_24
REMARK                            x       y       z     vdW  Elec       q    Type
REMARK                         _______ _______ _______ _____ _____    ______ ____
ROOT
ATOM      1  C   UNL     1      -3.062  11.163  18.113  0.00  0.00    +0.000 A 
ATOM      2  C   UNL     1      -2.522  10.018  17.533  0.00  0.00    +0.000 A 
ATOM      3  C   UNL     1      -1.148   9.773  17.578  0.00  0.00    +0.000 A 
ATOM      4  C   UNL     1      -0.259  10.596  18.304  0.00  0.00    +0.000 A 
ATOM      5  C   UNL     1      -0.753  11.789  18.862  0.00  0.00    +0.000 A 
ATOM      6  C   UNL     1      -2.137  12.063  18.663  0.00  0.00    +0.000 A 
ENDROOT
BRANCH   1   8
ATOM      7  C   UNL     1      -5.413  10.202  18.508  0.00  0.00    +0.000 C 
ATOM      8  C   UNL     1      -4.568  11.460  18.210  0.00  0.00    +0.000 C 
ATOM      9  C   UNL     1      -5.103  12.086  16.906  0.00  0.00    +0.000 C 
ATOM     10  C   UNL     1      -4.826  12.462  19.364  0.00  0.00    +0.000 C 
ENDBRANCH   1   8
BRANCH   5  11
ATOM     11  C   UNL     1       0.049  12.870  19.624  0.00  0.00    +0.000 C 
ATOM     12  C   UNL     1      -0.847  14.128  19.711  0.00  0.00    +0.000 C 
ATOM     13  C   UNL     1       0.444  12.370  21.052  0.00  0.00    +0.000 C 
ATOM     14  C   UNL     1       1.395  13.311  19.008  0.00  0.00    +0.000 C 
ENDBRANCH   5  11
BRANCH   4  15
ATOM     15  O   UNL     1       1.087  10.266  18.408  0.00  0.00    +0.000 OA
BRANCH  15  16
ATOM     16  C   UNL     1       1.439   9.080  19.036  0.00  0.00    +0.000 A 
ATOM     17  C   UNL     1       1.091   8.803  20.360  0.00  0.00    +0.000 A 
ATOM     18  C   UNL     1       1.340   7.536  20.903  0.00  0.00    +0.000 A 
ATOM     19  C   UNL     1       1.999   6.556  20.156  0.00  0.00    +0.000 A 
ATOM     20  C   UNL     1       2.445   6.862  18.854  0.00  0.00    +0.000 A 
ATOM     21  C   UNL     1       2.168   8.134  18.306  0.00  0.00    +0.000 A 
BRANCH  19  22
ATOM     22  C   UNL     1       2.177   5.248  20.737  0.00  0.00    +0.000 C 
ATOM     23  N   UNL     1       2.286   4.202  21.225  0.00  0.00    +0.000 NA
ENDBRANCH  19  22
BRANCH  20  24
ATOM     24  C   UNL     1       3.154   5.897  18.067  0.00  0.00    +0.000 C 
ATOM     25  N   UNL     1       3.724   5.114  17.434  0.00  0.00    +0.000 NA
ENDBRANCH  20  24
ENDBRANCH  15  16
ENDBRANCH   4  15
TORSDOF 6
ENDMDL
MODEL 9
REMARK VINA RESULT:      -7.3      1.281      1.761
REMARK  Name = 
REMARK  12 active torsions:
REMARK  status: ('A' for Active; 'I' for Inactive)
REMARK    1  A    between atoms: C_1  and  C_2
REMARK    2  A    between atoms: C_2  and  C_3
REMARK    3  A    between atoms: C_2  and  C_4
REMARK    4  A    between atoms: C_2  and  C_5
REMARK    5  A    between atoms: C_8  and  O_9
REMARK    6  A    between atoms: O_9  and  C_10
REMARK    7  A    between atoms: C_13  and  C_14
REMARK    8  A    between atoms: C_16  and  C_17
REMARK    9  A    between atoms: C_20  and  C_21
REMARK   10  A    between atoms: C_21  and  C_22
REMARK   11  A    between atoms: C_21  and  C_23
REMARK   12  A    between atoms: C_21  and  C_24
REMARK                            x       y       z     vdW  Elec       q    Type
REMARK                         _______ _______ _______ _____ _____    ______ ____
ROOT
ATOM      1  C   UNL     1       5.386   6.154  17.415  0.00  0.00    +0.000 A 
ATOM      2  C   UNL     1       4.836   7.393  17.095  0.00  0.00    +0.000 A 
ATOM      3  C   UNL     1       3.519   7.702  17.443  0.00  0.00    +0.000 A 
ATOM      4  C   UNL     1       2.724   6.838  18.229  0.00  0.00    +0.000 A 
ATOM      5  C   UNL     1       3.222   5.557  18.530  0.00  0.00    +0.000 A 
ATOM      6  C   UNL     1       4.517   5.239  18.027  0.00  0.00    +0.000 A 
ENDROOT
BRANCH   1   8
ATOM      7  C   UNL     1       7.825   6.961  17.327  0.00  0.00    +0.000 C 
ATOM      8  C   UNL     1       6.856   5.769  17.174  0.00  0.00    +0.000 C 
ATOM      9  C   UNL     1       7.057   5.178  15.763  0.00  0.00    +0.000 C 
ATOM     10  C   UNL     1       7.288   4.698  18.208  0.00  0.00    +0.000 C 
ENDBRANCH   1   8
BRANCH   5  11
ATOM     11  C   UNL     1       2.500   4.428  19.302  0.00  0.00    +0.000 C 
ATOM     12  C   UNL     1       1.404   3.863  18.368  0.00  0.00    +0.000 C 
ATOM     13  C   UNL     1       3.506   3.306  19.722  0.00  0.00    +0.000 C 
ATOM     14  C   UNL     1       1.813   4.815  20.630  0.00  0.00    +0.000 C 
ENDBRANCH   5  11
BRANCH   4  15
ATOM     15  O   UNL     1       1.453   7.221  18.638  0.00  0.00    +0.000 OA
BRANCH  15  16
ATOM     16  C   UNL     1       1.294   8.448  19.265  0.00  0.00    +0.000 A 
ATOM     17  C   UNL     1       1.357   9.658  18.570  0.00  0.00    +0.000 A 
ATOM     18  C   UNL     1       1.046  10.860  19.218  0.00  0.00    +0.000 A 
ATOM     19  C   UNL     1       0.735  10.876  20.580  0.00  0.00    +0.000 A 
ATOM     20  C   UNL     1       0.770   9.672  21.312  0.00  0.00    +0.000 A 
ATOM     21  C   UNL     1       1.061   8.462  20.645  0.00  0.00    +0.000 A 
BRANCH  19  22
ATOM     22  C   UNL     1       0.362  12.130  21.188  0.00  0.00    +0.000 C 
ATOM     23  N   UNL     1       0.022  13.125  21.676  0.00  0.00    +0.000 NA
ENDBRANCH  19  22
BRANCH  20  24
ATOM     24  C   UNL     1       0.491   9.651  22.718  0.00  0.00    +0.000 C 
ATOM     25  N   UNL     1       0.271   9.637  23.853  0.00  0.00    +0.000 NA
ENDBRANCH  20  24
ENDBRANCH  15  16
ENDBRANCH   4  15
TORSDOF 6
ENDMDL
