MODEL 1
REMARK VINA RESULT:      -6.8      0.000      0.000
REMARK  Name = 
REMARK  3 active torsions:
REMARK  status: ('A' for Active; 'I' for Inactive)
REMARK    1  A    between atoms: C_3  and  C_4
REMARK    2  A    between atoms: N_11  and  C_12
REMARK    3  A    between atoms: N_21  and  C_22
REMARK                            x       y       z     vdW  Elec       q    Type
REMARK                         _______ _______ _______ _____ _____    ______ ____
ROOT
ATOM      1  O   UNL     1       1.799  12.897  21.474  0.00  0.00    +0.000 OA
ATOM      2  C   UNL     1       1.024  12.837  20.525  0.00  0.00    +0.000 C 
ATOM      3  C   UNL     1      -0.170  11.884  20.487  0.00  0.00    +0.000 C 
ATOM      4  N   UNL     1      -0.782  12.239  19.226  0.00  0.00    +0.000 N 
ATOM      5  C   UNL     1      -0.046  13.240  18.576  0.00  0.00    +0.000 C 
ATOM      6  O   UNL     1      -0.327  13.720  17.485  0.00  0.00    +0.000 OA
ATOM      7  N   UNL     1       1.037  13.581  19.366  0.00  0.00    +0.000 N 
ENDROOT
BRANCH   3   8
ATOM      8  C   UNL     1       0.275  10.432  20.559  0.00  0.00    +0.000 A 
ATOM      9  C   UNL     1      -0.211   9.594  21.575  0.00  0.00    +0.000 A 
ATOM     10  C   UNL     1       0.197   8.259  21.652  0.00  0.00    +0.000 A 
ATOM     11  C   UNL     1       1.099   7.755  20.718  0.00  0.00    +0.000 A 
ATOM     12 CL   UNL     1       1.616   6.117  20.823  0.00  0.00    +0.000 Cl
ATOM     13  C   UNL     1       1.589   8.568  19.701  0.00  0.00    +0.000 A 
ATOM     14  C   UNL     1       1.177   9.900  19.619  0.00  0.00    +0.000 A 
ENDBRANCH   3   8
BRANCH   4  15
ATOM     15  C   UNL     1      -1.945  11.603  18.713  0.00  0.00    +0.000 A 
ATOM     16  C   UNL     1      -1.845  10.503  17.849  0.00  0.00    +0.000 A 
ATOM     17  C   UNL     1      -2.984   9.849  17.368  0.00  0.00    +0.000 A 
ATOM     18  C   UNL     1      -4.247  10.299  17.733  0.00  0.00    +0.000 A 
ATOM     19  C   UNL     1      -4.362  11.393  18.583  0.00  0.00    +0.000 A 
ATOM     20 CL   UNL     1      -5.923  11.972  19.020  0.00  0.00    +0.000 Cl
ATOM     21  C   UNL     1      -3.225  12.038  19.081  0.00  0.00    +0.000 A 
ENDBRANCH   4  15
BRANCH   7  22
ATOM     22  C   UNL     1       2.019  14.556  19.021  0.00  0.00    +0.000 A 
ATOM     23  C   UNL     1       1.750  15.930  19.132  0.00  0.00    +0.000 A 
ATOM     24  C   UNL     1       2.719  16.891  18.817  0.00  0.00    +0.000 A 
ATOM     25  C   UNL     1       3.975  16.495  18.368  0.00  0.00    +0.000 A 
ATOM     26  C   UNL     1       4.257  15.142  18.243  0.00  0.00    +0.000 A 
ATOM     27 CL   UNL     1       5.800  14.641  17.668  0.00  0.00    +0.000 Cl
ATOM     28  C   UNL     1       3.296  14.181  18.569  0.00  0.00    +0.000 A 
ENDBRANCH   7  22
TORSDOF 3
ENDMDL
MODEL 2
REMARK VINA RESULT:      -6.6      6.155      9.098
REMARK  Name = 
REMARK  3 active torsions:
REMARK  status: ('A' for Active; 'I' for Inactive)
REMARK    1  A    between atoms: C_3  and  C_4
REMARK    2  A    between atoms: N_11  and  C_12
REMARK    3  A    between atoms: N_21  and  C_22
REMARK                            x       y       z     vdW  Elec       q    Type
REMARK                         _______ _______ _______ _____ _____    ______ ____
ROOT
ATOM      1  O   UNL     1       1.069   4.761  19.110  0.00  0.00    +0.000 OA
ATOM      2  C   UNL     1       2.057   5.228  18.552  0.00  0.00    +0.000 C 
ATOM      3  C   UNL     1       2.975   4.399  17.657  0.00  0.00    +0.000 C 
ATOM      4  N   UNL     1       3.919   5.398  17.207  0.00  0.00    +0.000 N 
ATOM      5  C   UNL     1       3.635   6.647  17.776  0.00  0.00    +0.000 C 
ATOM      6  O   UNL     1       4.281   7.669  17.581  0.00  0.00    +0.000 OA
ATOM      7  N   UNL     1       2.519   6.525  18.585  0.00  0.00    +0.000 N 
ENDROOT
BRANCH   3   8
ATOM      8  C   UNL     1       3.618   3.256  18.426  0.00  0.00    +0.000 A 
ATOM      9  C   UNL     1       4.306   3.510  19.623  0.00  0.00    +0.000 A 
ATOM     10  C   UNL     1       4.905   2.465  20.334  0.00  0.00    +0.000 A 
ATOM     11  C   UNL     1       4.827   1.161  19.849  0.00  0.00    +0.000 A 
ATOM     12 CL   UNL     1       5.580  -0.121  20.713  0.00  0.00    +0.000 Cl
ATOM     13  C   UNL     1       4.146   0.890  18.666  0.00  0.00    +0.000 A 
ATOM     14  C   UNL     1       3.542   1.931  17.959  0.00  0.00    +0.000 A 
ENDBRANCH   3   8
BRANCH   4  15
ATOM     15  C   UNL     1       5.013   5.110  16.346  0.00  0.00    +0.000 A 
ATOM     16  C   UNL     1       6.332   5.370  16.742  0.00  0.00    +0.000 A 
ATOM     17  C   UNL     1       7.416   5.057  15.916  0.00  0.00    +0.000 A 
ATOM     18  C   UNL     1       7.194   4.494  14.666  0.00  0.00    +0.000 A 
ATOM     19  C   UNL     1       5.891   4.236  14.255  0.00  0.00    +0.000 A 
ATOM     20 CL   UNL     1       5.605   3.560  12.698  0.00  0.00    +0.000 Cl
ATOM     21  C   UNL     1       4.805   4.530  15.088  0.00  0.00    +0.000 A 
ENDBRANCH   4  15
BRANCH   7  22
ATOM     22  C   UNL     1       1.944   7.590  19.341  0.00  0.00    +0.000 A 
ATOM     23  C   UNL     1       1.765   7.481  20.729  0.00  0.00    +0.000 A 
ATOM     24  C   UNL     1       1.222   8.533  21.479  0.00  0.00    +0.000 A 
ATOM     25  C   UNL     1       0.833   9.711  20.850  0.00  0.00    +0.000 A 
ATOM     26  C   UNL     1       0.994   9.834  19.476  0.00  0.00    +0.000 A 
ATOM     27 CL   UNL     1       0.496  11.278  18.684  0.00  0.00    +0.000 Cl
ATOM     28  C   UNL     1       1.547   8.790  18.728  0.00  0.00    +0.000 A 
ENDBRANCH   7  22
TORSDOF 3
ENDMDL
MODEL 3
REMARK VINA RESULT:      -6.6      1.000      1.618
REMARK  Name = 
REMARK  3 active torsions:
REMARK  status: ('A' for Active; 'I' for Inactive)
REMARK    1  A    between atoms: C_3  and  C_4
REMARK    2  A    between atoms: N_11  and  C_12
REMARK    3  A    between atoms: N_21  and  C_22
REMARK                            x       y       z     vdW  Elec       q    Type
REMARK                         _______ _______ _______ _____ _____    ______ ____
ROOT
ATOM      1  O   UNL     1       2.016  13.063  21.478  0.00  0.00    +0.000 OA
ATOM      2  C   UNL     1       1.213  13.039  20.551  0.00  0.00    +0.000 C 
ATOM      3  C   UNL     1      -0.019  12.136  20.542  0.00  0.00    +0.000 C 
ATOM      4  N   UNL     1      -0.650  12.521  19.300  0.00  0.00    +0.000 N 
ATOM      5  C   UNL     1       0.108  13.494  18.633  0.00  0.00    +0.000 C 
ATOM      6  O   UNL     1      -0.183  13.989  17.552  0.00  0.00    +0.000 OA
ATOM      7  N   UNL     1       1.225  13.787  19.394  0.00  0.00    +0.000 N 
ENDROOT
BRANCH   3   8
ATOM      8  C   UNL     1       0.367  10.667  20.598  0.00  0.00    +0.000 A 
ATOM      9  C   UNL     1       1.176  10.110  19.594  0.00  0.00    +0.000 A 
ATOM     10  C   UNL     1       1.531   8.759  19.635  0.00  0.00    +0.000 A 
ATOM     11  C   UNL     1       1.075   7.952  20.676  0.00  0.00    +0.000 A 
ATOM     12 CL   UNL     1       1.497   6.285  20.717  0.00  0.00    +0.000 Cl
ATOM     13  C   UNL     1       0.277   8.487  21.683  0.00  0.00    +0.000 A 
ATOM     14  C   UNL     1      -0.073   9.838  21.646  0.00  0.00    +0.000 A 
ENDBRANCH   3   8
BRANCH   4  15
ATOM     15  C   UNL     1      -1.852  11.935  18.817  0.00  0.00    +0.000 A 
ATOM     16  C   UNL     1      -3.079  12.178  19.449  0.00  0.00    +0.000 A 
ATOM     17  C   UNL     1      -4.271  11.634  18.960  0.00  0.00    +0.000 A 
ATOM     18  C   UNL     1      -4.250  10.820  17.835  0.00  0.00    +0.000 A 
ATOM     19  C   UNL     1      -3.040  10.563  17.201  0.00  0.00    +0.000 A 
ATOM     20 CL   UNL     1      -3.002   9.536  15.820  0.00  0.00    +0.000 Cl
ATOM     21  C   UNL     1      -1.849  11.122  17.676  0.00  0.00    +0.000 A 
ENDBRANCH   4  15
BRANCH   7  22
ATOM     22  C   UNL     1       2.237  14.723  19.025  0.00  0.00    +0.000 A 
ATOM     23  C   UNL     1       2.014  16.106  19.115  0.00  0.00    +0.000 A 
ATOM     24  C   UNL     1       3.013  17.029  18.777  0.00  0.00    +0.000 A 
ATOM     25  C   UNL     1       4.251  16.584  18.325  0.00  0.00    +0.000 A 
ATOM     26  C   UNL     1       4.487  15.219  18.220  0.00  0.00    +0.000 A 
ATOM     27 CL   UNL     1       6.007  14.657  17.642  0.00  0.00    +0.000 Cl
ATOM     28  C   UNL     1       3.496  14.297  18.570  0.00  0.00    +0.000 A 
ENDBRANCH   7  22
TORSDOF 3
ENDMDL
MODEL 4
REMARK VINA RESULT:      -6.5      2.513      6.477
REMARK  Name = 
REMARK  3 active torsions:
REMARK  status: ('A' for Active; 'I' for Inactive)
REMARK    1  A    between atoms: C_3  and  C_4
REMARK    2  A    between atoms: N_11  and  C_12
REMARK    3  A    between atoms: N_21  and  C_22
REMARK                            x       y       z     vdW  Elec       q    Type
REMARK                         _______ _______ _______ _____ _____    ______ ____
ROOT
ATOM      1  O   UNL     1      -2.778  11.158  18.953  0.00  0.00    +0.000 OA
ATOM      2  C   UNL     1      -1.991  11.965  19.436  0.00  0.00    +0.000 C 
ATOM      3  C   UNL     1      -0.542  12.096  18.968  0.00  0.00    +0.000 C 
ATOM      4  N   UNL     1      -0.075  13.197  19.781  0.00  0.00    +0.000 N 
ATOM      5  C   UNL     1      -1.084  13.647  20.644  0.00  0.00    +0.000 C 
ATOM      6  O   UNL     1      -0.959  14.557  21.453  0.00  0.00    +0.000 OA
ATOM      7  N   UNL     1      -2.224  12.892  20.428  0.00  0.00    +0.000 N 
ENDROOT
BRANCH   3   8
ATOM      8  C   UNL     1       0.232  10.807  19.186  0.00  0.00    +0.000 A 
ATOM      9  C   UNL     1       0.966  10.236  18.134  0.00  0.00    +0.000 A 
ATOM     10  C   UNL     1       1.676   9.047  18.326  0.00  0.00    +0.000 A 
ATOM     11  C   UNL     1       1.652   8.416  19.568  0.00  0.00    +0.000 A 
ATOM     12 CL   UNL     1       2.510   6.943  19.799  0.00  0.00    +0.000 Cl
ATOM     13  C   UNL     1       0.933   8.968  20.624  0.00  0.00    +0.000 A 
ATOM     14  C   UNL     1       0.229  10.159  20.436  0.00  0.00    +0.000 A 
ENDBRANCH   3   8
BRANCH   4  15
ATOM     15  C   UNL     1       1.254  13.699  19.730  0.00  0.00    +0.000 A 
ATOM     16  C   UNL     1       2.136  13.519  20.804  0.00  0.00    +0.000 A 
ATOM     17  C   UNL     1       3.456  13.978  20.748  0.00  0.00    +0.000 A 
ATOM     18  C   UNL     1       3.910  14.644  19.617  0.00  0.00    +0.000 A 
ATOM     19  C   UNL     1       3.045  14.837  18.545  0.00  0.00    +0.000 A 
ATOM     20 CL   UNL     1       3.592  15.681  17.149  0.00  0.00    +0.000 Cl
ATOM     21  C   UNL     1       1.730  14.361  18.590  0.00  0.00    +0.000 A 
ENDBRANCH   4  15
BRANCH   7  22
ATOM     22  C   UNL     1      -3.451  13.054  21.136  0.00  0.00    +0.000 A 
ATOM     23  C   UNL     1      -4.575  13.628  20.521  0.00  0.00    +0.000 A 
ATOM     24  C   UNL     1      -5.790  13.768  21.205  0.00  0.00    +0.000 A 
ATOM     25  C   UNL     1      -5.898  13.349  22.528  0.00  0.00    +0.000 A 
ATOM     26  C   UNL     1      -4.795  12.788  23.156  0.00  0.00    +0.000 A 
ATOM     27 CL   UNL     1      -4.911  12.287  24.798  0.00  0.00    +0.000 Cl
ATOM     28  C   UNL     1      -3.586  12.636  22.471  0.00  0.00    +0.000 A 
ENDBRANCH   7  22
TORSDOF 3
ENDMDL
MODEL 5
REMARK VINA RESULT:      -6.5      2.015      6.533
REMARK  Name = 
REMARK  3 active torsions:
REMARK  status: ('A' for Active; 'I' for Inactive)
REMARK    1  A    between atoms: C_3  and  C_4
REMARK    2  A    between atoms: N_11  and  C_12
REMARK    3  A    between atoms: N_21  and  C_22
REMARK                            x       y       z     vdW  Elec       q    Type
REMARK                         _______ _______ _______ _____ _____    ______ ____
ROOT
ATOM      1  O   UNL     1      -2.717  10.662  18.250  0.00  0.00    +0.000 OA
ATOM      2  C   UNL     1      -2.053  11.524  18.817  0.00  0.00    +0.000 C 
ATOM      3  C   UNL     1      -0.559  11.721  18.564  0.00  0.00    +0.000 C 
ATOM      4  N   UNL     1      -0.273  12.865  19.400  0.00  0.00    +0.000 N 
ATOM      5  C   UNL     1      -1.421  13.282  20.088  0.00  0.00    +0.000 C 
ATOM      6  O   UNL     1      -1.465  14.218  20.876  0.00  0.00    +0.000 OA
ATOM      7  N   UNL     1      -2.477  12.462  19.732  0.00  0.00    +0.000 N 
ENDROOT
BRANCH   3   8
ATOM      8  C   UNL     1       0.237  10.481  18.938  0.00  0.00    +0.000 A 
ATOM      9  C   UNL     1       1.067   9.861  17.990  0.00  0.00    +0.000 A 
ATOM     10  C   UNL     1       1.797   8.717  18.325  0.00  0.00    +0.000 A 
ATOM     11  C   UNL     1       1.698   8.181  19.608  0.00  0.00    +0.000 A 
ATOM     12 CL   UNL     1       2.583   6.762  20.013  0.00  0.00    +0.000 Cl
ATOM     13  C   UNL     1       0.885   8.783  20.562  0.00  0.00    +0.000 A 
ATOM     14  C   UNL     1       0.160   9.929  20.230  0.00  0.00    +0.000 A 
ENDBRANCH   3   8
BRANCH   4  15
ATOM     15  C   UNL     1       1.022  13.437  19.529  0.00  0.00    +0.000 A 
ATOM     16  C   UNL     1       1.759  13.295  20.712  0.00  0.00    +0.000 A 
ATOM     17  C   UNL     1       3.048  13.823  20.836  0.00  0.00    +0.000 A 
ATOM     18  C   UNL     1       3.614  14.522  19.776  0.00  0.00    +0.000 A 
ATOM     19  C   UNL     1       2.892  14.678  18.598  0.00  0.00    +0.000 A 
ATOM     20 CL   UNL     1       3.576  15.563  17.290  0.00  0.00    +0.000 Cl
ATOM     21  C   UNL     1       1.610  14.133  18.465  0.00  0.00    +0.000 A 
ENDBRANCH   4  15
BRANCH   7  22
ATOM     22  C   UNL     1      -3.803  12.576  20.245  0.00  0.00    +0.000 A 
ATOM     23  C   UNL     1      -4.042  12.688  21.624  0.00  0.00    +0.000 A 
ATOM     24  C   UNL     1      -5.341  12.824  22.131  0.00  0.00    +0.000 A 
ATOM     25  C   UNL     1      -6.431  12.834  21.266  0.00  0.00    +0.000 A 
ATOM     26  C   UNL     1      -6.215  12.715  19.899  0.00  0.00    +0.000 A 
ATOM     27 CL   UNL     1      -7.557  12.704  18.822  0.00  0.00    +0.000 Cl
ATOM     28  C   UNL     1      -4.919  12.592  19.391  0.00  0.00    +0.000 A 
ENDBRANCH   7  22
TORSDOF 3
ENDMDL
MODEL 6
REMARK VINA RESULT:      -6.4      2.557      6.422
REMARK  Name = 
REMARK  3 active torsions:
REMARK  status: ('A' for Active; 'I' for Inactive)
REMARK    1  A    between atoms: C_3  and  C_4
REMARK    2  A    between atoms: N_11  and  C_12
REMARK    3  A    between atoms: N_21  and  C_22
REMARK                            x       y       z     vdW  Elec       q    Type
REMARK                         _______ _______ _______ _____ _____    ______ ____
ROOT
ATOM      1  O   UNL     1      -2.611  11.041  18.950  0.00  0.00    +0.000 OA
ATOM      2  C   UNL     1      -1.797  11.846  19.390  0.00  0.00    +0.000 C 
ATOM      3  C   UNL     1      -0.364  11.948  18.871  0.00  0.00    +0.000 C 
ATOM      4  N   UNL     1       0.146  13.057  19.645  0.00  0.00    +0.000 N 
ATOM      5  C   UNL     1      -0.827  13.538  20.533  0.00  0.00    +0.000 C 
ATOM      6  O   UNL     1      -0.663  14.462  21.319  0.00  0.00    +0.000 OA
ATOM      7  N   UNL     1      -1.984  12.795  20.371  0.00  0.00    +0.000 N 
ENDROOT
BRANCH   3   8
ATOM      8  C   UNL     1       0.400  10.652  19.089  0.00  0.00    +0.000 A 
ATOM      9  C   UNL     1       1.132  10.077  18.037  0.00  0.00    +0.000 A 
ATOM     10  C   UNL     1       1.833   8.883  18.229  0.00  0.00    +0.000 A 
ATOM     11  C   UNL     1       1.800   8.250  19.470  0.00  0.00    +0.000 A 
ATOM     12 CL   UNL     1       2.647   6.770  19.699  0.00  0.00    +0.000 Cl
ATOM     13  C   UNL     1       1.084   8.805  20.525  0.00  0.00    +0.000 A 
ATOM     14  C   UNL     1       0.389  10.002  20.337  0.00  0.00    +0.000 A 
ENDBRANCH   3   8
BRANCH   4  15
ATOM     15  C   UNL     1       1.479  13.539  19.539  0.00  0.00    +0.000 A 
ATOM     16  C   UNL     1       2.000  13.959  18.307  0.00  0.00    +0.000 A 
ATOM     17  C   UNL     1       3.297  14.468  18.200  0.00  0.00    +0.000 A 
ATOM     18  C   UNL     1       4.105  14.548  19.328  0.00  0.00    +0.000 A 
ATOM     19  C   UNL     1       3.606  14.129  20.556  0.00  0.00    +0.000 A 
ATOM     20 CL   UNL     1       4.608  14.203  21.953  0.00  0.00    +0.000 Cl
ATOM     21  C   UNL     1       2.301  13.638  20.670  0.00  0.00    +0.000 A 
ENDBRANCH   4  15
BRANCH   7  22
ATOM     22  C   UNL     1      -3.184  12.988  21.117  0.00  0.00    +0.000 A 
ATOM     23  C   UNL     1      -4.313  13.586  20.535  0.00  0.00    +0.000 A 
ATOM     24  C   UNL     1      -5.502  13.757  21.257  0.00  0.00    +0.000 A 
ATOM     25  C   UNL     1      -5.578  13.345  22.584  0.00  0.00    +0.000 A 
ATOM     26  C   UNL     1      -4.469  12.760  23.180  0.00  0.00    +0.000 A 
ATOM     27 CL   UNL     1      -4.545  12.268  24.826  0.00  0.00    +0.000 Cl
ATOM     28  C   UNL     1      -3.286  12.578  22.457  0.00  0.00    +0.000 A 
ENDBRANCH   7  22
TORSDOF 3
ENDMDL
MODEL 7
REMARK VINA RESULT:      -6.4      1.043      1.621
REMARK  Name = 
REMARK  3 active torsions:
REMARK  status: ('A' for Active; 'I' for Inactive)
REMARK    1  A    between atoms: C_3  and  C_4
REMARK    2  A    between atoms: N_11  and  C_12
REMARK    3  A    between atoms: N_21  and  C_22
REMARK                            x       y       z     vdW  Elec       q    Type
REMARK                         _______ _______ _______ _____ _____    ______ ____
ROOT
ATOM      1  O   UNL     1       1.815  12.857  21.491  0.00  0.00    +0.000 OA
ATOM      2  C   UNL     1       1.041  12.803  20.541  0.00  0.00    +0.000 C 
ATOM      3  C   UNL     1      -0.130  11.824  20.477  0.00  0.00    +0.000 C 
ATOM      4  N   UNL     1      -0.750  12.197  19.226  0.00  0.00    +0.000 N 
ATOM      5  C   UNL     1      -0.038  13.231  18.602  0.00  0.00    +0.000 C 
ATOM      6  O   UNL     1      -0.330  13.731  17.523  0.00  0.00    +0.000 OA
ATOM      7  N   UNL     1       1.037  13.577  19.401  0.00  0.00    +0.000 N 
ENDROOT
BRANCH   3   8
ATOM      8  C   UNL     1       0.348  10.382  20.513  0.00  0.00    +0.000 A 
ATOM      9  C   UNL     1       1.209   9.897  19.515  0.00  0.00    +0.000 A 
ATOM     10  C   UNL     1       1.648   8.571  19.539  0.00  0.00    +0.000 A 
ATOM     11  C   UNL     1       1.226   7.716  20.555  0.00  0.00    +0.000 A 
ATOM     12 CL   UNL     1       1.752   6.079  20.573  0.00  0.00    +0.000 Cl
ATOM     13  C   UNL     1       0.376   8.179  21.555  0.00  0.00    +0.000 A 
ATOM     14  C   UNL     1      -0.058   9.506  21.537  0.00  0.00    +0.000 A 
ENDBRANCH   3   8
BRANCH   4  15
ATOM     15  C   UNL     1      -1.898  11.547  18.696  0.00  0.00    +0.000 A 
ATOM     16  C   UNL     1      -1.774  10.438  17.848  0.00  0.00    +0.000 A 
ATOM     17  C   UNL     1      -2.897   9.771  17.351  0.00  0.00    +0.000 A 
ATOM     18  C   UNL     1      -4.171  10.217  17.683  0.00  0.00    +0.000 A 
ATOM     19  C   UNL     1      -4.311  11.320  18.518  0.00  0.00    +0.000 A 
ATOM     20 CL   UNL     1      -5.884  11.893  18.916  0.00  0.00    +0.000 Cl
ATOM     21  C   UNL     1      -3.188  11.977  19.033  0.00  0.00    +0.000 A 
ENDBRANCH   4  15
BRANCH   7  22
ATOM     22  C   UNL     1       1.996  14.583  19.082  0.00  0.00    +0.000 A 
ATOM     23  C   UNL     1       2.961  14.376  18.082  0.00  0.00    +0.000 A 
ATOM     24  C   UNL     1       3.890  15.371  17.749  0.00  0.00    +0.000 A 
ATOM     25  C   UNL     1       3.881  16.588  18.421  0.00  0.00    +0.000 A 
ATOM     26  C   UNL     1       2.941  16.808  19.419  0.00  0.00    +0.000 A 
ATOM     27 CL   UNL     1       2.935  18.302  20.272  0.00  0.00    +0.000 Cl
ATOM     28  C   UNL     1       2.005  15.822  19.744  0.00  0.00    +0.000 A 
ENDBRANCH   7  22
TORSDOF 3
ENDMDL
MODEL 8
REMARK VINA RESULT:      -6.4      1.605      2.111
REMARK  Name = 
REMARK  3 active torsions:
REMARK  status: ('A' for Active; 'I' for Inactive)
REMARK    1  A    between atoms: C_3  and  C_4
REMARK    2  A    between atoms: N_11  and  C_12
REMARK    3  A    between atoms: N_21  and  C_22
REMARK                            x       y       z     vdW  Elec       q    Type
REMARK                         _______ _______ _______ _____ _____    ______ ____
ROOT
ATOM      1  O   UNL     1       2.264  12.362  21.253  0.00  0.00    +0.000 OA
ATOM      2  C   UNL     1       1.398  12.484  20.392  0.00  0.00    +0.000 C 
ATOM      3  C   UNL     1       0.371  11.396  20.087  0.00  0.00    +0.000 C 
ATOM      4  N   UNL     1      -0.437  12.038  19.074  0.00  0.00    +0.000 N 
ATOM      5  C   UNL     1       0.051  13.319  18.781  0.00  0.00    +0.000 C 
ATOM      6  O   UNL     1      -0.430  14.079  17.951  0.00  0.00    +0.000 OA
ATOM      7  N   UNL     1       1.156  13.567  19.576  0.00  0.00    +0.000 N 
ENDROOT
BRANCH   3   8
ATOM      8  C   UNL     1       1.040  10.117  19.611  0.00  0.00    +0.000 A 
ATOM      9  C   UNL     1       1.636  10.061  18.341  0.00  0.00    +0.000 A 
ATOM     10  C   UNL     1       2.249   8.886  17.895  0.00  0.00    +0.000 A 
ATOM     11  C   UNL     1       2.265   7.758  18.711  0.00  0.00    +0.000 A 
ATOM     12 CL   UNL     1       3.003   6.307  18.153  0.00  0.00    +0.000 Cl
ATOM     13  C   UNL     1       1.684   7.795  19.974  0.00  0.00    +0.000 A 
ATOM     14  C   UNL     1       1.077   8.969  20.424  0.00  0.00    +0.000 A 
ENDBRANCH   3   8
BRANCH   4  15
ATOM     15  C   UNL     1      -1.540  11.407  18.437  0.00  0.00    +0.000 A 
ATOM     16  C   UNL     1      -1.345  10.450  17.432  0.00  0.00    +0.000 A 
ATOM     17  C   UNL     1      -2.423   9.800  16.825  0.00  0.00    +0.000 A 
ATOM     18  C   UNL     1      -3.723  10.113  17.204  0.00  0.00    +0.000 A 
ATOM     19  C   UNL     1      -3.934  11.065  18.195  0.00  0.00    +0.000 A 
ATOM     20 CL   UNL     1      -5.541  11.476  18.654  0.00  0.00    +0.000 Cl
ATOM     21  C   UNL     1      -2.856  11.703  18.818  0.00  0.00    +0.000 A 
ENDBRANCH   4  15
BRANCH   7  22
ATOM     22  C   UNL     1       1.926  14.767  19.544  0.00  0.00    +0.000 A 
ATOM     23  C   UNL     1       2.956  14.946  18.606  0.00  0.00    +0.000 A 
ATOM     24  C   UNL     1       3.699  16.132  18.556  0.00  0.00    +0.000 A 
ATOM     25  C   UNL     1       3.436  17.160  19.456  0.00  0.00    +0.000 A 
ATOM     26  C   UNL     1       2.428  16.999  20.397  0.00  0.00    +0.000 A 
ATOM     27 CL   UNL     1       2.109  18.254  21.529  0.00  0.00    +0.000 Cl
ATOM     28  C   UNL     1       1.677  15.821  20.441  0.00  0.00    +0.000 A 
ENDBRANCH   7  22
TORSDOF 3
ENDMDL
MODEL 9
REMARK VINA RESULT:      -6.3      1.081      1.543
REMARK  Name = 
REMARK  3 active torsions:
REMARK  status: ('A' for Active; 'I' for Inactive)
REMARK    1  A    between atoms: C_3  and  C_4
REMARK    2  A    between atoms: N_11  and  C_12
REMARK    3  A    between atoms: N_21  and  C_22
REMARK                            x       y       z     vdW  Elec       q    Type
REMARK                         _______ _______ _______ _____ _____    ______ ____
ROOT
ATOM      1  O   UNL     1       2.187  12.370  21.338  0.00  0.00    +0.000 OA
ATOM      2  C   UNL     1       1.332  12.499  20.467  0.00  0.00    +0.000 C 
ATOM      3  C   UNL     1       0.314  11.409  20.135  0.00  0.00    +0.000 C 
ATOM      4  N   UNL     1      -0.483  12.059  19.119  0.00  0.00    +0.000 N 
ATOM      5  C   UNL     1       0.002  13.346  18.848  0.00  0.00    +0.000 C 
ATOM      6  O   UNL     1      -0.472  14.114  18.021  0.00  0.00    +0.000 OA
ATOM      7  N   UNL     1       1.096  13.590  19.661  0.00  0.00    +0.000 N 
ENDROOT
BRANCH   3   8
ATOM      8  C   UNL     1       0.996  10.139  19.653  0.00  0.00    +0.000 A 
ATOM      9  C   UNL     1       1.607  10.101  18.389  0.00  0.00    +0.000 A 
ATOM     10  C   UNL     1       2.232   8.935  17.937  0.00  0.00    +0.000 A 
ATOM     11  C   UNL     1       2.244   7.797  18.741  0.00  0.00    +0.000 A 
ATOM     12 CL   UNL     1       2.996   6.357  18.175  0.00  0.00    +0.000 Cl
ATOM     13  C   UNL     1       1.648   7.816  19.997  0.00  0.00    +0.000 A 
ATOM     14  C   UNL     1       1.029   8.982  20.453  0.00  0.00    +0.000 A 
ENDBRANCH   3   8
BRANCH   4  15
ATOM     15  C   UNL     1      -1.575  11.432  18.459  0.00  0.00    +0.000 A 
ATOM     16  C   UNL     1      -1.361  10.475  17.458  0.00  0.00    +0.000 A 
ATOM     17  C   UNL     1      -2.429   9.826  16.829  0.00  0.00    +0.000 A 
ATOM     18  C   UNL     1      -3.735  10.142  17.183  0.00  0.00    +0.000 A 
ATOM     19  C   UNL     1      -3.964  11.094  18.169  0.00  0.00    +0.000 A 
ATOM     20 CL   UNL     1      -5.579  11.508  18.596  0.00  0.00    +0.000 Cl
ATOM     21  C   UNL     1      -2.897  11.730  18.814  0.00  0.00    +0.000 A 
ENDBRANCH   4  15
BRANCH   7  22
ATOM     22  C   UNL     1       1.860  14.794  19.654  0.00  0.00    +0.000 A 
ATOM     23  C   UNL     1       1.335  15.992  20.166  0.00  0.00    +0.000 A 
ATOM     24  C   UNL     1       2.091  17.171  20.183  0.00  0.00    +0.000 A 
ATOM     25  C   UNL     1       3.385  17.179  19.672  0.00  0.00    +0.000 A 
ATOM     26  C   UNL     1       3.918  16.007  19.153  0.00  0.00    +0.000 A 
ATOM     27 CL   UNL     1       5.509  16.010  18.498  0.00  0.00    +0.000 Cl
ATOM     28  C   UNL     1       3.170  14.826  19.147  0.00  0.00    +0.000 A 
ENDBRANCH   7  22
TORSDOF 3
ENDMDL
