MODEL 1
REMARK VINA RESULT:      -7.2      0.000      0.000
REMARK  Name = 
REMARK  10 active torsions:
REMARK  status: ('A' for Active; 'I' for Inactive)
REMARK    1  A    between atoms: C_1  and  C_2
REMARK    2  A    between atoms: C_2  and  O_3
REMARK    3  A    between atoms: O_3  and  C_4
REMARK    4  A    between atoms: C_9  and  N_10
REMARK    5  A    between atoms: N_10  and  S_11
REMARK    6  A    between atoms: S_11  and  C_14
REMARK    7  A    between atoms: C_16  and  C_17
REMARK    8  A    between atoms: C_17  and  O_19
REMARK    9  A    between atoms: O_19  and  C_20
REMARK   10  A    between atoms: N_21  and  C_22
REMARK                            x       y       z     vdW  Elec       q    Type
REMARK                         _______ _______ _______ _____ _____    ______ ____
ROOT
ATOM      1  N   UNL     1       3.087   3.682  20.155  0.00  0.00    +0.000 NA
ATOM      2  H   UNL     1       2.946   3.205  21.048  0.00  0.00    +0.000 HD
ENDROOT
BRANCH   1   8
ATOM      3  C   UNL     1       1.922   8.378  19.009  0.00  0.00    +0.000 C 
ATOM      4  O   UNL     1       2.422   8.897  18.017  0.00  0.00    +0.000 OA
ATOM      5  N   UNL     1       1.907   7.012  19.242  0.00  0.00    +0.000 N 
ATOM      6  C   UNL     1       2.688   6.177  18.346  0.00  0.00    +0.000 C 
ATOM      7  C   UNL     1       2.021   4.824  18.172  0.00  0.00    +0.000 C 
ATOM      8  C   UNL     1       1.817   4.116  19.509  0.00  0.00    +0.000 C 
ATOM      9  C   UNL     1       1.052   5.039  20.473  0.00  0.00    +0.000 C 
ATOM     10  C   UNL     1       1.642   6.446  20.562  0.00  0.00    +0.000 C 
BRANCH   3  11
ATOM     11  O   UNL     1       1.371   9.083  20.032  0.00  0.00    +0.000 OA
BRANCH  11  13
ATOM     12  C   UNL     1      -0.682  10.232  19.690  0.00  0.00    +0.000 C 
ATOM     13  C   UNL     1       0.831  10.358  19.666  0.00  0.00    +0.000 C 
ENDBRANCH  11  13
ENDBRANCH   3  11
ENDBRANCH   1   8
BRANCH   1  14
ATOM     14  S   UNL     1       4.177   2.734  19.263  0.00  0.00    +0.000 S 
ATOM     15  O   UNL     1       5.102   2.180  20.224  0.00  0.00    +0.000 OA
ATOM     16  O   UNL     1       3.437   1.916  18.331  0.00  0.00    +0.000 OA
BRANCH  14  17
ATOM     17  C   UNL     1       5.144   3.796  18.304  0.00  0.00    +0.000 A 
ATOM     18  C   UNL     1       5.293   3.719  16.900  0.00  0.00    +0.000 A 
ATOM     19  C   UNL     1       6.216   4.680  16.492  0.00  0.00    +0.000 A 
ATOM     20  N   UNL     1       6.616   5.340  17.644  0.00  0.00    +0.000 N 
ATOM     21  C   UNL     1       7.613   6.379  17.787  0.00  0.00    +0.000 C 
ATOM     22  C   UNL     1       5.947   4.828  18.736  0.00  0.00    +0.000 A 
BRANCH  19  23
ATOM     23  C   UNL     1       6.684   4.937  15.139  0.00  0.00    +0.000 C 
ATOM     24  O   UNL     1       7.774   5.386  14.820  0.00  0.00    +0.000 OA
BRANCH  23  25
ATOM     25  O   UNL     1       5.708   4.585  14.250  0.00  0.00    +0.000 OA
ATOM     26  C   UNL     1       6.148   3.733  13.194  0.00  0.00    +0.000 C 
ENDBRANCH  23  25
ENDBRANCH  19  23
ENDBRANCH  14  17
ENDBRANCH   1  14
TORSDOF 7
ENDMDL
MODEL 2
REMARK VINA RESULT:      -7.2      2.124      7.416
REMARK  Name = 
REMARK  10 active torsions:
REMARK  status: ('A' for Active; 'I' for Inactive)
REMARK    1  A    between atoms: C_1  and  C_2
REMARK    2  A    between atoms: C_2  and  O_3
REMARK    3  A    between atoms: O_3  and  C_4
REMARK    4  A    between atoms: C_9  and  N_10
REMARK    5  A    between atoms: N_10  and  S_11
REMARK    6  A    between atoms: S_11  and  C_14
REMARK    7  A    between atoms: C_16  and  C_17
REMARK    8  A    between atoms: C_17  and  O_19
REMARK    9  A    between atoms: O_19  and  C_20
REMARK   10  A    between atoms: N_21  and  C_22
REMARK                            x       y       z     vdW  Elec       q    Type
REMARK                         _______ _______ _______ _____ _____    ______ ____
ROOT
ATOM      1  N   UNL     1       4.385   6.175  18.737  0.00  0.00    +0.000 NA
ATOM      2  H   UNL     1       4.265   6.636  17.833  0.00  0.00    +0.000 HD
ENDROOT
BRANCH   1   8
ATOM      3  C   UNL     1       6.861   4.640  14.709  0.00  0.00    +0.000 C 
ATOM      4  O   UNL     1       7.772   5.329  14.264  0.00  0.00    +0.000 OA
ATOM      5  N   UNL     1       6.330   4.788  15.980  0.00  0.00    +0.000 N 
ATOM      6  C   UNL     1       6.761   5.942  16.749  0.00  0.00    +0.000 C 
ATOM      7  C   UNL     1       6.791   5.606  18.230  0.00  0.00    +0.000 C 
ATOM      8  C   UNL     1       5.433   5.118  18.728  0.00  0.00    +0.000 C 
ATOM      9  C   UNL     1       4.955   3.941  17.859  0.00  0.00    +0.000 C 
ATOM     10  C   UNL     1       5.038   4.223  16.359  0.00  0.00    +0.000 C 
BRANCH   3  11
ATOM     11  O   UNL     1       6.218   3.683  13.988  0.00  0.00    +0.000 OA
BRANCH  11  13
ATOM     12  C   UNL     1       5.218   3.183  11.890  0.00  0.00    +0.000 C 
ATOM     13  C   UNL     1       6.459   3.725  12.577  0.00  0.00    +0.000 C 
ENDBRANCH  11  13
ENDBRANCH   3  11
ENDBRANCH   1   8
BRANCH   1  14
ATOM     14  S   UNL     1       2.829   5.781  19.291  0.00  0.00    +0.000 S 
ATOM     15  O   UNL     1       2.102   5.309  18.135  0.00  0.00    +0.000 OA
ATOM     16  O   UNL     1       2.941   5.014  20.508  0.00  0.00    +0.000 OA
BRANCH  14  17
ATOM     17  C   UNL     1       2.032   7.251  19.724  0.00  0.00    +0.000 A 
ATOM     18  C   UNL     1       1.844   8.360  18.867  0.00  0.00    +0.000 A 
ATOM     19  C   UNL     1       1.244   9.391  19.589  0.00  0.00    +0.000 A 
ATOM     20  N   UNL     1       1.061   8.901  20.874  0.00  0.00    +0.000 N 
ATOM     21  C   UNL     1       0.541   9.592  22.035  0.00  0.00    +0.000 C 
ATOM     22  C   UNL     1       1.509   7.599  20.949  0.00  0.00    +0.000 A 
BRANCH  19  23
ATOM     23  C   UNL     1       0.891  10.717  19.108  0.00  0.00    +0.000 C 
ATOM     24  O   UNL     1       1.461  11.762  19.376  0.00  0.00    +0.000 OA
BRANCH  23  25
ATOM     25  O   UNL     1      -0.193  10.623  18.282  0.00  0.00    +0.000 OA
ATOM     26  C   UNL     1      -1.452  10.744  18.941  0.00  0.00    +0.000 C 
ENDBRANCH  23  25
ENDBRANCH  19  23
ENDBRANCH  14  17
ENDBRANCH   1  14
TORSDOF 7
ENDMDL
MODEL 3
REMARK VINA RESULT:      -7.2      2.254      7.484
REMARK  Name = 
REMARK  10 active torsions:
REMARK  status: ('A' for Active; 'I' for Inactive)
REMARK    1  A    between atoms: C_1  and  C_2
REMARK    2  A    between atoms: C_2  and  O_3
REMARK    3  A    between atoms: O_3  and  C_4
REMARK    4  A    between atoms: C_9  and  N_10
REMARK    5  A    between atoms: N_10  and  S_11
REMARK    6  A    between atoms: S_11  and  C_14
REMARK    7  A    between atoms: C_16  and  C_17
REMARK    8  A    between atoms: C_17  and  O_19
REMARK    9  A    between atoms: O_19  and  C_20
REMARK   10  A    between atoms: N_21  and  C_22
REMARK                            x       y       z     vdW  Elec       q    Type
REMARK                         _______ _______ _______ _____ _____    ______ ____
ROOT
ATOM      1  N   UNL     1       4.310   6.368  18.428  0.00  0.00    +0.000 NA
ATOM      2  H   UNL     1       4.143   6.707  17.478  0.00  0.00    +0.000 HD
ENDROOT
BRANCH   1   8
ATOM      3  C   UNL     1       6.906   4.634  14.560  0.00  0.00    +0.000 C 
ATOM      4  O   UNL     1       7.799   5.322  14.077  0.00  0.00    +0.000 OA
ATOM      5  N   UNL     1       6.350   4.855  15.809  0.00  0.00    +0.000 N 
ATOM      6  C   UNL     1       6.725   6.078  16.496  0.00  0.00    +0.000 C 
ATOM      7  C   UNL     1       6.743   5.855  17.998  0.00  0.00    +0.000 C 
ATOM      8  C   UNL     1       5.396   5.353  18.513  0.00  0.00    +0.000 C 
ATOM      9  C   UNL     1       4.976   4.098  17.728  0.00  0.00    +0.000 C 
ATOM     10  C   UNL     1       5.074   4.271  16.212  0.00  0.00    +0.000 C 
BRANCH   3  11
ATOM     11  O   UNL     1       6.311   3.602  13.904  0.00  0.00    +0.000 OA
BRANCH  11  13
ATOM     12  C   UNL     1       5.059   3.285  11.908  0.00  0.00    +0.000 C 
ATOM     13  C   UNL     1       6.418   3.651  12.477  0.00  0.00    +0.000 C 
ENDBRANCH  11  13
ENDBRANCH   3  11
ENDBRANCH   1   8
BRANCH   1  14
ATOM     14  S   UNL     1       2.788   5.996  19.084  0.00  0.00    +0.000 S 
ATOM     15  O   UNL     1       2.005   5.459  17.996  0.00  0.00    +0.000 OA
ATOM     16  O   UNL     1       2.972   5.295  20.333  0.00  0.00    +0.000 OA
BRANCH  14  17
ATOM     17  C   UNL     1       2.004   7.482  19.481  0.00  0.00    +0.000 A 
ATOM     18  C   UNL     1       1.773   8.549  18.582  0.00  0.00    +0.000 A 
ATOM     19  C   UNL     1       1.199   9.611  19.279  0.00  0.00    +0.000 A 
ATOM     20  N   UNL     1       1.076   9.183  20.592  0.00  0.00    +0.000 N 
ATOM     21  C   UNL     1       0.604   9.927  21.741  0.00  0.00    +0.000 C 
ATOM     22  C   UNL     1       1.533   7.887  20.711  0.00  0.00    +0.000 A 
BRANCH  19  23
ATOM     23  C   UNL     1       0.819  10.911  18.751  0.00  0.00    +0.000 C 
ATOM     24  O   UNL     1      -0.315  11.291  18.504  0.00  0.00    +0.000 OA
BRANCH  23  25
ATOM     25  O   UNL     1       1.940  11.672  18.576  0.00  0.00    +0.000 OA
ATOM     26  C   UNL     1       1.988  12.850  19.379  0.00  0.00    +0.000 C 
ENDBRANCH  23  25
ENDBRANCH  19  23
ENDBRANCH  14  17
ENDBRANCH   1  14
TORSDOF 7
ENDMDL
MODEL 4
REMARK VINA RESULT:      -7.0      2.283      7.824
REMARK  Name = 
REMARK  10 active torsions:
REMARK  status: ('A' for Active; 'I' for Inactive)
REMARK    1  A    between atoms: C_1  and  C_2
REMARK    2  A    between atoms: C_2  and  O_3
REMARK    3  A    between atoms: O_3  and  C_4
REMARK    4  A    between atoms: C_9  and  N_10
REMARK    5  A    between atoms: N_10  and  S_11
REMARK    6  A    between atoms: S_11  and  C_14
REMARK    7  A    between atoms: C_16  and  C_17
REMARK    8  A    between atoms: C_17  and  O_19
REMARK    9  A    between atoms: O_19  and  C_20
REMARK   10  A    between atoms: N_21  and  C_22
REMARK                            x       y       z     vdW  Elec       q    Type
REMARK                         _______ _______ _______ _____ _____    ______ ____
ROOT
ATOM      1  N   UNL     1       4.420   6.198  18.576  0.00  0.00    +0.000 NA
ATOM      2  H   UNL     1       4.330   6.646  17.662  0.00  0.00    +0.000 HD
ENDROOT
BRANCH   1   8
ATOM      3  C   UNL     1       6.904   4.527  14.607  0.00  0.00    +0.000 C 
ATOM      4  O   UNL     1       7.893   5.137  14.216  0.00  0.00    +0.000 OA
ATOM      5  N   UNL     1       6.338   4.696  15.861  0.00  0.00    +0.000 N 
ATOM      6  C   UNL     1       6.843   5.786  16.676  0.00  0.00    +0.000 C 
ATOM      7  C   UNL     1       6.781   5.416  18.148  0.00  0.00    +0.000 C 
ATOM      8  C   UNL     1       5.364   5.047  18.580  0.00  0.00    +0.000 C 
ATOM      9  C   UNL     1       4.814   3.940  17.663  0.00  0.00    +0.000 C 
ATOM     10  C   UNL     1       4.985   4.247  16.174  0.00  0.00    +0.000 C 
BRANCH   3  11
ATOM     11  O   UNL     1       6.204   3.652  13.837  0.00  0.00    +0.000 OA
BRANCH  11  13
ATOM     12  C   UNL     1       5.437   2.883  11.723  0.00  0.00    +0.000 C 
ATOM     13  C   UNL     1       6.479   3.727  12.434  0.00  0.00    +0.000 C 
ENDBRANCH  11  13
ENDBRANCH   3  11
ENDBRANCH   1   8
BRANCH   1  14
ATOM     14  S   UNL     1       2.843   5.966  19.161  0.00  0.00    +0.000 S 
ATOM     15  O   UNL     1       2.092   5.394  18.068  0.00  0.00    +0.000 OA
ATOM     16  O   UNL     1       2.910   5.353  20.467  0.00  0.00    +0.000 OA
BRANCH  14  17
ATOM     17  C   UNL     1       2.131   7.521  19.399  0.00  0.00    +0.000 A 
ATOM     18  C   UNL     1       1.489   7.952  20.583  0.00  0.00    +0.000 A 
ATOM     19  C   UNL     1       0.963   9.225  20.373  0.00  0.00    +0.000 A 
ATOM     20  N   UNL     1       1.295   9.565  19.070  0.00  0.00    +0.000 N 
ATOM     21  C   UNL     1       0.929  10.754  18.328  0.00  0.00    +0.000 C 
ATOM     22  C   UNL     1       2.027   8.551  18.490  0.00  0.00    +0.000 A 
BRANCH  19  23
ATOM     23  C   UNL     1       0.205  10.035  21.314  0.00  0.00    +0.000 C 
ATOM     24  O   UNL     1      -0.817  10.660  21.076  0.00  0.00    +0.000 OA
BRANCH  23  25
ATOM     25  O   UNL     1       0.810   9.987  22.538  0.00  0.00    +0.000 OA
ATOM     26  C   UNL     1      -0.011   9.470  23.584  0.00  0.00    +0.000 C 
ENDBRANCH  23  25
ENDBRANCH  19  23
ENDBRANCH  14  17
ENDBRANCH   1  14
TORSDOF 7
ENDMDL
MODEL 5
REMARK VINA RESULT:      -6.9      1.852      2.525
REMARK  Name = 
REMARK  10 active torsions:
REMARK  status: ('A' for Active; 'I' for Inactive)
REMARK    1  A    between atoms: C_1  and  C_2
REMARK    2  A    between atoms: C_2  and  O_3
REMARK    3  A    between atoms: O_3  and  C_4
REMARK    4  A    between atoms: C_9  and  N_10
REMARK    5  A    between atoms: N_10  and  S_11
REMARK    6  A    between atoms: S_11  and  C_14
REMARK    7  A    between atoms: C_16  and  C_17
REMARK    8  A    between atoms: C_17  and  O_19
REMARK    9  A    between atoms: O_19  and  C_20
REMARK   10  A    between atoms: N_21  and  C_22
REMARK                            x       y       z     vdW  Elec       q    Type
REMARK                         _______ _______ _______ _____ _____    ______ ____
ROOT
ATOM      1  N   UNL     1       1.907   5.871  18.300  0.00  0.00    +0.000 NA
ATOM      2  H   UNL     1       1.463   6.118  17.413  0.00  0.00    +0.000 HD
ENDROOT
BRANCH   1   8
ATOM      3  C   UNL     1       0.366  10.407  19.629  0.00  0.00    +0.000 C 
ATOM      4  O   UNL     1      -0.217  10.555  20.698  0.00  0.00    +0.000 OA
ATOM      5  N   UNL     1       1.116   9.287  19.308  0.00  0.00    +0.000 N 
ATOM      6  C   UNL     1       1.049   8.158  20.219  0.00  0.00    +0.000 C 
ATOM      7  C   UNL     1       2.375   7.417  20.239  0.00  0.00    +0.000 C 
ATOM      8  C   UNL     1       2.781   6.946  18.844  0.00  0.00    +0.000 C 
ATOM      9  C   UNL     1       2.778   8.139  17.872  0.00  0.00    +0.000 C 
ATOM     10  C   UNL     1       1.495   8.967  17.934  0.00  0.00    +0.000 C 
BRANCH   3  11
ATOM     11  O   UNL     1       0.302  11.298  18.605  0.00  0.00    +0.000 OA
BRANCH  11  13
ATOM     12  C   UNL     1      -1.869  11.634  17.698  0.00  0.00    +0.000 C 
ATOM     13  C   UNL     1      -0.821  12.186  18.646  0.00  0.00    +0.000 C 
ENDBRANCH  11  13
ENDBRANCH   3  11
ENDBRANCH   1   8
BRANCH   1  14
ATOM     14  S   UNL     1       2.551   4.312  18.102  0.00  0.00    +0.000 S 
ATOM     15  O   UNL     1       2.747   3.790  19.434  0.00  0.00    +0.000 OA
ATOM     16  O   UNL     1       1.791   3.613  17.093  0.00  0.00    +0.000 OA
BRANCH  14  17
ATOM     17  C   UNL     1       4.150   4.475  17.469  0.00  0.00    +0.000 A 
ATOM     18  C   UNL     1       4.480   4.552  16.096  0.00  0.00    +0.000 A 
ATOM     19  C   UNL     1       5.867   4.587  15.967  0.00  0.00    +0.000 A 
ATOM     20  N   UNL     1       6.372   4.541  17.259  0.00  0.00    +0.000 N 
ATOM     21  C   UNL     1       7.755   4.482  17.683  0.00  0.00    +0.000 C 
ATOM     22  C   UNL     1       5.336   4.504  18.168  0.00  0.00    +0.000 A 
BRANCH  19  23
ATOM     23  C   UNL     1       6.639   4.644  14.736  0.00  0.00    +0.000 C 
ATOM     24  O   UNL     1       7.626   5.332  14.529  0.00  0.00    +0.000 OA
BRANCH  23  25
ATOM     25  O   UNL     1       6.094   3.787  13.823  0.00  0.00    +0.000 OA
ATOM     26  C   UNL     1       6.736   3.792  12.549  0.00  0.00    +0.000 C 
ENDBRANCH  23  25
ENDBRANCH  19  23
ENDBRANCH  14  17
ENDBRANCH   1  14
TORSDOF 7
ENDMDL
MODEL 6
REMARK VINA RESULT:      -6.9      1.080      2.069
REMARK  Name = 
REMARK  10 active torsions:
REMARK  status: ('A' for Active; 'I' for Inactive)
REMARK    1  A    between atoms: C_1  and  C_2
REMARK    2  A    between atoms: C_2  and  O_3
REMARK    3  A    between atoms: O_3  and  C_4
REMARK    4  A    between atoms: C_9  and  N_10
REMARK    5  A    between atoms: N_10  and  S_11
REMARK    6  A    between atoms: S_11  and  C_14
REMARK    7  A    between atoms: C_16  and  C_17
REMARK    8  A    between atoms: C_17  and  O_19
REMARK    9  A    between atoms: O_19  and  C_20
REMARK   10  A    between atoms: N_21  and  C_22
REMARK                            x       y       z     vdW  Elec       q    Type
REMARK                         _______ _______ _______ _____ _____    ______ ____
ROOT
ATOM      1  N   UNL     1       3.096   3.891  20.211  0.00  0.00    +0.000 NA
ATOM      2  H   UNL     1       3.095   3.619  21.197  0.00  0.00    +0.000 HD
ENDROOT
BRANCH   1   8
ATOM      3  C   UNL     1       1.981   8.434  18.529  0.00  0.00    +0.000 C 
ATOM      4  O   UNL     1       2.333   8.761  17.400  0.00  0.00    +0.000 OA
ATOM      5  N   UNL     1       1.941   7.123  18.975  0.00  0.00    +0.000 N 
ATOM      6  C   UNL     1       2.521   6.109  18.113  0.00  0.00    +0.000 C 
ATOM      7  C   UNL     1       1.771   4.797  18.264  0.00  0.00    +0.000 C 
ATOM      8  C   UNL     1       1.759   4.314  19.712  0.00  0.00    +0.000 C 
ATOM      9  C   UNL     1       1.209   5.424  20.624  0.00  0.00    +0.000 C 
ATOM     10  C   UNL     1       1.872   6.782  20.393  0.00  0.00    +0.000 C 
BRANCH   3  11
ATOM     11  O   UNL     1       1.642   9.323  19.500  0.00  0.00    +0.000 OA
BRANCH  11  13
ATOM     12  C   UNL     1       0.725  11.386  20.244  0.00  0.00    +0.000 C 
ATOM     13  C   UNL     1       1.069  10.547  19.026  0.00  0.00    +0.000 C 
ENDBRANCH  11  13
ENDBRANCH   3  11
ENDBRANCH   1   8
BRANCH   1  14
ATOM     14  S   UNL     1       3.936   2.676  19.374  0.00  0.00    +0.000 S 
ATOM     15  O   UNL     1       4.959   2.203  20.278  0.00  0.00    +0.000 OA
ATOM     16  O   UNL     1       2.984   1.794  18.743  0.00  0.00    +0.000 OA
BRANCH  14  17
ATOM     17  C   UNL     1       4.816   3.426  18.091  0.00  0.00    +0.000 A 
ATOM     18  C   UNL     1       5.825   4.403  18.256  0.00  0.00    +0.000 A 
ATOM     19  C   UNL     1       6.241   4.838  16.999  0.00  0.00    +0.000 A 
ATOM     20  N   UNL     1       5.493   4.119  16.079  0.00  0.00    +0.000 N 
ATOM     21  C   UNL     1       5.484   4.237  14.636  0.00  0.00    +0.000 C 
ATOM     22  C   UNL     1       4.653   3.245  16.736  0.00  0.00    +0.000 A 
BRANCH  19  23
ATOM     23  C   UNL     1       7.243   5.850  16.701  0.00  0.00    +0.000 C 
ATOM     24  O   UNL     1       7.738   6.082  15.609  0.00  0.00    +0.000 OA
BRANCH  23  25
ATOM     25  O   UNL     1       7.552   6.528  17.845  0.00  0.00    +0.000 OA
ATOM     26  C   UNL     1       7.689   7.939  17.679  0.00  0.00    +0.000 C 
ENDBRANCH  23  25
ENDBRANCH  19  23
ENDBRANCH  14  17
ENDBRANCH   1  14
TORSDOF 7
ENDMDL
MODEL 7
REMARK VINA RESULT:      -6.8      2.196      3.189
REMARK  Name = 
REMARK  10 active torsions:
REMARK  status: ('A' for Active; 'I' for Inactive)
REMARK    1  A    between atoms: C_1  and  C_2
REMARK    2  A    between atoms: C_2  and  O_3
REMARK    3  A    between atoms: O_3  and  C_4
REMARK    4  A    between atoms: C_9  and  N_10
REMARK    5  A    between atoms: N_10  and  S_11
REMARK    6  A    between atoms: S_11  and  C_14
REMARK    7  A    between atoms: C_16  and  C_17
REMARK    8  A    between atoms: C_17  and  O_19
REMARK    9  A    between atoms: O_19  and  C_20
REMARK   10  A    between atoms: N_21  and  C_22
REMARK                            x       y       z     vdW  Elec       q    Type
REMARK                         _______ _______ _______ _____ _____    ______ ____
ROOT
ATOM      1  N   UNL     1       1.736   5.796  18.416  0.00  0.00    +0.000 NA
ATOM      2  H   UNL     1       1.275   5.920  17.512  0.00  0.00    +0.000 HD
ENDROOT
BRANCH   1   8
ATOM      3  C   UNL     1       0.351  10.435  19.546  0.00  0.00    +0.000 C 
ATOM      4  O   UNL     1      -0.102  10.673  20.660  0.00  0.00    +0.000 OA
ATOM      5  N   UNL     1       1.061   9.288  19.230  0.00  0.00    +0.000 N 
ATOM      6  C   UNL     1       1.105   8.237  20.231  0.00  0.00    +0.000 C 
ATOM      7  C   UNL     1       2.427   7.491  20.154  0.00  0.00    +0.000 C 
ATOM      8  C   UNL     1       2.665   6.905  18.764  0.00  0.00    +0.000 C 
ATOM      9  C   UNL     1       2.544   8.016  17.705  0.00  0.00    +0.000 C 
ATOM     10  C   UNL     1       1.274   8.856  17.852  0.00  0.00    +0.000 C 
BRANCH   3  11
ATOM     11  O   UNL     1       0.163  11.241  18.468  0.00  0.00    +0.000 OA
BRANCH  11  13
ATOM     12  C   UNL     1      -2.033  11.495  17.593  0.00  0.00    +0.000 C 
ATOM     13  C   UNL     1      -0.996  12.080  18.534  0.00  0.00    +0.000 C 
ENDBRANCH  11  13
ENDBRANCH   3  11
ENDBRANCH   1   8
BRANCH   1  14
ATOM     14  S   UNL     1       2.316   4.201  18.451  0.00  0.00    +0.000 S 
ATOM     15  O   UNL     1       2.505   3.875  19.845  0.00  0.00    +0.000 OA
ATOM     16  O   UNL     1       1.518   3.390  17.562  0.00  0.00    +0.000 OA
BRANCH  14  17
ATOM     17  C   UNL     1       3.913   4.201  17.793  0.00  0.00    +0.000 A 
ATOM     18  C   UNL     1       5.088   4.538  18.504  0.00  0.00    +0.000 A 
ATOM     19  C   UNL     1       6.169   4.512  17.626  0.00  0.00    +0.000 A 
ATOM     20  N   UNL     1       5.650   4.152  16.391  0.00  0.00    +0.000 N 
ATOM     21  C   UNL     1       6.337   4.048  15.121  0.00  0.00    +0.000 C 
ATOM     22  C   UNL     1       4.293   3.934  16.496  0.00  0.00    +0.000 A 
BRANCH  19  23
ATOM     23  C   UNL     1       7.559   4.815  17.927  0.00  0.00    +0.000 C 
ATOM     24  O   UNL     1       8.512   4.062  17.795  0.00  0.00    +0.000 OA
BRANCH  23  25
ATOM     25  O   UNL     1       7.653   6.099  18.382  0.00  0.00    +0.000 OA
ATOM     26  C   UNL     1       7.332   7.096  17.412  0.00  0.00    +0.000 C 
ENDBRANCH  23  25
ENDBRANCH  19  23
ENDBRANCH  14  17
ENDBRANCH   1  14
TORSDOF 7
ENDMDL
MODEL 8
REMARK VINA RESULT:      -6.6      1.424      1.600
REMARK  Name = 
REMARK  10 active torsions:
REMARK  status: ('A' for Active; 'I' for Inactive)
REMARK    1  A    between atoms: C_1  and  C_2
REMARK    2  A    between atoms: C_2  and  O_3
REMARK    3  A    between atoms: O_3  and  C_4
REMARK    4  A    between atoms: C_9  and  N_10
REMARK    5  A    between atoms: N_10  and  S_11
REMARK    6  A    between atoms: S_11  and  C_14
REMARK    7  A    between atoms: C_16  and  C_17
REMARK    8  A    between atoms: C_17  and  O_19
REMARK    9  A    between atoms: O_19  and  C_20
REMARK   10  A    between atoms: N_21  and  C_22
REMARK                            x       y       z     vdW  Elec       q    Type
REMARK                         _______ _______ _______ _____ _____    ______ ____
ROOT
ATOM      1  N   UNL     1       2.359   2.524  19.585  0.00  0.00    +0.000 NA
ATOM      2  H   UNL     1       2.179   1.691  20.150  0.00  0.00    +0.000 HD
ENDROOT
BRANCH   1   8
ATOM      3  C   UNL     1       2.119   7.489  19.499  0.00  0.00    +0.000 C 
ATOM      4  O   UNL     1       2.554   8.096  18.527  0.00  0.00    +0.000 OA
ATOM      5  N   UNL     1       1.832   6.133  19.498  0.00  0.00    +0.000 N 
ATOM      6  C   UNL     1       2.247   5.367  18.337  0.00  0.00    +0.000 C 
ATOM      7  C   UNL     1       1.271   4.233  18.078  0.00  0.00    +0.000 C 
ATOM      8  C   UNL     1       1.133   3.316  19.292  0.00  0.00    +0.000 C 
ATOM      9  C   UNL     1       0.764   4.151  20.532  0.00  0.00    +0.000 C 
ATOM     10  C   UNL     1       1.665   5.370  20.732  0.00  0.00    +0.000 C 
BRANCH   3  11
ATOM     11  O   UNL     1       1.916   8.061  20.716  0.00  0.00    +0.000 OA
BRANCH  11  13
ATOM     12  C   UNL     1      -0.218   8.604  21.611  0.00  0.00    +0.000 C 
ATOM     13  C   UNL     1       0.925   9.094  20.741  0.00  0.00    +0.000 C 
ENDBRANCH  11  13
ENDBRANCH   3  11
ENDBRANCH   1   8
BRANCH   1  14
ATOM     14  S   UNL     1       3.343   2.032  18.293  0.00  0.00    +0.000 S 
ATOM     15  O   UNL     1       4.077   0.881  18.766  0.00  0.00    +0.000 OA
ATOM     16  O   UNL     1       2.558   2.012  17.082  0.00  0.00    +0.000 OA
BRANCH  14  17
ATOM     17  C   UNL     1       4.554   3.240  18.057  0.00  0.00    +0.000 A 
ATOM     18  C   UNL     1       5.009   3.707  16.802  0.00  0.00    +0.000 A 
ATOM     19  C   UNL     1       6.049   4.612  17.006  0.00  0.00    +0.000 A 
ATOM     20  N   UNL     1       6.214   4.699  18.381  0.00  0.00    +0.000 N 
ATOM     21  C   UNL     1       7.208   5.447  19.122  0.00  0.00    +0.000 C 
ATOM     22  C   UNL     1       5.293   3.895  19.018  0.00  0.00    +0.000 A 
BRANCH  19  23
ATOM     23  C   UNL     1       6.820   5.315  15.993  0.00  0.00    +0.000 C 
ATOM     24  O   UNL     1       7.667   4.831  15.260  0.00  0.00    +0.000 OA
BRANCH  23  25
ATOM     25  O   UNL     1       6.443   6.628  15.971  0.00  0.00    +0.000 OA
ATOM     26  C   UNL     1       5.036   6.839  15.868  0.00  0.00    +0.000 C 
ENDBRANCH  23  25
ENDBRANCH  19  23
ENDBRANCH  14  17
ENDBRANCH   1  14
TORSDOF 7
ENDMDL
MODEL 9
REMARK VINA RESULT:      -6.6      2.142      7.291
REMARK  Name = 
REMARK  10 active torsions:
REMARK  status: ('A' for Active; 'I' for Inactive)
REMARK    1  A    between atoms: C_1  and  C_2
REMARK    2  A    between atoms: C_2  and  O_3
REMARK    3  A    between atoms: O_3  and  C_4
REMARK    4  A    between atoms: C_9  and  N_10
REMARK    5  A    between atoms: N_10  and  S_11
REMARK    6  A    between atoms: S_11  and  C_14
REMARK    7  A    between atoms: C_16  and  C_17
REMARK    8  A    between atoms: C_17  and  O_19
REMARK    9  A    between atoms: O_19  and  C_20
REMARK   10  A    between atoms: N_21  and  C_22
REMARK                            x       y       z     vdW  Elec       q    Type
REMARK                         _______ _______ _______ _____ _____    ______ ____
ROOT
ATOM      1  N   UNL     1       2.674   4.460  18.919  0.00  0.00    +0.000 NA
ATOM      2  H   UNL     1       1.939   4.027  18.355  0.00  0.00    +0.000 HD
ENDROOT
BRANCH   1   8
ATOM      3  C   UNL     1       6.669   4.512  15.961  0.00  0.00    +0.000 C 
ATOM      4  O   UNL     1       7.492   5.413  16.077  0.00  0.00    +0.000 OA
ATOM      5  N   UNL     1       5.714   4.209  16.919  0.00  0.00    +0.000 N 
ATOM      6  C   UNL     1       5.575   5.131  18.032  0.00  0.00    +0.000 C 
ATOM      7  C   UNL     1       5.169   4.381  19.289  0.00  0.00    +0.000 C 
ATOM      8  C   UNL     1       3.875   3.597  19.088  0.00  0.00    +0.000 C 
ATOM      9  C   UNL     1       4.011   2.677  17.862  0.00  0.00    +0.000 C 
ATOM     10  C   UNL     1       4.539   3.396  16.621  0.00  0.00    +0.000 C 
BRANCH   3  11
ATOM     11  O   UNL     1       6.554   3.735  14.851  0.00  0.00    +0.000 OA
BRANCH  11  13
ATOM     12  C   UNL     1       6.256   3.453  12.510  0.00  0.00    +0.000 C 
ATOM     13  C   UNL     1       6.592   4.445  13.609  0.00  0.00    +0.000 C 
ENDBRANCH  11  13
ENDBRANCH   3  11
ENDBRANCH   1   8
BRANCH   1  14
ATOM     14  S   UNL     1       1.917   5.090  20.302  0.00  0.00    +0.000 S 
ATOM     15  O   UNL     1       0.561   4.592  20.277  0.00  0.00    +0.000 OA
ATOM     16  O   UNL     1       2.790   4.917  21.438  0.00  0.00    +0.000 OA
BRANCH  14  17
ATOM     17  C   UNL     1       1.748   6.795  20.084  0.00  0.00    +0.000 A 
ATOM     18  C   UNL     1       1.178   7.685  21.024  0.00  0.00    +0.000 A 
ATOM     19  C   UNL     1       1.131   8.961  20.465  0.00  0.00    +0.000 A 
ATOM     20  N   UNL     1       1.679   8.843  19.196  0.00  0.00    +0.000 N 
ATOM     21  C   UNL     1       1.804   9.858  18.171  0.00  0.00    +0.000 C 
ATOM     22  C   UNL     1       2.080   7.542  18.975  0.00  0.00    +0.000 A 
BRANCH  19  23
ATOM     23  C   UNL     1       0.604  10.173  21.072  0.00  0.00    +0.000 C 
ATOM     24  O   UNL     1       1.193  10.916  21.841  0.00  0.00    +0.000 OA
BRANCH  23  25
ATOM     25  O   UNL     1      -0.677  10.372  20.641  0.00  0.00    +0.000 OA
ATOM     26  C   UNL     1      -0.939  11.686  20.151  0.00  0.00    +0.000 C 
ENDBRANCH  23  25
ENDBRANCH  19  23
ENDBRANCH  14  17
ENDBRANCH   1  14
TORSDOF 7
ENDMDL
