MODEL 1
REMARK VINA RESULT:      -8.6      0.000      0.000
REMARK  Name = 
REMARK  8 active torsions:
REMARK  status: ('A' for Active; 'I' for Inactive)
REMARK    1  A    between atoms: C_1  and  C_2
REMARK    2  A    between atoms: C_5  and  C_6
REMARK    3  A    between atoms: C_7  and  N_8
REMARK    4  A    between atoms: N_11  and  S_12
REMARK    5  A    between atoms: S_12  and  C_15
REMARK    6  A    between atoms: C_21  and  C_22
REMARK    7  A    between atoms: C_21  and  C_23
REMARK    8  A    between atoms: N_26  and  C_27
REMARK                            x       y       z     vdW  Elec       q    Type
REMARK                         _______ _______ _______ _____ _____    ______ ____
ROOT
ATOM      1  S   UNL     1       0.898   8.894  20.945  0.00  0.00    +0.000 S 
ATOM      2  O   UNL     1       1.757   9.216  22.067  0.00  0.00    +0.000 OA
ATOM      3  O   UNL     1      -0.499   8.574  21.153  0.00  0.00    +0.000 OA
ENDROOT
BRANCH   1   4
ATOM      4  C   UNL     1       1.631   7.544  20.064  0.00  0.00    +0.000 A 
ATOM      5  C   UNL     1       2.606   7.775  19.071  0.00  0.00    +0.000 A 
ATOM      6  C   UNL     1       3.274   6.693  18.476  0.00  0.00    +0.000 A 
ATOM      7  C   UNL     1       2.964   5.420  18.922  0.00  0.00    +0.000 A 
ATOM      8  C   UNL     1       2.011   5.210  19.920  0.00  0.00    +0.000 A 
ATOM      9  C   UNL     1       1.309   6.258  20.484  0.00  0.00    +0.000 A 
ATOM     10  C   UNL     1       1.943   3.746  20.276  0.00  0.00    +0.000 C 
ATOM     11  C   UNL     1       2.476   3.529  21.696  0.00  0.00    +0.000 C 
ATOM     12  C   UNL     1       0.532   3.198  20.095  0.00  0.00    +0.000 C 
ATOM     13  C   UNL     1       2.920   3.128  19.252  0.00  0.00    +0.000 C 
ATOM     14  O   UNL     1       3.159   1.937  19.122  0.00  0.00    +0.000 OA
ATOM     15  N   UNL     1       3.493   4.185  18.531  0.00  0.00    +0.000 N 
ATOM     16  C   UNL     1       4.465   4.007  17.485  0.00  0.00    +0.000 C 
ENDBRANCH   1   4
BRANCH   1  20
ATOM     17  N   UNL     1      -1.610  10.936  18.820  0.00  0.00    +0.000 N 
ATOM     18  C   UNL     1      -0.933   9.751  18.285  0.00  0.00    +0.000 C 
ATOM     19  C   UNL     1       0.584   9.904  18.407  0.00  0.00    +0.000 C 
ATOM     20  N   UNL     1       1.012  10.181  19.817  0.00  0.00    +0.000 NA
ATOM     21  C   UNL     1       0.350  11.454  20.274  0.00  0.00    +0.000 C 
ATOM     22  C   UNL     1      -1.193  11.381  20.169  0.00  0.00    +0.000 C 
BRANCH  17  29
ATOM     23  C   UNL     1      -5.844  13.050  20.024  0.00  0.00    +0.000 C 
ATOM     24  C   UNL     1      -5.006  12.378  18.979  0.00  0.00    +0.000 A 
ATOM     25  C   UNL     1      -5.435  12.278  17.660  0.00  0.00    +0.000 A 
ATOM     26  C   UNL     1      -4.630  11.645  16.716  0.00  0.00    +0.000 A 
ATOM     27  C   UNL     1      -3.372  11.112  17.060  0.00  0.00    +0.000 A 
ATOM     28  C   UNL     1      -2.632  10.383  15.967  0.00  0.00    +0.000 C 
ATOM     29  C   UNL     1      -2.890  11.257  18.382  0.00  0.00    +0.000 A 
ATOM     30  C   UNL     1      -3.750  11.865  19.322  0.00  0.00    +0.000 A 
ENDBRANCH  17  29
ENDBRANCH   1  20
TORSDOF 3
ENDMDL
MODEL 2
REMARK VINA RESULT:      -8.5      0.754      1.811
REMARK  Name = 
REMARK  8 active torsions:
REMARK  status: ('A' for Active; 'I' for Inactive)
REMARK    1  A    between atoms: C_1  and  C_2
REMARK    2  A    between atoms: C_5  and  C_6
REMARK    3  A    between atoms: C_7  and  N_8
REMARK    4  A    between atoms: N_11  and  S_12
REMARK    5  A    between atoms: S_12  and  C_15
REMARK    6  A    between atoms: C_21  and  C_22
REMARK    7  A    between atoms: C_21  and  C_23
REMARK    8  A    between atoms: N_26  and  C_27
REMARK                            x       y       z     vdW  Elec       q    Type
REMARK                         _______ _______ _______ _____ _____    ______ ____
ROOT
ATOM      1  S   UNL     1       1.068   8.552  21.054  0.00  0.00    +0.000 S 
ATOM      2  O   UNL     1       1.852   8.707  22.263  0.00  0.00    +0.000 OA
ATOM      3  O   UNL     1      -0.359   8.316  21.124  0.00  0.00    +0.000 OA
ENDROOT
BRANCH   1   4
ATOM      4  C   UNL     1       1.781   7.238  20.104  0.00  0.00    +0.000 A 
ATOM      5  C   UNL     1       2.762   7.504  19.126  0.00  0.00    +0.000 A 
ATOM      6  C   UNL     1       3.414   6.444  18.476  0.00  0.00    +0.000 A 
ATOM      7  C   UNL     1       3.081   5.155  18.854  0.00  0.00    +0.000 A 
ATOM      8  C   UNL     1       2.121   4.909  19.838  0.00  0.00    +0.000 A 
ATOM      9  C   UNL     1       1.436   5.937  20.455  0.00  0.00    +0.000 A 
ATOM     10  C   UNL     1       2.028   3.429  20.116  0.00  0.00    +0.000 C 
ATOM     11  C   UNL     1       2.553   3.128  21.523  0.00  0.00    +0.000 C 
ATOM     12  C   UNL     1       0.609   2.915  19.903  0.00  0.00    +0.000 C 
ATOM     13  C   UNL     1       2.998   2.850  19.063  0.00  0.00    +0.000 C 
ATOM     14  O   UNL     1       3.217   1.663  18.870  0.00  0.00    +0.000 OA
ATOM     15  N   UNL     1       3.591   3.934  18.400  0.00  0.00    +0.000 N 
ATOM     16  C   UNL     1       4.562   3.794  17.348  0.00  0.00    +0.000 C 
ENDBRANCH   1   4
BRANCH   1  20
ATOM     17  N   UNL     1      -1.049  10.724  18.652  0.00  0.00    +0.000 N 
ATOM     18  C   UNL     1      -0.253   9.593  18.167  0.00  0.00    +0.000 C 
ATOM     19  C   UNL     1       1.210   9.754  18.585  0.00  0.00    +0.000 C 
ATOM     20  N   UNL     1       1.358   9.925  20.067  0.00  0.00    +0.000 NA
ATOM     21  C   UNL     1       0.589  11.150  20.484  0.00  0.00    +0.000 C 
ATOM     22  C   UNL     1      -0.905  11.067  20.085  0.00  0.00    +0.000 C 
BRANCH  17  29
ATOM     23  C   UNL     1      -3.696  10.161  14.586  0.00  0.00    +0.000 C 
ATOM     24  C   UNL     1      -3.588  10.728  15.970  0.00  0.00    +0.000 A 
ATOM     25  C   UNL     1      -4.665  11.362  16.579  0.00  0.00    +0.000 A 
ATOM     26  C   UNL     1      -4.528  11.878  17.865  0.00  0.00    +0.000 A 
ATOM     27  C   UNL     1      -3.320  11.759  18.581  0.00  0.00    +0.000 A 
ATOM     28  C   UNL     1      -3.274  12.428  19.932  0.00  0.00    +0.000 C 
ATOM     29  C   UNL     1      -2.232  11.064  18.004  0.00  0.00    +0.000 A 
ATOM     30  C   UNL     1      -2.392  10.592  16.684  0.00  0.00    +0.000 A 
ENDBRANCH  17  29
ENDBRANCH   1  20
TORSDOF 3
ENDMDL
MODEL 3
REMARK VINA RESULT:      -8.5      1.845      2.440
REMARK  Name = 
REMARK  8 active torsions:
REMARK  status: ('A' for Active; 'I' for Inactive)
REMARK    1  A    between atoms: C_1  and  C_2
REMARK    2  A    between atoms: C_5  and  C_6
REMARK    3  A    between atoms: C_7  and  N_8
REMARK    4  A    between atoms: N_11  and  S_12
REMARK    5  A    between atoms: S_12  and  C_15
REMARK    6  A    between atoms: C_21  and  C_22
REMARK    7  A    between atoms: C_21  and  C_23
REMARK    8  A    between atoms: N_26  and  C_27
REMARK                            x       y       z     vdW  Elec       q    Type
REMARK                         _______ _______ _______ _____ _____    ______ ____
ROOT
ATOM      1  S   UNL     1       0.837   8.901  21.059  0.00  0.00    +0.000 S 
ATOM      2  O   UNL     1       1.694   9.137  22.204  0.00  0.00    +0.000 OA
ATOM      3  O   UNL     1      -0.573   8.623  21.237  0.00  0.00    +0.000 OA
ENDROOT
BRANCH   1   4
ATOM      4  C   UNL     1       1.531   7.568  20.122  0.00  0.00    +0.000 A 
ATOM      5  C   UNL     1       2.424   7.819  19.060  0.00  0.00    +0.000 A 
ATOM      6  C   UNL     1       3.068   6.753  18.414  0.00  0.00    +0.000 A 
ATOM      7  C   UNL     1       2.819   5.473  18.879  0.00  0.00    +0.000 A 
ATOM      8  C   UNL     1       1.947   5.242  19.945  0.00  0.00    +0.000 A 
ATOM      9  C   UNL     1       1.267   6.274  20.562  0.00  0.00    +0.000 A 
ATOM     10  C   UNL     1       1.937   3.777  20.301  0.00  0.00    +0.000 C 
ATOM     11  C   UNL     1       2.579   3.569  21.677  0.00  0.00    +0.000 C 
ATOM     12  C   UNL     1       0.528   3.199  20.224  0.00  0.00    +0.000 C 
ATOM     13  C   UNL     1       2.848   3.181  19.206  0.00  0.00    +0.000 C 
ATOM     14  O   UNL     1       3.101   1.994  19.055  0.00  0.00    +0.000 OA
ATOM     15  N   UNL     1       3.344   4.250  18.447  0.00  0.00    +0.000 N 
ATOM     16  C   UNL     1       4.238   4.093  17.331  0.00  0.00    +0.000 C 
ENDBRANCH   1   4
BRANCH   1  20
ATOM     17  N   UNL     1      -1.019  12.249  20.496  0.00  0.00    +0.000 N 
ATOM     18  C   UNL     1      -1.351  11.046  19.727  0.00  0.00    +0.000 C 
ATOM     19  C   UNL     1      -0.105  10.499  19.029  0.00  0.00    +0.000 C 
ATOM     20  N   UNL     1       1.012  10.234  19.994  0.00  0.00    +0.000 NA
ATOM     21  C   UNL     1       1.360  11.526  20.685  0.00  0.00    +0.000 C 
ATOM     22  C   UNL     1       0.142  12.149  21.409  0.00  0.00    +0.000 C 
BRANCH  17  29
ATOM     23  C   UNL     1      -5.362  12.952  22.618  0.00  0.00    +0.000 C 
ATOM     24  C   UNL     1      -4.179  13.538  21.908  0.00  0.00    +0.000 A 
ATOM     25  C   UNL     1      -4.041  14.912  21.744  0.00  0.00    +0.000 A 
ATOM     26  C   UNL     1      -2.929  15.422  21.078  0.00  0.00    +0.000 A 
ATOM     27  C   UNL     1      -1.921  14.576  20.574  0.00  0.00    +0.000 A 
ATOM     28  C   UNL     1      -0.810  15.243  19.804  0.00  0.00    +0.000 C 
ATOM     29  C   UNL     1      -2.012  13.180  20.784  0.00  0.00    +0.000 A 
ATOM     30  C   UNL     1      -3.172  12.695  21.425  0.00  0.00    +0.000 A 
ENDBRANCH  17  29
ENDBRANCH   1  20
TORSDOF 3
ENDMDL
MODEL 4
REMARK VINA RESULT:      -8.5      3.602      8.926
REMARK  Name = 
REMARK  8 active torsions:
REMARK  status: ('A' for Active; 'I' for Inactive)
REMARK    1  A    between atoms: C_1  and  C_2
REMARK    2  A    between atoms: C_5  and  C_6
REMARK    3  A    between atoms: C_7  and  N_8
REMARK    4  A    between atoms: N_11  and  S_12
REMARK    5  A    between atoms: S_12  and  C_15
REMARK    6  A    between atoms: C_21  and  C_22
REMARK    7  A    between atoms: C_21  and  C_23
REMARK    8  A    between atoms: N_26  and  C_27
REMARK                            x       y       z     vdW  Elec       q    Type
REMARK                         _______ _______ _______ _____ _____    ______ ____
ROOT
ATOM      1  S   UNL     1       1.799   4.695  19.290  0.00  0.00    +0.000 S 
ATOM      2  O   UNL     1       1.566   4.291  17.918  0.00  0.00    +0.000 OA
ATOM      3  O   UNL     1       0.948   4.212  20.357  0.00  0.00    +0.000 OA
ENDROOT
BRANCH   1   4
ATOM      4  C   UNL     1       1.778   6.465  19.350  0.00  0.00    +0.000 A 
ATOM      5  C   UNL     1       1.934   7.229  18.175  0.00  0.00    +0.000 A 
ATOM      6  C   UNL     1       1.783   8.624  18.217  0.00  0.00    +0.000 A 
ATOM      7  C   UNL     1       1.448   9.199  19.431  0.00  0.00    +0.000 A 
ATOM      8  C   UNL     1       1.277   8.427  20.581  0.00  0.00    +0.000 A 
ATOM      9  C   UNL     1       1.469   7.059  20.569  0.00  0.00    +0.000 A 
ATOM     10  C   UNL     1       0.824   9.294  21.728  0.00  0.00    +0.000 C 
ATOM     11  C   UNL     1      -0.618   8.944  22.110  0.00  0.00    +0.000 C 
ATOM     12  C   UNL     1       1.780   9.189  22.912  0.00  0.00    +0.000 C 
ATOM     13  C   UNL     1       0.869  10.702  21.095  0.00  0.00    +0.000 C 
ATOM     14  O   UNL     1       0.627  11.752  21.671  0.00  0.00    +0.000 OA
ATOM     15  N   UNL     1       1.208  10.542  19.744  0.00  0.00    +0.000 N 
ATOM     16  C   UNL     1       1.342  11.634  18.818  0.00  0.00    +0.000 C 
ENDBRANCH   1   4
BRANCH   1  20
ATOM     17  N   UNL     1       5.116   4.482  17.310  0.00  0.00    +0.000 N 
ATOM     18  C   UNL     1       4.280   3.301  17.541  0.00  0.00    +0.000 C 
ATOM     19  C   UNL     1       4.030   3.109  19.038  0.00  0.00    +0.000 C 
ATOM     20  N   UNL     1       3.431   4.329  19.671  0.00  0.00    +0.000 NA
ATOM     21  C   UNL     1       4.377   5.482  19.472  0.00  0.00    +0.000 C 
ATOM     22  C   UNL     1       4.689   5.733  17.977  0.00  0.00    +0.000 C 
BRANCH  17  29
ATOM     23  C   UNL     1       5.427   3.181  12.613  0.00  0.00    +0.000 C 
ATOM     24  C   UNL     1       5.994   3.960  13.761  0.00  0.00    +0.000 A 
ATOM     25  C   UNL     1       7.066   4.829  13.588  0.00  0.00    +0.000 A 
ATOM     26  C   UNL     1       7.567   5.536  14.677  0.00  0.00    +0.000 A 
ATOM     27  C   UNL     1       7.003   5.406  15.962  0.00  0.00    +0.000 A 
ATOM     28  C   UNL     1       7.686   6.163  17.073  0.00  0.00    +0.000 C 
ATOM     29  C   UNL     1       5.875   4.575  16.148  0.00  0.00    +0.000 A 
ATOM     30  C   UNL     1       5.419   3.841  15.032  0.00  0.00    +0.000 A 
ENDBRANCH  17  29
ENDBRANCH   1  20
TORSDOF 3
ENDMDL
MODEL 5
REMARK VINA RESULT:      -8.4      0.889      1.840
REMARK  Name = 
REMARK  8 active torsions:
REMARK  status: ('A' for Active; 'I' for Inactive)
REMARK    1  A    between atoms: C_1  and  C_2
REMARK    2  A    between atoms: C_5  and  C_6
REMARK    3  A    between atoms: C_7  and  N_8
REMARK    4  A    between atoms: N_11  and  S_12
REMARK    5  A    between atoms: S_12  and  C_15
REMARK    6  A    between atoms: C_21  and  C_22
REMARK    7  A    between atoms: C_21  and  C_23
REMARK    8  A    between atoms: N_26  and  C_27
REMARK                            x       y       z     vdW  Elec       q    Type
REMARK                         _______ _______ _______ _____ _____    ______ ____
ROOT
ATOM      1  S   UNL     1       0.962   8.693  21.074  0.00  0.00    +0.000 S 
ATOM      2  O   UNL     1       1.831   8.936  22.208  0.00  0.00    +0.000 OA
ATOM      3  O   UNL     1      -0.440   8.388  21.270  0.00  0.00    +0.000 OA
ENDROOT
BRANCH   1   4
ATOM      4  C   UNL     1       1.666   7.380  20.117  0.00  0.00    +0.000 A 
ATOM      5  C   UNL     1       2.600   7.651  19.095  0.00  0.00    +0.000 A 
ATOM      6  C   UNL     1       3.250   6.596  18.436  0.00  0.00    +0.000 A 
ATOM      7  C   UNL     1       2.963   5.306  18.849  0.00  0.00    +0.000 A 
ATOM      8  C   UNL     1       2.051   5.054  19.875  0.00  0.00    +0.000 A 
ATOM      9  C   UNL     1       1.367   6.077  20.503  0.00  0.00    +0.000 A 
ATOM     10  C   UNL     1       2.004   3.578  20.181  0.00  0.00    +0.000 C 
ATOM     11  C   UNL     1       2.594   3.314  21.570  0.00  0.00    +0.000 C 
ATOM     12  C   UNL     1       0.590   3.028  20.035  0.00  0.00    +0.000 C 
ATOM     13  C   UNL     1       2.944   3.004  19.098  0.00  0.00    +0.000 C 
ATOM     14  O   UNL     1       3.182   1.819  18.915  0.00  0.00    +0.000 OA
ATOM     15  N   UNL     1       3.483   4.089  18.393  0.00  0.00    +0.000 N 
ATOM     16  C   UNL     1       4.413   3.953  17.304  0.00  0.00    +0.000 C 
ENDBRANCH   1   4
BRANCH   1  20
ATOM     17  N   UNL     1      -1.418  11.478  19.830  0.00  0.00    +0.000 N 
ATOM     18  C   UNL     1      -1.223  10.238  19.075  0.00  0.00    +0.000 C 
ATOM     19  C   UNL     1       0.260  10.025  18.773  0.00  0.00    +0.000 C 
ATOM     20  N   UNL     1       1.097  10.037  20.017  0.00  0.00    +0.000 NA
ATOM     21  C   UNL     1       0.918  11.368  20.697  0.00  0.00    +0.000 C 
ATOM     22  C   UNL     1      -0.566  11.663  21.027  0.00  0.00    +0.000 C 
BRANCH  17  29
ATOM     23  C   UNL     1      -5.812  11.599  17.703  0.00  0.00    +0.000 C 
ATOM     24  C   UNL     1      -4.883  12.149  18.743  0.00  0.00    +0.000 A 
ATOM     25  C   UNL     1      -5.312  13.088  19.674  0.00  0.00    +0.000 A 
ATOM     26  C   UNL     1      -4.421  13.577  20.625  0.00  0.00    +0.000 A 
ATOM     27  C   UNL     1      -3.085  13.131  20.681  0.00  0.00    +0.000 A 
ATOM     28  C   UNL     1      -2.200  13.794  21.705  0.00  0.00    +0.000 C 
ATOM     29  C   UNL     1      -2.645  12.131  19.783  0.00  0.00    +0.000 A 
ATOM     30  C   UNL     1      -3.563  11.689  18.806  0.00  0.00    +0.000 A 
ENDBRANCH  17  29
ENDBRANCH   1  20
TORSDOF 3
ENDMDL
MODEL 6
REMARK VINA RESULT:      -8.3      3.390      9.250
REMARK  Name = 
REMARK  8 active torsions:
REMARK  status: ('A' for Active; 'I' for Inactive)
REMARK    1  A    between atoms: C_1  and  C_2
REMARK    2  A    between atoms: C_5  and  C_6
REMARK    3  A    between atoms: C_7  and  N_8
REMARK    4  A    between atoms: N_11  and  S_12
REMARK    5  A    between atoms: S_12  and  C_15
REMARK    6  A    between atoms: C_21  and  C_22
REMARK    7  A    between atoms: C_21  and  C_23
REMARK    8  A    between atoms: N_26  and  C_27
REMARK                            x       y       z     vdW  Elec       q    Type
REMARK                         _______ _______ _______ _____ _____    ______ ____
ROOT
ATOM      1  S   UNL     1       3.304   5.440  18.537  0.00  0.00    +0.000 S 
ATOM      2  O   UNL     1       2.784   4.906  17.294  0.00  0.00    +0.000 OA
ATOM      3  O   UNL     1       3.130   4.719  19.780  0.00  0.00    +0.000 OA
ENDROOT
BRANCH   1   4
ATOM      4  C   UNL     1       2.628   7.062  18.761  0.00  0.00    +0.000 A 
ATOM      5  C   UNL     1       2.493   7.945  17.669  0.00  0.00    +0.000 A 
ATOM      6  C   UNL     1       1.835   9.174  17.834  0.00  0.00    +0.000 A 
ATOM      7  C   UNL     1       1.306   9.458  19.081  0.00  0.00    +0.000 A 
ATOM      8  C   UNL     1       1.431   8.565  20.147  0.00  0.00    +0.000 A 
ATOM      9  C   UNL     1       2.117   7.373  20.016  0.00  0.00    +0.000 A 
ATOM     10  C   UNL     1       0.685   9.083  21.351  0.00  0.00    +0.000 C 
ATOM     11  C   UNL     1      -0.525   8.190  21.639  0.00  0.00    +0.000 C 
ATOM     12  C   UNL     1       1.608   9.219  22.557  0.00  0.00    +0.000 C 
ATOM     13  C   UNL     1       0.207  10.465  20.853  0.00  0.00    +0.000 C 
ATOM     14  O   UNL     1      -0.409  11.288  21.515  0.00  0.00    +0.000 OA
ATOM     15  N   UNL     1       0.585  10.579  19.508  0.00  0.00    +0.000 N 
ATOM     16  C   UNL     1       0.307  11.731  18.694  0.00  0.00    +0.000 C 
ENDBRANCH   1   4
BRANCH   1  20
ATOM     17  N   UNL     1       5.829   4.999  15.640  0.00  0.00    +0.000 N 
ATOM     18  C   UNL     1       5.662   3.978  16.678  0.00  0.00    +0.000 C 
ATOM     19  C   UNL     1       5.875   4.588  18.064  0.00  0.00    +0.000 C 
ATOM     20  N   UNL     1       4.973   5.761  18.308  0.00  0.00    +0.000 NA
ATOM     21  C   UNL     1       5.256   6.805  17.261  0.00  0.00    +0.000 C 
ATOM     22  C   UNL     1       5.072   6.258  15.824  0.00  0.00    +0.000 C 
BRANCH  17  29
ATOM     23  C   UNL     1       4.306   2.799  11.554  0.00  0.00    +0.000 C 
ATOM     24  C   UNL     1       5.384   3.557  12.268  0.00  0.00    +0.000 A 
ATOM     25  C   UNL     1       6.529   3.986  11.606  0.00  0.00    +0.000 A 
ATOM     26  C   UNL     1       7.510   4.688  12.303  0.00  0.00    +0.000 A 
ATOM     27  C   UNL     1       7.365   4.993  13.671  0.00  0.00    +0.000 A 
ATOM     28  C   UNL     1       8.531   5.687  14.329  0.00  0.00    +0.000 C 
ATOM     29  C   UNL     1       6.181   4.620  14.348  0.00  0.00    +0.000 A 
ATOM     30  C   UNL     1       5.228   3.874  13.623  0.00  0.00    +0.000 A 
ENDBRANCH  17  29
ENDBRANCH   1  20
TORSDOF 3
ENDMDL
MODEL 7
REMARK VINA RESULT:      -8.3      2.172      3.654
REMARK  Name = 
REMARK  8 active torsions:
REMARK  status: ('A' for Active; 'I' for Inactive)
REMARK    1  A    between atoms: C_1  and  C_2
REMARK    2  A    between atoms: C_5  and  C_6
REMARK    3  A    between atoms: C_7  and  N_8
REMARK    4  A    between atoms: N_11  and  S_12
REMARK    5  A    between atoms: S_12  and  C_15
REMARK    6  A    between atoms: C_21  and  C_22
REMARK    7  A    between atoms: C_21  and  C_23
REMARK    8  A    between atoms: N_26  and  C_27
REMARK                            x       y       z     vdW  Elec       q    Type
REMARK                         _______ _______ _______ _____ _____    ______ ____
ROOT
ATOM      1  S   UNL     1       1.571   9.575  18.070  0.00  0.00    +0.000 S 
ATOM      2  O   UNL     1       0.301   9.148  17.517  0.00  0.00    +0.000 OA
ATOM      3  O   UNL     1       2.412  10.510  17.354  0.00  0.00    +0.000 OA
ENDROOT
BRANCH   1   4
ATOM      4  C   UNL     1       2.538   8.127  18.396  0.00  0.00    +0.000 A 
ATOM      5  C   UNL     1       2.064   7.121  19.263  0.00  0.00    +0.000 A 
ATOM      6  C   UNL     1       2.778   5.922  19.408  0.00  0.00    +0.000 A 
ATOM      7  C   UNL     1       3.926   5.761  18.652  0.00  0.00    +0.000 A 
ATOM      8  C   UNL     1       4.372   6.758  17.783  0.00  0.00    +0.000 A 
ATOM      9  C   UNL     1       3.709   7.964  17.663  0.00  0.00    +0.000 A 
ATOM     10  C   UNL     1       5.583   6.281  17.021  0.00  0.00    +0.000 C 
ATOM     11  C   UNL     1       5.232   6.105  15.540  0.00  0.00    +0.000 C 
ATOM     12  C   UNL     1       6.771   7.215  17.230  0.00  0.00    +0.000 C 
ATOM     13  C   UNL     1       5.836   4.900  17.664  0.00  0.00    +0.000 C 
ATOM     14  O   UNL     1       6.762   4.147  17.399  0.00  0.00    +0.000 OA
ATOM     15  N   UNL     1       4.798   4.669  18.578  0.00  0.00    +0.000 N 
ATOM     16  C   UNL     1       4.684   3.476  19.374  0.00  0.00    +0.000 C 
ENDBRANCH   1   4
BRANCH   1  20
ATOM     17  N   UNL     1      -1.311  11.501  19.787  0.00  0.00    +0.000 N 
ATOM     18  C   UNL     1      -0.164  12.197  19.198  0.00  0.00    +0.000 C 
ATOM     19  C   UNL     1       1.142  11.672  19.796  0.00  0.00    +0.000 C 
ATOM     20  N   UNL     1       1.274  10.186  19.645  0.00  0.00    +0.000 NA
ATOM     21  C   UNL     1       0.113   9.531  20.345  0.00  0.00    +0.000 C 
ATOM     22  C   UNL     1      -1.251  10.022  19.800  0.00  0.00    +0.000 C 
BRANCH  17  29
ATOM     23  C   UNL     1      -5.659  11.775  17.578  0.00  0.00    +0.000 C 
ATOM     24  C   UNL     1      -4.774  12.203  18.709  0.00  0.00    +0.000 A 
ATOM     25  C   UNL     1      -5.257  12.988  19.751  0.00  0.00    +0.000 A 
ATOM     26  C   UNL     1      -4.405  13.369  20.784  0.00  0.00    +0.000 A 
ATOM     27  C   UNL     1      -3.056  12.963  20.814  0.00  0.00    +0.000 A 
ATOM     28  C   UNL     1      -2.218  13.505  21.944  0.00  0.00    +0.000 C 
ATOM     29  C   UNL     1      -2.560  12.114  19.798  0.00  0.00    +0.000 A 
ATOM     30  C   UNL     1      -3.439  11.783  18.744  0.00  0.00    +0.000 A 
ENDBRANCH  17  29
ENDBRANCH   1  20
TORSDOF 3
ENDMDL
MODEL 8
REMARK VINA RESULT:      -8.3      2.935      4.463
REMARK  Name = 
REMARK  8 active torsions:
REMARK  status: ('A' for Active; 'I' for Inactive)
REMARK    1  A    between atoms: C_1  and  C_2
REMARK    2  A    between atoms: C_5  and  C_6
REMARK    3  A    between atoms: C_7  and  N_8
REMARK    4  A    between atoms: N_11  and  S_12
REMARK    5  A    between atoms: S_12  and  C_15
REMARK    6  A    between atoms: C_21  and  C_22
REMARK    7  A    between atoms: C_21  and  C_23
REMARK    8  A    between atoms: N_26  and  C_27
REMARK                            x       y       z     vdW  Elec       q    Type
REMARK                         _______ _______ _______ _____ _____    ______ ____
ROOT
ATOM      1  S   UNL     1       1.380   9.484  18.247  0.00  0.00    +0.000 S 
ATOM      2  O   UNL     1       0.400   9.144  17.235  0.00  0.00    +0.000 OA
ATOM      3  O   UNL     1       2.256  10.623  18.073  0.00  0.00    +0.000 OA
ENDROOT
BRANCH   1   4
ATOM      4  C   UNL     1       2.400   8.062  18.521  0.00  0.00    +0.000 A 
ATOM      5  C   UNL     1       1.977   7.024  19.377  0.00  0.00    +0.000 A 
ATOM      6  C   UNL     1       2.732   5.845  19.481  0.00  0.00    +0.000 A 
ATOM      7  C   UNL     1       3.868   5.737  18.697  0.00  0.00    +0.000 A 
ATOM      8  C   UNL     1       4.263   6.766  17.840  0.00  0.00    +0.000 A 
ATOM      9  C   UNL     1       3.559   7.952  17.760  0.00  0.00    +0.000 A 
ATOM     10  C   UNL     1       5.471   6.344  17.042  0.00  0.00    +0.000 C 
ATOM     11  C   UNL     1       5.093   6.188  15.566  0.00  0.00    +0.000 C 
ATOM     12  C   UNL     1       6.632   7.311  17.245  0.00  0.00    +0.000 C 
ATOM     13  C   UNL     1       5.782   4.959  17.650  0.00  0.00    +0.000 C 
ATOM     14  O   UNL     1       6.725   4.242  17.349  0.00  0.00    +0.000 OA
ATOM     15  N   UNL     1       4.772   4.675  18.581  0.00  0.00    +0.000 N 
ATOM     16  C   UNL     1       4.714   3.463  19.353  0.00  0.00    +0.000 C 
ENDBRANCH   1   4
BRANCH   1  20
ATOM     17  N   UNL     1      -0.222  12.398  20.224  0.00  0.00    +0.000 N 
ATOM     18  C   UNL     1       1.157  11.968  20.469  0.00  0.00    +0.000 C 
ATOM     19  C   UNL     1       1.198  10.477  20.805  0.00  0.00    +0.000 C 
ATOM     20  N   UNL     1       0.552   9.641  19.741  0.00  0.00    +0.000 NA
ATOM     21  C   UNL     1      -0.883  10.076  19.600  0.00  0.00    +0.000 C 
ATOM     22  C   UNL     1      -1.008  11.583  19.270  0.00  0.00    +0.000 C 
BRANCH  17  29
ATOM     23  C   UNL     1      -0.366  16.812  18.137  0.00  0.00    +0.000 C 
ATOM     24  C   UNL     1      -0.693  15.948  19.317  0.00  0.00    +0.000 A 
ATOM     25  C   UNL     1      -1.444  16.431  20.383  0.00  0.00    +0.000 A 
ATOM     26  C   UNL     1      -1.728  15.600  21.464  0.00  0.00    +0.000 A 
ATOM     27  C   UNL     1      -1.284  14.263  21.501  0.00  0.00    +0.000 A 
ATOM     28  C   UNL     1      -1.589  13.491  22.760  0.00  0.00    +0.000 C 
ATOM     29  C   UNL     1      -0.572  13.733  20.400  0.00  0.00    +0.000 A 
ATOM     30  C   UNL     1      -0.265  14.615  19.341  0.00  0.00    +0.000 A 
ENDBRANCH  17  29
ENDBRANCH   1  20
TORSDOF 3
ENDMDL
MODEL 9
REMARK VINA RESULT:      -8.2      2.451      3.493
REMARK  Name = 
REMARK  8 active torsions:
REMARK  status: ('A' for Active; 'I' for Inactive)
REMARK    1  A    between atoms: C_1  and  C_2
REMARK    2  A    between atoms: C_5  and  C_6
REMARK    3  A    between atoms: C_7  and  N_8
REMARK    4  A    between atoms: N_11  and  S_12
REMARK    5  A    between atoms: S_12  and  C_15
REMARK    6  A    between atoms: C_21  and  C_22
REMARK    7  A    between atoms: C_21  and  C_23
REMARK    8  A    between atoms: N_26  and  C_27
REMARK                            x       y       z     vdW  Elec       q    Type
REMARK                         _______ _______ _______ _____ _____    ______ ____
ROOT
ATOM      1  S   UNL     1       0.750   8.911  20.967  0.00  0.00    +0.000 S 
ATOM      2  O   UNL     1       1.744   9.552  21.805  0.00  0.00    +0.000 OA
ATOM      3  O   UNL     1      -0.478   8.399  21.538  0.00  0.00    +0.000 OA
ENDROOT
BRANCH   1   4
ATOM      4  C   UNL     1       1.538   7.576  20.109  0.00  0.00    +0.000 A 
ATOM      5  C   UNL     1       2.519   7.828  19.127  0.00  0.00    +0.000 A 
ATOM      6  C   UNL     1       3.229   6.763  18.551  0.00  0.00    +0.000 A 
ATOM      7  C   UNL     1       2.951   5.484  19.005  0.00  0.00    +0.000 A 
ATOM      8  C   UNL     1       1.991   5.253  19.991  0.00  0.00    +0.000 A 
ATOM      9  C   UNL     1       1.249   6.284  20.535  0.00  0.00    +0.000 A 
ATOM     10  C   UNL     1       1.963   3.791  20.359  0.00  0.00    +0.000 C 
ATOM     11  C   UNL     1       2.481   3.603  21.788  0.00  0.00    +0.000 C 
ATOM     12  C   UNL     1       0.572   3.198  20.163  0.00  0.00    +0.000 C 
ATOM     13  C   UNL     1       2.973   3.195  19.355  0.00  0.00    +0.000 C 
ATOM     14  O   UNL     1       3.250   2.010  19.239  0.00  0.00    +0.000 OA
ATOM     15  N   UNL     1       3.524   4.263  18.633  0.00  0.00    +0.000 N 
ATOM     16  C   UNL     1       4.516   4.105  17.603  0.00  0.00    +0.000 C 
ENDBRANCH   1   4
BRANCH   1  20
ATOM     17  N   UNL     1      -0.249  12.640  20.725  0.00  0.00    +0.000 N 
ATOM     18  C   UNL     1      -1.254  11.577  20.786  0.00  0.00    +0.000 C 
ATOM     19  C   UNL     1      -1.024  10.560  19.667  0.00  0.00    +0.000 C 
ATOM     20  N   UNL     1       0.364   9.995  19.695  0.00  0.00    +0.000 NA
ATOM     21  C   UNL     1       1.343  11.128  19.541  0.00  0.00    +0.000 C 
ATOM     22  C   UNL     1       1.165  12.208  20.636  0.00  0.00    +0.000 C 
BRANCH  17  29
ATOM     23  C   UNL     1      -1.379  15.055  24.817  0.00  0.00    +0.000 C 
ATOM     24  C   UNL     1      -1.042  15.107  23.357  0.00  0.00    +0.000 A 
ATOM     25  C   UNL     1      -0.850  16.317  22.700  0.00  0.00    +0.000 A 
ATOM     26  C   UNL     1      -0.540  16.327  21.343  0.00  0.00    +0.000 A 
ATOM     27  C   UNL     1      -0.397  15.130  20.611  0.00  0.00    +0.000 A 
ATOM     28  C   UNL     1      -0.138  15.276  19.133  0.00  0.00    +0.000 C 
ATOM     29  C   UNL     1      -0.527  13.888  21.274  0.00  0.00    +0.000 A 
ATOM     30  C   UNL     1      -0.884  13.916  22.639  0.00  0.00    +0.000 A 
ENDBRANCH  17  29
ENDBRANCH   1  20
TORSDOF 3
ENDMDL
