MODEL 1
REMARK VINA RESULT:      -6.6      0.000      0.000
REMARK  Name = 
REMARK  4 active torsions:
REMARK  status: ('A' for Active; 'I' for Inactive)
REMARK    1  A    between atoms: C_1  and  C_2
REMARK    2  A    between atoms: C_8  and  C_9
REMARK    3  A    between atoms: C_9  and  C_11
REMARK    4  A    between atoms: C_16  and  C_18
REMARK                            x       y       z     vdW  Elec       q    Type
REMARK                         _______ _______ _______ _____ _____    ______ ____
ROOT
ATOM      1  C   UNL     1       4.118   3.047  17.619  0.00  0.00    +0.000 C 
ATOM      2  C   UNL     1       2.720   2.785  17.023  0.00  0.00    +0.000 C 
ATOM      3  C   UNL     1       1.606   3.785  17.374  0.00  0.00    +0.000 C 
ATOM      4  C   UNL     1       1.717   4.390  18.763  0.00  0.00    +0.000 C 
ATOM      5  N   UNL     1       3.081   4.824  19.013  0.00  0.00    +0.000 N 
ATOM      6  C   UNL     1       3.500   6.119  19.347  0.00  0.00    +0.000 C 
ATOM      7  O   UNL     1       4.607   6.313  19.855  0.00  0.00    +0.000 OA
ATOM      8  C   UNL     1       4.061   3.748  18.989  0.00  0.00    +0.000 C 
ENDROOT
BRANCH   6   9
ATOM      9  C   UNL     1       2.608   7.275  19.128  0.00  0.00    +0.000 A 
ATOM     10  C   UNL     1       1.849   7.880  20.195  0.00  0.00    +0.000 A 
ATOM     11  N   UNL     1       1.082   8.922  19.865  0.00  0.00    +0.000 NA
ATOM     12  S   UNL     1       1.379   9.152  18.237  0.00  0.00    +0.000 S 
ATOM     13  N   UNL     1       2.464   7.910  17.955  0.00  0.00    +0.000 NA
ENDBRANCH   6   9
BRANCH   1  14
ATOM     14  C   UNL     1       5.070   3.781  16.653  0.00  0.00    +0.000 C 
ATOM     15  O   UNL     1       5.094   3.487  15.462  0.00  0.00    +0.000 OA
BRANCH  14  23
ATOM     16  C   UNL     1       4.827   6.674  15.664  0.00  0.00    +0.000 C 
ATOM     17  C   UNL     1       5.841   6.238  16.692  0.00  0.00    +0.000 A 
ATOM     18  C   UNL     1       6.693   7.242  17.205  0.00  0.00    +0.000 A 
ATOM     19  C   UNL     1       7.656   6.941  18.162  0.00  0.00    +0.000 A 
ATOM     20 CL   UNL     1       8.685   8.179  18.767  0.00  0.00    +0.000 Cl
ATOM     21  C   UNL     1       7.782   5.641  18.629  0.00  0.00    +0.000 A 
ATOM     22  C   UNL     1       6.946   4.633  18.136  0.00  0.00    +0.000 A 
ATOM     23  C   UNL     1       5.964   4.904  17.163  0.00  0.00    +0.000 A 
ENDBRANCH  14  23
ENDBRANCH   1  14
TORSDOF 3
ENDMDL
MODEL 2
REMARK VINA RESULT:      -6.5      3.703      6.355
REMARK  Name = 
REMARK  4 active torsions:
REMARK  status: ('A' for Active; 'I' for Inactive)
REMARK    1  A    between atoms: C_1  and  C_2
REMARK    2  A    between atoms: C_8  and  C_9
REMARK    3  A    between atoms: C_9  and  C_11
REMARK    4  A    between atoms: C_16  and  C_18
REMARK                            x       y       z     vdW  Elec       q    Type
REMARK                         _______ _______ _______ _____ _____    ______ ____
ROOT
ATOM      1  C   UNL     1       1.592   6.245  19.063  0.00  0.00    +0.000 C 
ATOM      2  C   UNL     1       1.758   5.439  20.368  0.00  0.00    +0.000 C 
ATOM      3  C   UNL     1       3.053   4.627  20.535  0.00  0.00    +0.000 C 
ATOM      4  C   UNL     1       3.615   4.065  19.241  0.00  0.00    +0.000 C 
ATOM      5  N   UNL     1       3.619   5.087  18.209  0.00  0.00    +0.000 N 
ATOM      6  C   UNL     1       4.730   5.549  17.491  0.00  0.00    +0.000 C 
ATOM      7  O   UNL     1       4.587   6.162  16.431  0.00  0.00    +0.000 OA
ATOM      8  C   UNL     1       2.297   5.587  17.862  0.00  0.00    +0.000 C 
ENDROOT
BRANCH   6   9
ATOM      9  C   UNL     1       6.099   5.277  17.974  0.00  0.00    +0.000 A 
ATOM     10  C   UNL     1       7.030   4.455  17.240  0.00  0.00    +0.000 A 
ATOM     11  N   UNL     1       8.238   4.291  17.785  0.00  0.00    +0.000 NA
ATOM     12  S   UNL     1       8.194   5.221  19.172  0.00  0.00    +0.000 S 
ATOM     13  N   UNL     1       6.629   5.809  19.086  0.00  0.00    +0.000 NA
ENDBRANCH   6   9
BRANCH   1  14
ATOM     14  C   UNL     1       1.991   7.728  19.203  0.00  0.00    +0.000 C 
ATOM     15  O   UNL     1       2.913   8.189  18.537  0.00  0.00    +0.000 OA
BRANCH  14  23
ATOM     16  C   UNL     1       0.098   9.923  18.202  0.00  0.00    +0.000 C 
ATOM     17  C   UNL     1       0.351   9.658  19.665  0.00  0.00    +0.000 A 
ATOM     18  C   UNL     1      -0.345  10.476  20.585  0.00  0.00    +0.000 A 
ATOM     19  C   UNL     1      -0.184  10.305  21.955  0.00  0.00    +0.000 A 
ATOM     20 CL   UNL     1      -1.037  11.315  23.055  0.00  0.00    +0.000 Cl
ATOM     21  C   UNL     1       0.663   9.315  22.433  0.00  0.00    +0.000 A 
ATOM     22  C   UNL     1       1.357   8.494  21.539  0.00  0.00    +0.000 A 
ATOM     23  C   UNL     1       1.221   8.644  20.145  0.00  0.00    +0.000 A 
ENDBRANCH  14  23
ENDBRANCH   1  14
TORSDOF 3
ENDMDL
MODEL 3
REMARK VINA RESULT:      -6.5      4.234      6.313
REMARK  Name = 
REMARK  4 active torsions:
REMARK  status: ('A' for Active; 'I' for Inactive)
REMARK    1  A    between atoms: C_1  and  C_2
REMARK    2  A    between atoms: C_8  and  C_9
REMARK    3  A    between atoms: C_9  and  C_11
REMARK    4  A    between atoms: C_16  and  C_18
REMARK                            x       y       z     vdW  Elec       q    Type
REMARK                         _______ _______ _______ _____ _____    ______ ____
ROOT
ATOM      1  C   UNL     1       4.740   5.582  18.527  0.00  0.00    +0.000 C 
ATOM      2  C   UNL     1       3.863   6.584  17.747  0.00  0.00    +0.000 C 
ATOM      3  C   UNL     1       4.315   6.959  16.326  0.00  0.00    +0.000 C 
ATOM      4  C   UNL     1       5.822   6.985  16.131  0.00  0.00    +0.000 C 
ATOM      5  N   UNL     1       6.423   5.796  16.711  0.00  0.00    +0.000 N 
ATOM      6  C   UNL     1       7.213   4.848  16.047  0.00  0.00    +0.000 C 
ATOM      7  O   UNL     1       7.936   4.075  16.678  0.00  0.00    +0.000 OA
ATOM      8  C   UNL     1       6.230   5.673  18.148  0.00  0.00    +0.000 C 
ENDROOT
BRANCH   6   9
ATOM      9  C   UNL     1       7.220   4.781  14.572  0.00  0.00    +0.000 A 
ATOM     10  C   UNL     1       6.343   3.906  13.833  0.00  0.00    +0.000 A 
ATOM     11  N   UNL     1       6.448   3.943  12.501  0.00  0.00    +0.000 NA
ATOM     12  S   UNL     1       7.600   5.118  12.212  0.00  0.00    +0.000 S 
ATOM     13  N   UNL     1       7.978   5.556  13.782  0.00  0.00    +0.000 NA
ENDBRANCH   6   9
BRANCH   1  14
ATOM     14  C   UNL     1       4.229   4.129  18.447  0.00  0.00    +0.000 C 
ATOM     15  O   UNL     1       4.608   3.385  17.548  0.00  0.00    +0.000 OA
BRANCH  14  23
ATOM     16  C   UNL     1       1.182   4.171  18.108  0.00  0.00    +0.000 C 
ATOM     17  C   UNL     1       1.866   3.623  19.336  0.00  0.00    +0.000 A 
ATOM     18  C   UNL     1       1.027   3.106  20.349  0.00  0.00    +0.000 A 
ATOM     19  C   UNL     1       1.562   2.572  21.515  0.00  0.00    +0.000 A 
ATOM     20 CL   UNL     1       0.521   1.953  22.736  0.00  0.00    +0.000 Cl
ATOM     21  C   UNL     1       2.938   2.536  21.690  0.00  0.00    +0.000 A 
ATOM     22  C   UNL     1       3.785   3.041  20.698  0.00  0.00    +0.000 A 
ATOM     23  C   UNL     1       3.275   3.593  19.507  0.00  0.00    +0.000 A 
ENDBRANCH  14  23
ENDBRANCH   1  14
TORSDOF 3
ENDMDL
MODEL 4
REMARK VINA RESULT:      -6.4      3.589      4.839
REMARK  Name = 
REMARK  4 active torsions:
REMARK  status: ('A' for Active; 'I' for Inactive)
REMARK    1  A    between atoms: C_1  and  C_2
REMARK    2  A    between atoms: C_8  and  C_9
REMARK    3  A    between atoms: C_9  and  C_11
REMARK    4  A    between atoms: C_16  and  C_18
REMARK                            x       y       z     vdW  Elec       q    Type
REMARK                         _______ _______ _______ _____ _____    ______ ____
ROOT
ATOM      1  C   UNL     1       6.721   5.985  16.394  0.00  0.00    +0.000 C 
ATOM      2  C   UNL     1       7.172   4.559  16.771  0.00  0.00    +0.000 C 
ATOM      3  C   UNL     1       6.290   3.779  17.760  0.00  0.00    +0.000 C 
ATOM      4  C   UNL     1       5.605   4.642  18.807  0.00  0.00    +0.000 C 
ATOM      5  N   UNL     1       5.005   5.808  18.183  0.00  0.00    +0.000 N 
ATOM      6  C   UNL     1       3.655   6.181  18.228  0.00  0.00    +0.000 C 
ATOM      7  O   UNL     1       3.309   7.333  17.958  0.00  0.00    +0.000 OA
ATOM      8  C   UNL     1       5.961   6.691  17.532  0.00  0.00    +0.000 C 
ENDROOT
BRANCH   6   9
ATOM      9  C   UNL     1       2.622   5.208  18.637  0.00  0.00    +0.000 A 
ATOM     10  C   UNL     1       2.049   4.256  17.718  0.00  0.00    +0.000 A 
ATOM     11  N   UNL     1       1.125   3.429  18.215  0.00  0.00    +0.000 NA
ATOM     12  S   UNL     1       1.046   3.828  19.836  0.00  0.00    +0.000 S 
ATOM     13  N   UNL     1       2.169   5.067  19.892  0.00  0.00    +0.000 NA
ENDBRANCH   6   9
BRANCH   1  14
ATOM     14  C   UNL     1       5.932   6.049  15.069  0.00  0.00    +0.000 C 
ATOM     15  O   UNL     1       5.179   6.989  14.840  0.00  0.00    +0.000 OA
BRANCH  14  23
ATOM     16  C   UNL     1       8.360   5.929  13.199  0.00  0.00    +0.000 C 
ATOM     17  C   UNL     1       7.238   4.921  13.158  0.00  0.00    +0.000 A 
ATOM     18  C   UNL     1       7.355   3.884  12.204  0.00  0.00    +0.000 A 
ATOM     19  C   UNL     1       6.376   2.904  12.093  0.00  0.00    +0.000 A 
ATOM     20 CL   UNL     1       6.537   1.655  10.922  0.00  0.00    +0.000 Cl
ATOM     21  C   UNL     1       5.271   2.933  12.931  0.00  0.00    +0.000 A 
ATOM     22  C   UNL     1       5.138   3.949  13.883  0.00  0.00    +0.000 A 
ATOM     23  C   UNL     1       6.110   4.960  14.018  0.00  0.00    +0.000 A 
ENDBRANCH  14  23
ENDBRANCH   1  14
TORSDOF 3
ENDMDL
MODEL 5
REMARK VINA RESULT:      -6.4      4.236      6.432
REMARK  Name = 
REMARK  4 active torsions:
REMARK  status: ('A' for Active; 'I' for Inactive)
REMARK    1  A    between atoms: C_1  and  C_2
REMARK    2  A    between atoms: C_8  and  C_9
REMARK    3  A    between atoms: C_9  and  C_11
REMARK    4  A    between atoms: C_16  and  C_18
REMARK                            x       y       z     vdW  Elec       q    Type
REMARK                         _______ _______ _______ _____ _____    ______ ____
ROOT
ATOM      1  C   UNL     1       4.645   5.653  18.591  0.00  0.00    +0.000 C 
ATOM      2  C   UNL     1       3.821   6.682  17.790  0.00  0.00    +0.000 C 
ATOM      3  C   UNL     1       4.318   7.040  16.380  0.00  0.00    +0.000 C 
ATOM      4  C   UNL     1       5.829   7.015  16.221  0.00  0.00    +0.000 C 
ATOM      5  N   UNL     1       6.376   5.808  16.815  0.00  0.00    +0.000 N 
ATOM      6  C   UNL     1       7.149   4.833  16.171  0.00  0.00    +0.000 C 
ATOM      7  O   UNL     1       7.831   4.037  16.820  0.00  0.00    +0.000 OA
ATOM      8  C   UNL     1       6.146   5.693  18.248  0.00  0.00    +0.000 C 
ENDROOT
BRANCH   6   9
ATOM      9  C   UNL     1       7.189   4.763  14.696  0.00  0.00    +0.000 A 
ATOM     10  C   UNL     1       6.327   3.888  13.940  0.00  0.00    +0.000 A 
ATOM     11  N   UNL     1       6.461   3.922  12.611  0.00  0.00    +0.000 NA
ATOM     12  S   UNL     1       7.620   5.095  12.344  0.00  0.00    +0.000 S 
ATOM     13  N   UNL     1       7.964   5.536  13.921  0.00  0.00    +0.000 NA
ENDBRANCH   6   9
BRANCH   1  14
ATOM     14  C   UNL     1       4.088   4.217  18.502  0.00  0.00    +0.000 C 
ATOM     15  O   UNL     1       4.368   3.502  17.545  0.00  0.00    +0.000 OA
BRANCH  14  23
ATOM     16  C   UNL     1       5.008   1.961  20.363  0.00  0.00    +0.000 C 
ATOM     17  C   UNL     1       3.653   2.615  20.470  0.00  0.00    +0.000 A 
ATOM     18  C   UNL     1       2.801   2.143  21.495  0.00  0.00    +0.000 A 
ATOM     19  C   UNL     1       1.536   2.687  21.678  0.00  0.00    +0.000 A 
ATOM     20 CL   UNL     1       0.515   2.093  22.929  0.00  0.00    +0.000 Cl
ATOM     21  C   UNL     1       1.098   3.712  20.852  0.00  0.00    +0.000 A 
ATOM     22  C   UNL     1       1.927   4.196  19.834  0.00  0.00    +0.000 A 
ATOM     23  C   UNL     1       3.213   3.663  19.618  0.00  0.00    +0.000 A 
ENDBRANCH  14  23
ENDBRANCH   1  14
TORSDOF 3
ENDMDL
MODEL 6
REMARK VINA RESULT:      -6.4      5.859      8.665
REMARK  Name = 
REMARK  4 active torsions:
REMARK  status: ('A' for Active; 'I' for Inactive)
REMARK    1  A    between atoms: C_1  and  C_2
REMARK    2  A    between atoms: C_8  and  C_9
REMARK    3  A    between atoms: C_9  and  C_11
REMARK    4  A    between atoms: C_16  and  C_18
REMARK                            x       y       z     vdW  Elec       q    Type
REMARK                         _______ _______ _______ _____ _____    ______ ____
ROOT
ATOM      1  C   UNL     1       0.135  12.071  18.988  0.00  0.00    +0.000 C 
ATOM      2  C   UNL     1       1.142  12.391  20.112  0.00  0.00    +0.000 C 
ATOM      3  C   UNL     1       0.587  13.033  21.394  0.00  0.00    +0.000 C 
ATOM      4  C   UNL     1      -0.595  13.961  21.173  0.00  0.00    +0.000 C 
ATOM      5  N   UNL     1      -1.564  13.337  20.287  0.00  0.00    +0.000 N 
ATOM      6  C   UNL     1      -2.912  13.081  20.568  0.00  0.00    +0.000 C 
ATOM      7  O   UNL     1      -3.716  12.860  19.660  0.00  0.00    +0.000 OA
ATOM      8  C   UNL     1      -1.053  13.051  18.955  0.00  0.00    +0.000 C 
ENDROOT
BRANCH   6   9
ATOM      9  C   UNL     1      -3.405  13.106  21.960  0.00  0.00    +0.000 A 
ATOM     10  C   UNL     1      -4.224  14.177  22.473  0.00  0.00    +0.000 A 
ATOM     11  N   UNL     1      -4.606  14.077  23.749  0.00  0.00    +0.000 NA
ATOM     12  S   UNL     1      -3.978  12.613  24.253  0.00  0.00    +0.000 S 
ATOM     13  N   UNL     1      -3.202  12.125  22.853  0.00  0.00    +0.000 NA
ENDBRANCH   6   9
BRANCH   1  14
ATOM     14  C   UNL     1      -0.347  10.606  18.996  0.00  0.00    +0.000 C 
ATOM     15  O   UNL     1      -1.540  10.344  18.883  0.00  0.00    +0.000 OA
BRANCH  14  23
ATOM     16  C   UNL     1       0.101   9.040  21.594  0.00  0.00    +0.000 C 
ATOM     17  C   UNL     1       0.858   8.755  20.320  0.00  0.00    +0.000 A 
ATOM     18  C   UNL     1       1.801   7.703  20.367  0.00  0.00    +0.000 A 
ATOM     19  C   UNL     1       2.543   7.360  19.242  0.00  0.00    +0.000 A 
ATOM     20 CL   UNL     1       3.689   6.080  19.324  0.00  0.00    +0.000 Cl
ATOM     21  C   UNL     1       2.355   8.050  18.054  0.00  0.00    +0.000 A 
ATOM     22  C   UNL     1       1.424   9.092  17.986  0.00  0.00    +0.000 A 
ATOM     23  C   UNL     1       0.660   9.468  19.108  0.00  0.00    +0.000 A 
ENDBRANCH  14  23
ENDBRANCH   1  14
TORSDOF 3
ENDMDL
MODEL 7
REMARK VINA RESULT:      -6.3     10.142     12.524
REMARK  Name = 
REMARK  4 active torsions:
REMARK  status: ('A' for Active; 'I' for Inactive)
REMARK    1  A    between atoms: C_1  and  C_2
REMARK    2  A    between atoms: C_8  and  C_9
REMARK    3  A    between atoms: C_9  and  C_11
REMARK    4  A    between atoms: C_16  and  C_18
REMARK                            x       y       z     vdW  Elec       q    Type
REMARK                         _______ _______ _______ _____ _____    ______ ____
ROOT
ATOM      1  C   UNL     1      -7.656  12.832  20.227  0.00  0.00    +0.000 C 
ATOM      2  C   UNL     1      -7.544  11.455  20.911  0.00  0.00    +0.000 C 
ATOM      3  C   UNL     1      -6.774  10.355  20.161  0.00  0.00    +0.000 C 
ATOM      4  C   UNL     1      -6.896  10.423  18.648  0.00  0.00    +0.000 C 
ATOM      5  N   UNL     1      -6.693  11.786  18.189  0.00  0.00    +0.000 N 
ATOM      6  C   UNL     1      -5.726  12.227  17.275  0.00  0.00    +0.000 C 
ATOM      7  O   UNL     1      -5.844  13.316  16.708  0.00  0.00    +0.000 OA
ATOM      8  C   UNL     1      -7.676  12.735  18.690  0.00  0.00    +0.000 C 
ENDROOT
BRANCH   6   9
ATOM      9  C   UNL     1      -4.563  11.379  16.948  0.00  0.00    +0.000 A 
ATOM     10  C   UNL     1      -3.679  10.853  17.959  0.00  0.00    +0.000 A 
ATOM     11  N   UNL     1      -2.665  10.096  17.530  0.00  0.00    +0.000 NA
ATOM     12  S   UNL     1      -2.884  10.015  15.876  0.00  0.00    +0.000 S 
ATOM     13  N   UNL     1      -4.253  10.963  15.710  0.00  0.00    +0.000 NA
ENDBRANCH   6   9
BRANCH   1  14
ATOM     14  C   UNL     1      -6.599  13.846  20.710  0.00  0.00    +0.000 C 
ATOM     15  O   UNL     1      -6.803  15.052  20.609  0.00  0.00    +0.000 OA
BRANCH  14  23
ATOM     16  C   UNL     1      -6.312  13.390  23.729  0.00  0.00    +0.000 C 
ATOM     17  C   UNL     1      -5.188  13.156  22.750  0.00  0.00    +0.000 A 
ATOM     18  C   UNL     1      -3.965  12.696  23.290  0.00  0.00    +0.000 A 
ATOM     19  C   UNL     1      -2.872  12.445  22.469  0.00  0.00    +0.000 A 
ATOM     20 CL   UNL     1      -1.393  11.891  23.148  0.00  0.00    +0.000 Cl
ATOM     21  C   UNL     1      -2.979  12.639  21.099  0.00  0.00    +0.000 A 
ATOM     22  C   UNL     1      -4.181  13.090  20.545  0.00  0.00    +0.000 A 
ATOM     23  C   UNL     1      -5.306  13.359  21.350  0.00  0.00    +0.000 A 
ENDBRANCH  14  23
ENDBRANCH   1  14
TORSDOF 3
ENDMDL
MODEL 8
REMARK VINA RESULT:      -6.3      2.634      3.965
REMARK  Name = 
REMARK  4 active torsions:
REMARK  status: ('A' for Active; 'I' for Inactive)
REMARK    1  A    between atoms: C_1  and  C_2
REMARK    2  A    between atoms: C_8  and  C_9
REMARK    3  A    between atoms: C_9  and  C_11
REMARK    4  A    between atoms: C_16  and  C_18
REMARK                            x       y       z     vdW  Elec       q    Type
REMARK                         _______ _______ _______ _____ _____    ______ ____
ROOT
ATOM      1  C   UNL     1       4.928   5.662  16.419  0.00  0.00    +0.000 C 
ATOM      2  C   UNL     1       4.136   6.844  17.014  0.00  0.00    +0.000 C 
ATOM      3  C   UNL     1       3.037   6.513  18.038  0.00  0.00    +0.000 C 
ATOM      4  C   UNL     1       2.325   5.193  17.791  0.00  0.00    +0.000 C 
ATOM      5  N   UNL     1       3.293   4.145  17.516  0.00  0.00    +0.000 N 
ATOM      6  C   UNL     1       3.453   2.945  18.222  0.00  0.00    +0.000 C 
ATOM      7  O   UNL     1       4.059   1.995  17.723  0.00  0.00    +0.000 OA
ATOM      8  C   UNL     1       4.091   4.373  16.320  0.00  0.00    +0.000 C 
ENDROOT
BRANCH   6   9
ATOM      9  C   UNL     1       2.867   2.785  19.568  0.00  0.00    +0.000 A 
ATOM     10  C   UNL     1       3.674   2.560  20.742  0.00  0.00    +0.000 A 
ATOM     11  N   UNL     1       3.021   2.435  21.900  0.00  0.00    +0.000 NA
ATOM     12  S   UNL     1       1.417   2.665  21.494  0.00  0.00    +0.000 S 
ATOM     13  N   UNL     1       1.559   2.897  19.843  0.00  0.00    +0.000 NA
ENDBRANCH   6   9
BRANCH   1  14
ATOM     14  C   UNL     1       6.272   5.404  17.130  0.00  0.00    +0.000 C 
ATOM     15  O   UNL     1       6.704   4.261  17.247  0.00  0.00    +0.000 OA
BRANCH  14  23
ATOM     16  C   UNL     1       7.981   5.204  19.669  0.00  0.00    +0.000 C 
ATOM     17  C   UNL     1       7.877   6.462  18.844  0.00  0.00    +0.000 A 
ATOM     18  C   UNL     1       8.625   7.575  19.291  0.00  0.00    +0.000 A 
ATOM     19  C   UNL     1       8.600   8.778  18.594  0.00  0.00    +0.000 A 
ATOM     20 CL   UNL     1       9.515  10.120  19.160  0.00  0.00    +0.000 Cl
ATOM     21  C   UNL     1       7.839   8.892  17.440  0.00  0.00    +0.000 A 
ATOM     22  C   UNL     1       7.094   7.801  16.980  0.00  0.00    +0.000 A 
ATOM     23  C   UNL     1       7.094   6.570  17.664  0.00  0.00    +0.000 A 
ENDBRANCH  14  23
ENDBRANCH   1  14
TORSDOF 3
ENDMDL
MODEL 9
REMARK VINA RESULT:      -6.2      3.813      6.126
REMARK  Name = 
REMARK  4 active torsions:
REMARK  status: ('A' for Active; 'I' for Inactive)
REMARK    1  A    between atoms: C_1  and  C_2
REMARK    2  A    between atoms: C_8  and  C_9
REMARK    3  A    between atoms: C_9  and  C_11
REMARK    4  A    between atoms: C_16  and  C_18
REMARK                            x       y       z     vdW  Elec       q    Type
REMARK                         _______ _______ _______ _____ _____    ______ ____
ROOT
ATOM      1  C   UNL     1       4.863   4.990  18.768  0.00  0.00    +0.000 C 
ATOM      2  C   UNL     1       5.847   6.161  18.967  0.00  0.00    +0.000 C 
ATOM      3  C   UNL     1       6.953   6.338  17.914  0.00  0.00    +0.000 C 
ATOM      4  C   UNL     1       7.459   5.040  17.307  0.00  0.00    +0.000 C 
ATOM      5  N   UNL     1       6.340   4.191  16.937  0.00  0.00    +0.000 N 
ATOM      6  C   UNL     1       6.062   3.681  15.661  0.00  0.00    +0.000 C 
ATOM      7  O   UNL     1       5.300   2.723  15.517  0.00  0.00    +0.000 OA
ATOM      8  C   UNL     1       5.505   3.785  18.057  0.00  0.00    +0.000 C 
ENDROOT
BRANCH   6   9
ATOM      9  C   UNL     1       6.706   4.262  14.466  0.00  0.00    +0.000 A 
ATOM     10  C   UNL     1       6.444   3.777  13.133  0.00  0.00    +0.000 A 
ATOM     11  N   UNL     1       7.089   4.391  12.138  0.00  0.00    +0.000 NA
ATOM     12  S   UNL     1       7.959   5.599  12.896  0.00  0.00    +0.000 S 
ATOM     13  N   UNL     1       7.530   5.320  14.488  0.00  0.00    +0.000 NA
ENDBRANCH   6   9
BRANCH   1  14
ATOM     14  C   UNL     1       3.544   5.407  18.083  0.00  0.00    +0.000 C 
ATOM     15  O   UNL     1       3.035   4.689  17.228  0.00  0.00    +0.000 OA
BRANCH  14  23
ATOM     16  C   UNL     1       2.013   5.703  20.724  0.00  0.00    +0.000 C 
ATOM     17  C   UNL     1       2.136   6.817  19.714  0.00  0.00    +0.000 A 
ATOM     18  C   UNL     1       1.509   8.041  20.043  0.00  0.00    +0.000 A 
ATOM     19  C   UNL     1       1.572   9.129  19.180  0.00  0.00    +0.000 A 
ATOM     20 CL   UNL     1       0.797  10.606  19.599  0.00  0.00    +0.000 Cl
ATOM     21  C   UNL     1       2.263   9.021  17.982  0.00  0.00    +0.000 A 
ATOM     22  C   UNL     1       2.892   7.820  17.640  0.00  0.00    +0.000 A 
ATOM     23  C   UNL     1       2.844   6.697  18.489  0.00  0.00    +0.000 A 
ENDBRANCH  14  23
ENDBRANCH   1  14
TORSDOF 3
ENDMDL
