MODEL 1
REMARK VINA RESULT:      -8.2      0.000      0.000
REMARK  Name = 
REMARK  8 active torsions:
REMARK  status: ('A' for Active; 'I' for Inactive)
REMARK    1  A    between atoms: C_1  and  C_2
REMARK    2  A    between atoms: C_2  and  N_3
REMARK    3  A    between atoms: C_2  and  C_25
REMARK    4  A    between atoms: C_4  and  C_6
REMARK    5  A    between atoms: C_6  and  C_7
REMARK    6  A    between atoms: C_7  and  N_8
REMARK    7  A    between atoms: C_13  and  S_14
REMARK    8  A    between atoms: S_14  and  N_17
REMARK                            x       y       z     vdW  Elec       q    Type
REMARK                         _______ _______ _______ _____ _____    ______ ____
ROOT
ATOM      1  N   UNL     1       1.276   8.683  19.643  0.00  0.00    +0.000 N 
ATOM      2  C   UNL     1       1.486   9.523  18.582  0.00  0.00    +0.000 A 
ATOM      3  C   UNL     1       2.344   8.898  17.704  0.00  0.00    +0.000 A 
ATOM      4  C   UNL     1       2.712   7.643  18.260  0.00  0.00    +0.000 A 
ATOM      5  C   UNL     1       3.539   6.576  17.830  0.00  0.00    +0.000 A 
ATOM      6  C   UNL     1       3.796   5.522  18.718  0.00  0.00    +0.000 A 
ATOM      7  C   UNL     1       3.293   5.551  20.021  0.00  0.00    +0.000 A 
ATOM      8  C   UNL     1       2.388   6.541  20.420  0.00  0.00    +0.000 A 
ATOM      9  C   UNL     1       2.102   7.575  19.518  0.00  0.00    +0.000 A 
ENDROOT
BRANCH   6  10
ATOM     10  S   UNL     1       4.790   4.131  18.198  0.00  0.00    +0.000 S 
ATOM     11  O   UNL     1       5.445   4.512  16.958  0.00  0.00    +0.000 OA
ATOM     12  O   UNL     1       5.568   3.690  19.338  0.00  0.00    +0.000 OA
BRANCH  10  13
ATOM     13  N   UNL     1       3.681   2.886  17.835  0.00  0.00    +0.000 NA
ATOM     14  C   UNL     1       2.396   3.233  17.194  0.00  0.00    +0.000 C 
ATOM     15  C   UNL     1       1.367   3.213  18.306  0.00  0.00    +0.000 C 
ATOM     16  C   UNL     1       1.837   2.088  19.209  0.00  0.00    +0.000 C 
ATOM     17  C   UNL     1       3.344   1.967  18.966  0.00  0.00    +0.000 C 
ENDBRANCH  10  13
ENDBRANCH   6  10
BRANCH   1  18
ATOM     18  C   UNL     1       0.425   8.947  20.800  0.00  0.00    +0.000 C 
BRANCH  18  19
ATOM     19  C   UNL     1       0.839  10.130  21.684  0.00  0.00    +0.000 C 
BRANCH  19  21
ATOM     20  N   UNL     1      -1.031  11.140  20.489  0.00  0.00    +0.000 N 
ATOM     21  C   UNL     1       0.041  11.371  21.333  0.00  0.00    +0.000 C 
ATOM     22  O   UNL     1       0.324  12.478  21.769  0.00  0.00    +0.000 OA
ATOM     23  H   UNL     1      -1.130  10.243  20.040  0.00  0.00    +0.000 HD
BRANCH  20  25
ATOM     24  C   UNL     1      -2.935  12.559  21.217  0.00  0.00    +0.000 C 
ATOM     25  C   UNL     1      -1.931  12.218  20.107  0.00  0.00    +0.000 C 
BRANCH  25  26
ATOM     26  C   UNL     1      -2.685  11.916  18.822  0.00  0.00    +0.000 A 
ATOM     27  C   UNL     1      -4.089  11.929  18.825  0.00  0.00    +0.000 A 
ATOM     28  C   UNL     1      -4.809  11.502  17.708  0.00  0.00    +0.000 A 
ATOM     29  C   UNL     1      -4.136  11.073  16.566  0.00  0.00    +0.000 A 
ATOM     30  C   UNL     1      -2.744  11.085  16.534  0.00  0.00    +0.000 A 
ATOM     31  C   UNL     1      -2.023  11.509  17.651  0.00  0.00    +0.000 A 
ENDBRANCH  25  26
ENDBRANCH  20  25
ENDBRANCH  19  21
ENDBRANCH  18  19
ENDBRANCH   1  18
TORSDOF 7
ENDMDL
MODEL 2
REMARK VINA RESULT:      -8.2      0.556      1.038
REMARK  Name = 
REMARK  8 active torsions:
REMARK  status: ('A' for Active; 'I' for Inactive)
REMARK    1  A    between atoms: C_1  and  C_2
REMARK    2  A    between atoms: C_2  and  N_3
REMARK    3  A    between atoms: C_2  and  C_25
REMARK    4  A    between atoms: C_4  and  C_6
REMARK    5  A    between atoms: C_6  and  C_7
REMARK    6  A    between atoms: C_7  and  N_8
REMARK    7  A    between atoms: C_13  and  S_14
REMARK    8  A    between atoms: S_14  and  N_17
REMARK                            x       y       z     vdW  Elec       q    Type
REMARK                         _______ _______ _______ _____ _____    ______ ____
ROOT
ATOM      1  N   UNL     1       1.323   8.777  19.529  0.00  0.00    +0.000 N 
ATOM      2  C   UNL     1       1.522   9.544  18.411  0.00  0.00    +0.000 A 
ATOM      3  C   UNL     1       2.351   8.849  17.558  0.00  0.00    +0.000 A 
ATOM      4  C   UNL     1       2.713   7.628  18.187  0.00  0.00    +0.000 A 
ATOM      5  C   UNL     1       3.515   6.523  17.811  0.00  0.00    +0.000 A 
ATOM      6  C   UNL     1       3.777   5.524  18.760  0.00  0.00    +0.000 A 
ATOM      7  C   UNL     1       3.302   5.645  20.069  0.00  0.00    +0.000 A 
ATOM      8  C   UNL     1       2.421   6.673  20.421  0.00  0.00    +0.000 A 
ATOM      9  C   UNL     1       2.130   7.651  19.459  0.00  0.00    +0.000 A 
ENDROOT
BRANCH   6  10
ATOM     10  S   UNL     1       4.739   4.087  18.312  0.00  0.00    +0.000 S 
ATOM     11  O   UNL     1       5.353   4.367  17.025  0.00  0.00    +0.000 OA
ATOM     12  O   UNL     1       5.553   3.723  19.454  0.00  0.00    +0.000 OA
BRANCH  10  13
ATOM     13  N   UNL     1       3.607   2.831  18.081  0.00  0.00    +0.000 NA
ATOM     14  C   UNL     1       2.422   3.079  17.235  0.00  0.00    +0.000 C 
ATOM     15  C   UNL     1       1.278   3.326  18.198  0.00  0.00    +0.000 C 
ATOM     16  C   UNL     1       1.581   2.400  19.361  0.00  0.00    +0.000 C 
ATOM     17  C   UNL     1       3.097   2.181  19.328  0.00  0.00    +0.000 C 
ENDBRANCH  10  13
ENDBRANCH   6  10
BRANCH   1  18
ATOM     18  C   UNL     1       0.501   9.130  20.683  0.00  0.00    +0.000 C 
BRANCH  18  19
ATOM     19  C   UNL     1       0.714  10.535  21.257  0.00  0.00    +0.000 C 
BRANCH  19  21
ATOM     20  N   UNL     1      -1.415  11.249  20.306  0.00  0.00    +0.000 N 
ATOM     21  C   UNL     1      -0.078  11.565  20.473  0.00  0.00    +0.000 C 
ATOM     22  O   UNL     1       0.428  12.587  20.034  0.00  0.00    +0.000 OA
ATOM     23  H   UNL     1      -1.747  10.330  20.553  0.00  0.00    +0.000 HD
BRANCH  20  25
ATOM     24  C   UNL     1      -3.485  12.603  20.528  0.00  0.00    +0.000 C 
ATOM     25  C   UNL     1      -2.323  12.162  19.627  0.00  0.00    +0.000 C 
BRANCH  25  26
ATOM     26  C   UNL     1      -2.878  11.577  18.339  0.00  0.00    +0.000 A 
ATOM     27  C   UNL     1      -2.011  10.931  17.444  0.00  0.00    +0.000 A 
ATOM     28  C   UNL     1      -2.458  10.527  16.184  0.00  0.00    +0.000 A 
ATOM     29  C   UNL     1      -3.782  10.746  15.810  0.00  0.00    +0.000 A 
ATOM     30  C   UNL     1      -4.664  11.355  16.698  0.00  0.00    +0.000 A 
ATOM     31  C   UNL     1      -4.218  11.763  17.956  0.00  0.00    +0.000 A 
ENDBRANCH  25  26
ENDBRANCH  20  25
ENDBRANCH  19  21
ENDBRANCH  18  19
ENDBRANCH   1  18
TORSDOF 7
ENDMDL
MODEL 3
REMARK VINA RESULT:      -8.1      2.690      4.548
REMARK  Name = 
REMARK  8 active torsions:
REMARK  status: ('A' for Active; 'I' for Inactive)
REMARK    1  A    between atoms: C_1  and  C_2
REMARK    2  A    between atoms: C_2  and  N_3
REMARK    3  A    between atoms: C_2  and  C_25
REMARK    4  A    between atoms: C_4  and  C_6
REMARK    5  A    between atoms: C_6  and  C_7
REMARK    6  A    between atoms: C_7  and  N_8
REMARK    7  A    between atoms: C_13  and  S_14
REMARK    8  A    between atoms: S_14  and  N_17
REMARK                            x       y       z     vdW  Elec       q    Type
REMARK                         _______ _______ _______ _____ _____    ______ ____
ROOT
ATOM      1  N   UNL     1       2.022   6.883  20.063  0.00  0.00    +0.000 N 
ATOM      2  C   UNL     1       1.701   5.703  20.681  0.00  0.00    +0.000 A 
ATOM      3  C   UNL     1       2.435   4.697  20.092  0.00  0.00    +0.000 A 
ATOM      4  C   UNL     1       3.207   5.266  19.043  0.00  0.00    +0.000 A 
ATOM      5  C   UNL     1       4.138   4.749  18.110  0.00  0.00    +0.000 A 
ATOM      6  C   UNL     1       4.617   5.591  17.097  0.00  0.00    +0.000 A 
ATOM      7  C   UNL     1       4.140   6.899  16.975  0.00  0.00    +0.000 A 
ATOM      8  C   UNL     1       3.306   7.453  17.952  0.00  0.00    +0.000 A 
ATOM      9  C   UNL     1       2.858   6.620  18.987  0.00  0.00    +0.000 A 
ENDROOT
BRANCH   6  10
ATOM     10  S   UNL     1       5.833   4.995  15.931  0.00  0.00    +0.000 S 
ATOM     11  O   UNL     1       5.709   3.548  15.885  0.00  0.00    +0.000 OA
ATOM     12  O   UNL     1       5.714   5.784  14.722  0.00  0.00    +0.000 OA
BRANCH  10  13
ATOM     13  N   UNL     1       7.349   5.361  16.623  0.00  0.00    +0.000 NA
ATOM     14  C   UNL     1       7.790   4.617  17.821  0.00  0.00    +0.000 C 
ATOM     15  C   UNL     1       7.534   5.543  18.993  0.00  0.00    +0.000 C 
ATOM     16  C   UNL     1       7.821   6.922  18.431  0.00  0.00    +0.000 C 
ATOM     17  C   UNL     1       7.594   6.807  16.920  0.00  0.00    +0.000 C 
ENDBRANCH  10  13
ENDBRANCH   6  10
BRANCH   1  18
ATOM     18  C   UNL     1       1.481   8.201  20.381  0.00  0.00    +0.000 C 
BRANCH  18  19
ATOM     19  C   UNL     1       0.688   8.305  21.689  0.00  0.00    +0.000 C 
BRANCH  19  21
ATOM     20  N   UNL     1       0.495  10.639  21.007  0.00  0.00    +0.000 N 
ATOM     21  C   UNL     1       0.469   9.756  22.073  0.00  0.00    +0.000 C 
ATOM     22  O   UNL     1       0.280  10.108  23.229  0.00  0.00    +0.000 OA
ATOM     23  H   UNL     1       0.803  10.321  20.102  0.00  0.00    +0.000 HD
BRANCH  20  25
ATOM     24  C   UNL     1      -1.193  12.451  20.826  0.00  0.00    +0.000 C 
ATOM     25  C   UNL     1       0.242  12.059  21.202  0.00  0.00    +0.000 C 
BRANCH  25  26
ATOM     26  C   UNL     1       1.220  12.933  20.434  0.00  0.00    +0.000 A 
ATOM     27  C   UNL     1       1.616  12.555  19.142  0.00  0.00    +0.000 A 
ATOM     28  C   UNL     1       2.630  13.246  18.475  0.00  0.00    +0.000 A 
ATOM     29  C   UNL     1       3.249  14.335  19.085  0.00  0.00    +0.000 A 
ATOM     30  C   UNL     1       2.845  14.744  20.353  0.00  0.00    +0.000 A 
ATOM     31  C   UNL     1       1.835  14.052  21.022  0.00  0.00    +0.000 A 
ENDBRANCH  25  26
ENDBRANCH  20  25
ENDBRANCH  19  21
ENDBRANCH  18  19
ENDBRANCH   1  18
TORSDOF 7
ENDMDL
MODEL 4
REMARK VINA RESULT:      -8.0      5.903      8.662
REMARK  Name = 
REMARK  8 active torsions:
REMARK  status: ('A' for Active; 'I' for Inactive)
REMARK    1  A    between atoms: C_1  and  C_2
REMARK    2  A    between atoms: C_2  and  N_3
REMARK    3  A    between atoms: C_2  and  C_25
REMARK    4  A    between atoms: C_4  and  C_6
REMARK    5  A    between atoms: C_6  and  C_7
REMARK    6  A    between atoms: C_7  and  N_8
REMARK    7  A    between atoms: C_13  and  S_14
REMARK    8  A    between atoms: S_14  and  N_17
REMARK                            x       y       z     vdW  Elec       q    Type
REMARK                         _______ _______ _______ _____ _____    ______ ____
ROOT
ATOM      1  N   UNL     1       7.004   6.587  17.910  0.00  0.00    +0.000 N 
ATOM      2  C   UNL     1       7.839   5.600  18.364  0.00  0.00    +0.000 A 
ATOM      3  C   UNL     1       7.096   4.450  18.518  0.00  0.00    +0.000 A 
ATOM      4  C   UNL     1       5.746   4.745  18.190  0.00  0.00    +0.000 A 
ATOM      5  C   UNL     1       4.550   3.986  18.150  0.00  0.00    +0.000 A 
ATOM      6  C   UNL     1       3.338   4.648  17.911  0.00  0.00    +0.000 A 
ATOM      7  C   UNL     1       3.302   6.038  17.772  0.00  0.00    +0.000 A 
ATOM      8  C   UNL     1       4.485   6.784  17.701  0.00  0.00    +0.000 A 
ATOM      9  C   UNL     1       5.700   6.114  17.902  0.00  0.00    +0.000 A 
ENDROOT
BRANCH   6  10
ATOM     10  S   UNL     1       1.814   3.723  17.799  0.00  0.00    +0.000 S 
ATOM     11  O   UNL     1       0.882   4.525  17.024  0.00  0.00    +0.000 OA
ATOM     12  O   UNL     1       2.142   2.373  17.389  0.00  0.00    +0.000 OA
BRANCH  10  13
ATOM     13  N   UNL     1       1.214   3.632  19.394  0.00  0.00    +0.000 NA
ATOM     14  C   UNL     1       1.440   4.768  20.312  0.00  0.00    +0.000 C 
ATOM     15  C   UNL     1       2.594   4.351  21.200  0.00  0.00    +0.000 C 
ATOM     16  C   UNL     1       2.386   2.860  21.383  0.00  0.00    +0.000 C 
ATOM     17  C   UNL     1       1.588   2.402  20.158  0.00  0.00    +0.000 C 
ENDBRANCH  10  13
ENDBRANCH   6  10
BRANCH   1  18
ATOM     18  C   UNL     1       7.380   7.965  17.604  0.00  0.00    +0.000 C 
BRANCH  18  19
ATOM     19  C   UNL     1       8.516   8.555  18.448  0.00  0.00    +0.000 C 
BRANCH  19  21
ATOM     20  N   UNL     1       9.761  10.622  18.807  0.00  0.00    +0.000 N 
ATOM     21  C   UNL     1       8.674  10.040  18.176  0.00  0.00    +0.000 C 
ATOM     22  O   UNL     1       7.907  10.661  17.456  0.00  0.00    +0.000 OA
ATOM     23  H   UNL     1      10.269  10.104  19.506  0.00  0.00    +0.000 HD
BRANCH  20  25
ATOM     24  C   UNL     1      11.455  12.213  17.934  0.00  0.00    +0.000 C 
ATOM     25  C   UNL     1      10.085  12.025  18.599  0.00  0.00    +0.000 C 
BRANCH  25  26
ATOM     26  C   UNL     1      10.037  12.828  19.889  0.00  0.00    +0.000 A 
ATOM     27  C   UNL     1       9.226  12.388  20.947  0.00  0.00    +0.000 A 
ATOM     28  C   UNL     1       9.036  13.183  22.079  0.00  0.00    +0.000 A 
ATOM     29  C   UNL     1       9.669  14.420  22.177  0.00  0.00    +0.000 A 
ATOM     30  C   UNL     1      10.504  14.857  21.152  0.00  0.00    +0.000 A 
ATOM     31  C   UNL     1      10.691  14.065  20.018  0.00  0.00    +0.000 A 
ENDBRANCH  25  26
ENDBRANCH  20  25
ENDBRANCH  19  21
ENDBRANCH  18  19
ENDBRANCH   1  18
TORSDOF 7
ENDMDL
MODEL 5
REMARK VINA RESULT:      -8.0      4.043      9.788
REMARK  Name = 
REMARK  8 active torsions:
REMARK  status: ('A' for Active; 'I' for Inactive)
REMARK    1  A    between atoms: C_1  and  C_2
REMARK    2  A    between atoms: C_2  and  N_3
REMARK    3  A    between atoms: C_2  and  C_25
REMARK    4  A    between atoms: C_4  and  C_6
REMARK    5  A    between atoms: C_6  and  C_7
REMARK    6  A    between atoms: C_7  and  N_8
REMARK    7  A    between atoms: C_13  and  S_14
REMARK    8  A    between atoms: S_14  and  N_17
REMARK                            x       y       z     vdW  Elec       q    Type
REMARK                         _______ _______ _______ _____ _____    ______ ____
ROOT
ATOM      1  N   UNL     1       3.840   6.013  17.997  0.00  0.00    +0.000 N 
ATOM      2  C   UNL     1       3.841   5.214  19.110  0.00  0.00    +0.000 A 
ATOM      3  C   UNL     1       2.978   5.764  20.033  0.00  0.00    +0.000 A 
ATOM      4  C   UNL     1       2.457   6.970  19.489  0.00  0.00    +0.000 A 
ATOM      5  C   UNL     1       1.540   7.946  19.951  0.00  0.00    +0.000 A 
ATOM      6  C   UNL     1       1.357   9.111  19.194  0.00  0.00    +0.000 A 
ATOM      7  C   UNL     1       2.107   9.332  18.035  0.00  0.00    +0.000 A 
ATOM      8  C   UNL     1       2.932   8.330  17.512  0.00  0.00    +0.000 A 
ATOM      9  C   UNL     1       3.085   7.148  18.251  0.00  0.00    +0.000 A 
ENDROOT
BRANCH   6  10
ATOM     10  S   UNL     1       0.172  10.344  19.712  0.00  0.00    +0.000 S 
ATOM     11  O   UNL     1      -0.813   9.669  20.541  0.00  0.00    +0.000 OA
ATOM     12  O   UNL     1       0.909  11.483  20.221  0.00  0.00    +0.000 OA
BRANCH  10  13
ATOM     13  N   UNL     1      -0.615  10.851  18.286  0.00  0.00    +0.000 NA
ATOM     14  C   UNL     1      -1.456  12.065  18.322  0.00  0.00    +0.000 C 
ATOM     15  C   UNL     1      -2.886  11.569  18.401  0.00  0.00    +0.000 C 
ATOM     16  C   UNL     1      -2.874  10.306  17.560  0.00  0.00    +0.000 C 
ATOM     17  C   UNL     1      -1.427   9.806  17.587  0.00  0.00    +0.000 C 
ENDBRANCH  10  13
ENDBRANCH   6  10
BRANCH   1  18
ATOM     18  C   UNL     1       4.608   5.793  16.775  0.00  0.00    +0.000 C 
BRANCH  18  19
ATOM     19  C   UNL     1       6.100   6.136  16.847  0.00  0.00    +0.000 C 
BRANCH  19  21
ATOM     20  N   UNL     1       6.620   5.412  14.577  0.00  0.00    +0.000 N 
ATOM     21  C   UNL     1       6.905   5.243  15.921  0.00  0.00    +0.000 C 
ATOM     22  O   UNL     1       7.737   4.449  16.333  0.00  0.00    +0.000 OA
ATOM     23  H   UNL     1       5.824   5.966  14.300  0.00  0.00    +0.000 HD
BRANCH  20  25
ATOM     24  C   UNL     1       8.108   5.601  12.598  0.00  0.00    +0.000 C 
ATOM     25  C   UNL     1       7.348   4.674  13.556  0.00  0.00    +0.000 C 
BRANCH  25  26
ATOM     26  C   UNL     1       6.447   3.750  12.753  0.00  0.00    +0.000 A 
ATOM     27  C   UNL     1       7.017   2.716  11.995  0.00  0.00    +0.000 A 
ATOM     28  C   UNL     1       6.234   1.954  11.124  0.00  0.00    +0.000 A 
ATOM     29  C   UNL     1       4.868   2.205  11.014  0.00  0.00    +0.000 A 
ATOM     30  C   UNL     1       4.281   3.204  11.784  0.00  0.00    +0.000 A 
ATOM     31  C   UNL     1       5.062   3.969  12.652  0.00  0.00    +0.000 A 
ENDBRANCH  25  26
ENDBRANCH  20  25
ENDBRANCH  19  21
ENDBRANCH  18  19
ENDBRANCH   1  18
TORSDOF 7
ENDMDL
MODEL 6
REMARK VINA RESULT:      -7.9      2.536      4.465
REMARK  Name = 
REMARK  8 active torsions:
REMARK  status: ('A' for Active; 'I' for Inactive)
REMARK    1  A    between atoms: C_1  and  C_2
REMARK    2  A    between atoms: C_2  and  N_3
REMARK    3  A    between atoms: C_2  and  C_25
REMARK    4  A    between atoms: C_4  and  C_6
REMARK    5  A    between atoms: C_6  and  C_7
REMARK    6  A    between atoms: C_7  and  N_8
REMARK    7  A    between atoms: C_13  and  S_14
REMARK    8  A    between atoms: S_14  and  N_17
REMARK                            x       y       z     vdW  Elec       q    Type
REMARK                         _______ _______ _______ _____ _____    ______ ____
ROOT
ATOM      1  N   UNL     1       1.987   7.011  20.124  0.00  0.00    +0.000 N 
ATOM      2  C   UNL     1       1.672   5.843  20.768  0.00  0.00    +0.000 A 
ATOM      3  C   UNL     1       2.400   4.826  20.189  0.00  0.00    +0.000 A 
ATOM      4  C   UNL     1       3.159   5.375  19.121  0.00  0.00    +0.000 A 
ATOM      5  C   UNL     1       4.080   4.841  18.187  0.00  0.00    +0.000 A 
ATOM      6  C   UNL     1       4.547   5.664  17.153  0.00  0.00    +0.000 A 
ATOM      7  C   UNL     1       4.070   6.970  17.012  0.00  0.00    +0.000 A 
ATOM      8  C   UNL     1       3.247   7.542  17.989  0.00  0.00    +0.000 A 
ATOM      9  C   UNL     1       2.810   6.728  19.044  0.00  0.00    +0.000 A 
ENDROOT
BRANCH   6  10
ATOM     10  S   UNL     1       5.750   5.046  15.984  0.00  0.00    +0.000 S 
ATOM     11  O   UNL     1       5.619   3.599  15.960  0.00  0.00    +0.000 OA
ATOM     12  O   UNL     1       5.623   5.819  14.765  0.00  0.00    +0.000 OA
BRANCH  10  13
ATOM     13  N   UNL     1       7.274   5.415  16.657  0.00  0.00    +0.000 NA
ATOM     14  C   UNL     1       7.741   4.655  17.836  0.00  0.00    +0.000 C 
ATOM     15  C   UNL     1       7.497   5.559  19.027  0.00  0.00    +0.000 C 
ATOM     16  C   UNL     1       7.762   6.950  18.483  0.00  0.00    +0.000 C 
ATOM     17  C   UNL     1       7.511   6.857  16.974  0.00  0.00    +0.000 C 
ENDBRANCH  10  13
ENDBRANCH   6  10
BRANCH   1  18
ATOM     18  C   UNL     1       1.450   8.335  20.424  0.00  0.00    +0.000 C 
BRANCH  18  19
ATOM     19  C   UNL     1       1.394   8.718  21.908  0.00  0.00    +0.000 C 
BRANCH  19  21
ATOM     20  N   UNL     1       0.015  10.608  21.218  0.00  0.00    +0.000 N 
ATOM     21  C   UNL     1       0.219   9.637  22.184  0.00  0.00    +0.000 C 
ATOM     22  O   UNL     1      -0.487   9.521  23.175  0.00  0.00    +0.000 OA
ATOM     23  H   UNL     1       0.710  10.757  20.504  0.00  0.00    +0.000 HD
BRANCH  20  25
ATOM     24  C   UNL     1      -1.678  11.885  19.926  0.00  0.00    +0.000 C 
ATOM     25  C   UNL     1      -1.108  11.530  21.306  0.00  0.00    +0.000 C 
BRANCH  25  26
ATOM     26  C   UNL     1      -0.752  12.808  22.047  0.00  0.00    +0.000 A 
ATOM     27  C   UNL     1      -1.501  13.185  23.173  0.00  0.00    +0.000 A 
ATOM     28  C   UNL     1      -1.304  14.428  23.778  0.00  0.00    +0.000 A 
ATOM     29  C   UNL     1      -0.342  15.303  23.278  0.00  0.00    +0.000 A 
ATOM     30  C   UNL     1       0.433  14.931  22.183  0.00  0.00    +0.000 A 
ATOM     31  C   UNL     1       0.235  13.690  21.574  0.00  0.00    +0.000 A 
ENDBRANCH  25  26
ENDBRANCH  20  25
ENDBRANCH  19  21
ENDBRANCH  18  19
ENDBRANCH   1  18
TORSDOF 7
ENDMDL
MODEL 7
REMARK VINA RESULT:      -7.8      2.635      4.309
REMARK  Name = 
REMARK  8 active torsions:
REMARK  status: ('A' for Active; 'I' for Inactive)
REMARK    1  A    between atoms: C_1  and  C_2
REMARK    2  A    between atoms: C_2  and  N_3
REMARK    3  A    between atoms: C_2  and  C_25
REMARK    4  A    between atoms: C_4  and  C_6
REMARK    5  A    between atoms: C_6  and  C_7
REMARK    6  A    between atoms: C_7  and  N_8
REMARK    7  A    between atoms: C_13  and  S_14
REMARK    8  A    between atoms: S_14  and  N_17
REMARK                            x       y       z     vdW  Elec       q    Type
REMARK                         _______ _______ _______ _____ _____    ______ ____
ROOT
ATOM      1  N   UNL     1       2.006   6.856  20.189  0.00  0.00    +0.000 N 
ATOM      2  C   UNL     1       1.645   5.659  20.750  0.00  0.00    +0.000 A 
ATOM      3  C   UNL     1       2.344   4.658  20.110  0.00  0.00    +0.000 A 
ATOM      4  C   UNL     1       3.132   5.251  19.088  0.00  0.00    +0.000 A 
ATOM      5  C   UNL     1       4.044   4.749  18.128  0.00  0.00    +0.000 A 
ATOM      6  C   UNL     1       4.550   5.623  17.155  0.00  0.00    +0.000 A 
ATOM      7  C   UNL     1       4.118   6.951  17.099  0.00  0.00    +0.000 A 
ATOM      8  C   UNL     1       3.305   7.485  18.104  0.00  0.00    +0.000 A 
ATOM      9  C   UNL     1       2.830   6.618  19.099  0.00  0.00    +0.000 A 
ENDROOT
BRANCH   6  10
ATOM     10  S   UNL     1       5.743   5.044  15.958  0.00  0.00    +0.000 S 
ATOM     11  O   UNL     1       5.615   3.597  15.891  0.00  0.00    +0.000 OA
ATOM     12  O   UNL     1       5.603   5.852  14.763  0.00  0.00    +0.000 OA
BRANCH  10  13
ATOM     13  N   UNL     1       7.272   5.396  16.627  0.00  0.00    +0.000 NA
ATOM     14  C   UNL     1       7.729   4.639  17.812  0.00  0.00    +0.000 C 
ATOM     15  C   UNL     1       7.498   5.557  18.996  0.00  0.00    +0.000 C 
ATOM     16  C   UNL     1       7.783   6.939  18.440  0.00  0.00    +0.000 C 
ATOM     17  C   UNL     1       7.530   6.837  16.932  0.00  0.00    +0.000 C 
ENDBRANCH  10  13
ENDBRANCH   6  10
BRANCH   1  18
ATOM     18  C   UNL     1       1.511   8.175  20.573  0.00  0.00    +0.000 C 
BRANCH  18  19
ATOM     19  C   UNL     1       0.278   8.191  21.484  0.00  0.00    +0.000 C 
BRANCH  19  21
ATOM     20  N   UNL     1       0.073  10.504  20.738  0.00  0.00    +0.000 N 
ATOM     21  C   UNL     1      -0.160   9.615  21.773  0.00  0.00    +0.000 C 
ATOM     22  O   UNL     1      -0.680   9.940  22.830  0.00  0.00    +0.000 OA
ATOM     23  H   UNL     1       0.637  10.221  19.953  0.00  0.00    +0.000 HD
BRANCH  20  25
ATOM     24  C   UNL     1      -1.722  12.134  20.202  0.00  0.00    +0.000 C 
ATOM     25  C   UNL     1      -0.345  11.895  20.835  0.00  0.00    +0.000 C 
BRANCH  25  26
ATOM     26  C   UNL     1       0.665  12.848  20.219  0.00  0.00    +0.000 A 
ATOM     27  C   UNL     1       0.946  14.066  20.859  0.00  0.00    +0.000 A 
ATOM     28  C   UNL     1       1.745  15.030  20.240  0.00  0.00    +0.000 A 
ATOM     29  C   UNL     1       2.288  14.783  18.981  0.00  0.00    +0.000 A 
ATOM     30  C   UNL     1       2.047  13.568  18.347  0.00  0.00    +0.000 A 
ATOM     31  C   UNL     1       1.245  12.604  18.962  0.00  0.00    +0.000 A 
ENDBRANCH  25  26
ENDBRANCH  20  25
ENDBRANCH  19  21
ENDBRANCH  18  19
ENDBRANCH   1  18
TORSDOF 7
ENDMDL
MODEL 8
REMARK VINA RESULT:      -7.8      1.712      3.189
REMARK  Name = 
REMARK  8 active torsions:
REMARK  status: ('A' for Active; 'I' for Inactive)
REMARK    1  A    between atoms: C_1  and  C_2
REMARK    2  A    between atoms: C_2  and  N_3
REMARK    3  A    between atoms: C_2  and  C_25
REMARK    4  A    between atoms: C_4  and  C_6
REMARK    5  A    between atoms: C_6  and  C_7
REMARK    6  A    between atoms: C_7  and  N_8
REMARK    7  A    between atoms: C_13  and  S_14
REMARK    8  A    between atoms: S_14  and  N_17
REMARK                            x       y       z     vdW  Elec       q    Type
REMARK                         _______ _______ _______ _____ _____    ______ ____
ROOT
ATOM      1  N   UNL     1       1.138   9.243  19.600  0.00  0.00    +0.000 N 
ATOM      2  C   UNL     1       0.655   8.834  20.814  0.00  0.00    +0.000 A 
ATOM      3  C   UNL     1       1.271   7.646  21.142  0.00  0.00    +0.000 A 
ATOM      4  C   UNL     1       2.134   7.284  20.073  0.00  0.00    +0.000 A 
ATOM      5  C   UNL     1       3.016   6.200  19.839  0.00  0.00    +0.000 A 
ATOM      6  C   UNL     1       3.622   6.083  18.581  0.00  0.00    +0.000 A 
ATOM      7  C   UNL     1       3.318   6.985  17.558  0.00  0.00    +0.000 A 
ATOM      8  C   UNL     1       2.537   8.118  17.809  0.00  0.00    +0.000 A 
ATOM      9  C   UNL     1       1.961   8.255  19.080  0.00  0.00    +0.000 A 
ENDROOT
BRANCH   6  10
ATOM     10  S   UNL     1       4.783   4.762  18.260  0.00  0.00    +0.000 S 
ATOM     11  O   UNL     1       5.400   5.038  16.974  0.00  0.00    +0.000 OA
ATOM     12  O   UNL     1       5.596   4.587  19.446  0.00  0.00    +0.000 OA
BRANCH  10  13
ATOM     13  N   UNL     1       3.837   3.353  18.086  0.00  0.00    +0.000 NA
ATOM     14  C   UNL     1       2.629   3.399  17.236  0.00  0.00    +0.000 C 
ATOM     15  C   UNL     1       1.461   3.524  18.194  0.00  0.00    +0.000 C 
ATOM     16  C   UNL     1       1.889   2.698  19.392  0.00  0.00    +0.000 C 
ATOM     17  C   UNL     1       3.420   2.690  19.361  0.00  0.00    +0.000 C 
ENDBRANCH  10  13
ENDBRANCH   6  10
BRANCH   1  18
ATOM     18  C   UNL     1       0.761  10.459  18.884  0.00  0.00    +0.000 C 
BRANCH  18  19
ATOM     19  C   UNL     1      -0.743  10.736  18.776  0.00  0.00    +0.000 C 
BRANCH  19  21
ATOM     20  N   UNL     1      -1.524  11.836  20.807  0.00  0.00    +0.000 N 
ATOM     21  C   UNL     1      -1.109  12.019  19.499  0.00  0.00    +0.000 C 
ATOM     22  O   UNL     1      -1.035  13.117  18.968  0.00  0.00    +0.000 OA
ATOM     23  H   UNL     1      -1.712  10.907  21.147  0.00  0.00    +0.000 HD
BRANCH  20  25
ATOM     24  C   UNL     1      -0.755  13.265  22.687  0.00  0.00    +0.000 C 
ATOM     25  C   UNL     1      -1.853  12.973  21.655  0.00  0.00    +0.000 C 
BRANCH  25  26
ATOM     26  C   UNL     1      -3.182  12.797  22.371  0.00  0.00    +0.000 A 
ATOM     27  C   UNL     1      -4.379  12.985  21.661  0.00  0.00    +0.000 A 
ATOM     28  C   UNL     1      -5.609  12.989  22.323  0.00  0.00    +0.000 A 
ATOM     29  C   UNL     1      -5.660  12.786  23.700  0.00  0.00    +0.000 A 
ATOM     30  C   UNL     1      -4.486  12.563  24.414  0.00  0.00    +0.000 A 
ATOM     31  C   UNL     1      -3.256  12.563  23.755  0.00  0.00    +0.000 A 
ENDBRANCH  25  26
ENDBRANCH  20  25
ENDBRANCH  19  21
ENDBRANCH  18  19
ENDBRANCH   1  18
TORSDOF 7
ENDMDL
MODEL 9
REMARK VINA RESULT:      -7.8      1.557      2.455
REMARK  Name = 
REMARK  8 active torsions:
REMARK  status: ('A' for Active; 'I' for Inactive)
REMARK    1  A    between atoms: C_1  and  C_2
REMARK    2  A    between atoms: C_2  and  N_3
REMARK    3  A    between atoms: C_2  and  C_25
REMARK    4  A    between atoms: C_4  and  C_6
REMARK    5  A    between atoms: C_6  and  C_7
REMARK    6  A    between atoms: C_7  and  N_8
REMARK    7  A    between atoms: C_13  and  S_14
REMARK    8  A    between atoms: S_14  and  N_17
REMARK                            x       y       z     vdW  Elec       q    Type
REMARK                         _______ _______ _______ _____ _____    ______ ____
ROOT
ATOM      1  N   UNL     1       0.366  10.120  20.017  0.00  0.00    +0.000 N 
ATOM      2  C   UNL     1      -0.064   9.620  21.217  0.00  0.00    +0.000 A 
ATOM      3  C   UNL     1       0.589   8.428  21.443  0.00  0.00    +0.000 A 
ATOM      4  C   UNL     1       1.421   8.158  20.323  0.00  0.00    +0.000 A 
ATOM      5  C   UNL     1       2.317   7.114  19.987  0.00  0.00    +0.000 A 
ATOM      6  C   UNL     1       2.880   7.094  18.704  0.00  0.00    +0.000 A 
ATOM      7  C   UNL     1       2.519   8.055  17.754  0.00  0.00    +0.000 A 
ATOM      8  C   UNL     1       1.723   9.150  18.107  0.00  0.00    +0.000 A 
ATOM      9  C   UNL     1       1.191   9.188  19.404  0.00  0.00    +0.000 A 
ENDROOT
BRANCH   6  10
ATOM     10  S   UNL     1       4.056   5.826  18.256  0.00  0.00    +0.000 S 
ATOM     11  O   UNL     1       4.914   6.384  17.223  0.00  0.00    +0.000 OA
ATOM     12  O   UNL     1       4.623   5.294  19.478  0.00  0.00    +0.000 OA
BRANCH  10  13
ATOM     13  N   UNL     1       3.136   4.578  17.543  0.00  0.00    +0.000 NA
ATOM     14  C   UNL     1       1.673   4.558  17.748  0.00  0.00    +0.000 C 
ATOM     15  C   UNL     1       1.425   3.517  18.821  0.00  0.00    +0.000 C 
ATOM     16  C   UNL     1       2.476   2.459  18.543  0.00  0.00    +0.000 C 
ATOM     17  C   UNL     1       3.611   3.186  17.815  0.00  0.00    +0.000 C 
ENDBRANCH  10  13
ENDBRANCH   6  10
BRANCH   1  18
ATOM     18  C   UNL     1      -0.064  11.371  19.397  0.00  0.00    +0.000 C 
BRANCH  18  19
ATOM     19  C   UNL     1       0.122  12.638  20.240  0.00  0.00    +0.000 C 
BRANCH  19  21
ATOM     20  N   UNL     1      -2.291  12.476  20.556  0.00  0.00    +0.000 N 
ATOM     21  C   UNL     1      -1.207  13.333  20.470  0.00  0.00    +0.000 C 
ATOM     22  O   UNL     1      -1.303  14.546  20.576  0.00  0.00    +0.000 OA
ATOM     23  H   UNL     1      -2.181  11.505  20.312  0.00  0.00    +0.000 HD
BRANCH  20  25
ATOM     24  C   UNL     1      -4.023  12.799  22.306  0.00  0.00    +0.000 C 
ATOM     25  C   UNL     1      -3.627  12.982  20.834  0.00  0.00    +0.000 C 
BRANCH  25  26
ATOM     26  C   UNL     1      -4.684  12.347  19.946  0.00  0.00    +0.000 A 
ATOM     27  C   UNL     1      -5.957  12.077  20.472  0.00  0.00    +0.000 A 
ATOM     28  C   UNL     1      -6.895  11.351  19.734  0.00  0.00    +0.000 A 
ATOM     29  C   UNL     1      -6.580  10.903  18.453  0.00  0.00    +0.000 A 
ATOM     30  C   UNL     1      -5.334  11.192  17.903  0.00  0.00    +0.000 A 
ATOM     31  C   UNL     1      -4.394  11.913  18.641  0.00  0.00    +0.000 A 
ENDBRANCH  25  26
ENDBRANCH  20  25
ENDBRANCH  19  21
ENDBRANCH  18  19
ENDBRANCH   1  18
TORSDOF 7
ENDMDL
