MODEL 1
REMARK VINA RESULT:      -7.9      0.000      0.000
REMARK  Name = 
REMARK  5 active torsions:
REMARK  status: ('A' for Active; 'I' for Inactive)
REMARK    1  A    between atoms: C_1  and  C_2
REMARK    2  A    between atoms: C_5  and  C_6
REMARK    3  A    between atoms: C_6  and  C_8
REMARK    4  A    between atoms: C_9  and  C_10
REMARK    5  A    between atoms: C_19  and  C_20
REMARK                            x       y       z     vdW  Elec       q    Type
REMARK                         _______ _______ _______ _____ _____    ______ ____
ROOT
ATOM      1  C   UNL     1       4.147   5.652  19.168  0.00  0.00    +0.000 C 
ATOM      2  C   UNL     1       3.343   6.279  18.295  0.00  0.00    +0.000 C 
ENDROOT
BRANCH   2   3
ATOM      3  C   UNL     1       2.519   7.429  18.675  0.00  0.00    +0.000 A 
ATOM      4  C   UNL     1       2.210   8.420  17.719  0.00  0.00    +0.000 A 
ATOM      5  C   UNL     1       1.422   9.524  18.065  0.00  0.00    +0.000 A 
ATOM      6  C   UNL     1       0.970   9.611  19.361  0.00  0.00    +0.000 A 
ATOM      7  C   UNL     1       1.267   8.645  20.296  0.00  0.00    +0.000 A 
ATOM      8  C   UNL     1       2.035   7.541  19.984  0.00  0.00    +0.000 A 
ATOM      9  O   UNL     1       0.726   8.918  21.511  0.00  0.00    +0.000 OA
ATOM     10  C   UNL     1       0.082  10.185  21.247  0.00  0.00    +0.000 C 
ATOM     11  O   UNL     1       0.207  10.612  19.875  0.00  0.00    +0.000 OA
ENDBRANCH   2   3
BRANCH   1  12
ATOM     12  C   UNL     1       4.922   4.456  18.721  0.00  0.00    +0.000 C 
ATOM     13  O   UNL     1       5.028   3.467  19.437  0.00  0.00    +0.000 OA
BRANCH  12  18
ATOM     14  C   UNL     1       7.283   4.883  13.412  0.00  0.00    +0.000 C 
ATOM     15  C   UNL     1       6.691   4.737  14.783  0.00  0.00    +0.000 A 
ATOM     16  C   UNL     1       5.451   4.130  14.976  0.00  0.00    +0.000 A 
ATOM     17  C   UNL     1       4.907   4.029  16.260  0.00  0.00    +0.000 A 
ATOM     18  C   UNL     1       5.597   4.518  17.385  0.00  0.00    +0.000 A 
ATOM     19  C   UNL     1       6.858   5.124  17.203  0.00  0.00    +0.000 A 
ATOM     20  C   UNL     1       7.706   5.698  18.307  0.00  0.00    +0.000 C 
ATOM     21  C   UNL     1       7.381   5.228  15.896  0.00  0.00    +0.000 A 
ENDBRANCH  12  18
ENDBRANCH   1  12
TORSDOF 3
ENDMDL
MODEL 2
REMARK VINA RESULT:      -7.8      0.737      1.496
REMARK  Name = 
REMARK  5 active torsions:
REMARK  status: ('A' for Active; 'I' for Inactive)
REMARK    1  A    between atoms: C_1  and  C_2
REMARK    2  A    between atoms: C_5  and  C_6
REMARK    3  A    between atoms: C_6  and  C_8
REMARK    4  A    between atoms: C_9  and  C_10
REMARK    5  A    between atoms: C_19  and  C_20
REMARK                            x       y       z     vdW  Elec       q    Type
REMARK                         _______ _______ _______ _____ _____    ______ ____
ROOT
ATOM      1  C   UNL     1       4.174   5.463  19.494  0.00  0.00    +0.000 C 
ATOM      2  C   UNL     1       3.145   5.975  18.800  0.00  0.00    +0.000 C 
ENDROOT
BRANCH   2   3
ATOM      3  C   UNL     1       2.372   7.124  19.279  0.00  0.00    +0.000 A 
ATOM      4  C   UNL     1       1.845   7.121  20.588  0.00  0.00    +0.000 A 
ATOM      5  C   UNL     1       1.106   8.211  21.062  0.00  0.00    +0.000 A 
ATOM      6  C   UNL     1       0.908   9.273  20.210  0.00  0.00    +0.000 A 
ATOM      7  C   UNL     1       1.422   9.281  18.934  0.00  0.00    +0.000 A 
ATOM      8  C   UNL     1       2.161   8.225  18.440  0.00  0.00    +0.000 A 
ATOM      9  O   UNL     1       1.115  10.419  18.259  0.00  0.00    +0.000 OA
ATOM     10  C   UNL     1       0.316  11.115  19.243  0.00  0.00    +0.000 C 
ATOM     11  O   UNL     1       0.210  10.404  20.495  0.00  0.00    +0.000 OA
ENDBRANCH   2   3
BRANCH   1  12
ATOM     12  C   UNL     1       4.886   4.260  18.966  0.00  0.00    +0.000 C 
ATOM     13  O   UNL     1       4.949   3.225  19.620  0.00  0.00    +0.000 OA
BRANCH  12  18
ATOM     14  C   UNL     1       7.210   4.882  13.661  0.00  0.00    +0.000 C 
ATOM     15  C   UNL     1       6.627   4.686  15.029  0.00  0.00    +0.000 A 
ATOM     16  C   UNL     1       5.387   4.075  15.208  0.00  0.00    +0.000 A 
ATOM     17  C   UNL     1       4.851   3.927  16.491  0.00  0.00    +0.000 A 
ATOM     18  C   UNL     1       5.551   4.372  17.629  0.00  0.00    +0.000 A 
ATOM     19  C   UNL     1       6.813   4.980  17.461  0.00  0.00    +0.000 A 
ATOM     20  C   UNL     1       7.670   5.509  18.579  0.00  0.00    +0.000 C 
ATOM     21  C   UNL     1       7.327   5.132  16.155  0.00  0.00    +0.000 A 
ENDBRANCH  12  18
ENDBRANCH   1  12
TORSDOF 3
ENDMDL
MODEL 3
REMARK VINA RESULT:      -7.8      5.301      6.971
REMARK  Name = 
REMARK  5 active torsions:
REMARK  status: ('A' for Active; 'I' for Inactive)
REMARK    1  A    between atoms: C_1  and  C_2
REMARK    2  A    between atoms: C_5  and  C_6
REMARK    3  A    between atoms: C_6  and  C_8
REMARK    4  A    between atoms: C_9  and  C_10
REMARK    5  A    between atoms: C_19  and  C_20
REMARK                            x       y       z     vdW  Elec       q    Type
REMARK                         _______ _______ _______ _____ _____    ______ ____
ROOT
ATOM      1  C   UNL     1       7.610   8.591  17.486  0.00  0.00    +0.000 C 
ATOM      2  C   UNL     1       8.543   8.773  18.434  0.00  0.00    +0.000 C 
ENDROOT
BRANCH   2   3
ATOM      3  C   UNL     1       9.003  10.105  18.833  0.00  0.00    +0.000 A 
ATOM      4  C   UNL     1       9.425  10.336  20.160  0.00  0.00    +0.000 A 
ATOM      5  C   UNL     1       9.869  11.602  20.557  0.00  0.00    +0.000 A 
ATOM      6  C   UNL     1       9.874  12.606  19.618  0.00  0.00    +0.000 A 
ATOM      7  C   UNL     1       9.467  12.385  18.322  0.00  0.00    +0.000 A 
ATOM      8  C   UNL     1       9.030  11.147  17.897  0.00  0.00    +0.000 A 
ATOM      9  O   UNL     1       9.549  13.504  17.555  0.00  0.00    +0.000 OA
ATOM     10  C   UNL     1      10.022  14.467  18.524  0.00  0.00    +0.000 C 
ATOM     11  O   UNL     1      10.260  13.893  19.827  0.00  0.00    +0.000 OA
ENDBRANCH   2   3
BRANCH   1  12
ATOM     12  C   UNL     1       7.225   7.200  17.097  0.00  0.00    +0.000 C 
ATOM     13  O   UNL     1       7.838   6.595  16.225  0.00  0.00    +0.000 OA
BRANCH  12  18
ATOM     14  C   UNL     1       2.549   4.648  19.455  0.00  0.00    +0.000 C 
ATOM     15  C   UNL     1       3.747   5.337  18.871  0.00  0.00    +0.000 A 
ATOM     16  C   UNL     1       3.629   6.188  17.773  0.00  0.00    +0.000 A 
ATOM     17  C   UNL     1       4.764   6.798  17.228  0.00  0.00    +0.000 A 
ATOM     18  C   UNL     1       6.041   6.585  17.779  0.00  0.00    +0.000 A 
ATOM     19  C   UNL     1       6.170   5.736  18.898  0.00  0.00    +0.000 A 
ATOM     20  C   UNL     1       7.469   5.409  19.586  0.00  0.00    +0.000 C 
ATOM     21  C   UNL     1       5.014   5.119  19.422  0.00  0.00    +0.000 A 
ENDBRANCH  12  18
ENDBRANCH   1  12
TORSDOF 3
ENDMDL
MODEL 4
REMARK VINA RESULT:      -7.6      5.260      6.710
REMARK  Name = 
REMARK  5 active torsions:
REMARK  status: ('A' for Active; 'I' for Inactive)
REMARK    1  A    between atoms: C_1  and  C_2
REMARK    2  A    between atoms: C_5  and  C_6
REMARK    3  A    between atoms: C_6  and  C_8
REMARK    4  A    between atoms: C_9  and  C_10
REMARK    5  A    between atoms: C_19  and  C_20
REMARK                            x       y       z     vdW  Elec       q    Type
REMARK                         _______ _______ _______ _____ _____    ______ ____
ROOT
ATOM      1  C   UNL     1       7.439   8.518  17.407  0.00  0.00    +0.000 C 
ATOM      2  C   UNL     1       8.459   8.803  18.232  0.00  0.00    +0.000 C 
ENDROOT
BRANCH   2   3
ATOM      3  C   UNL     1       8.822  10.179  18.583  0.00  0.00    +0.000 A 
ATOM      4  C   UNL     1       8.553  11.229  17.680  0.00  0.00    +0.000 A 
ATOM      5  C   UNL     1       8.892  12.549  18.000  0.00  0.00    +0.000 A 
ATOM      6  C   UNL     1       9.497  12.782  19.213  0.00  0.00    +0.000 A 
ATOM      7  C   UNL     1       9.759  11.761  20.098  0.00  0.00    +0.000 A 
ATOM      8  C   UNL     1       9.431  10.450  19.815  0.00  0.00    +0.000 A 
ATOM      9  O   UNL     1      10.358  12.201  21.234  0.00  0.00    +0.000 OA
ATOM     10  C   UNL     1      10.478  13.614  20.952  0.00  0.00    +0.000 C 
ATOM     11  O   UNL     1       9.903  13.991  19.683  0.00  0.00    +0.000 OA
ENDBRANCH   2   3
BRANCH   1  12
ATOM     12  C   UNL     1       7.158   7.093  17.057  0.00  0.00    +0.000 C 
ATOM     13  O   UNL     1       7.819   6.509  16.206  0.00  0.00    +0.000 OA
BRANCH  12  18
ATOM     14  C   UNL     1       2.671   4.272  19.473  0.00  0.00    +0.000 C 
ATOM     15  C   UNL     1       3.817   5.031  18.872  0.00  0.00    +0.000 A 
ATOM     16  C   UNL     1       3.647   5.819  17.735  0.00  0.00    +0.000 A 
ATOM     17  C   UNL     1       4.737   6.496  17.176  0.00  0.00    +0.000 A 
ATOM     18  C   UNL     1       6.018   6.413  17.752  0.00  0.00    +0.000 A 
ATOM     19  C   UNL     1       6.199   5.628  18.910  0.00  0.00    +0.000 A 
ATOM     20  C   UNL     1       7.509   5.441  19.628  0.00  0.00    +0.000 C 
ATOM     21  C   UNL     1       5.089   4.942  19.448  0.00  0.00    +0.000 A 
ENDBRANCH  12  18
ENDBRANCH   1  12
TORSDOF 3
ENDMDL
MODEL 5
REMARK VINA RESULT:      -7.5      1.682      3.139
REMARK  Name = 
REMARK  5 active torsions:
REMARK  status: ('A' for Active; 'I' for Inactive)
REMARK    1  A    between atoms: C_1  and  C_2
REMARK    2  A    between atoms: C_5  and  C_6
REMARK    3  A    between atoms: C_6  and  C_8
REMARK    4  A    between atoms: C_9  and  C_10
REMARK    5  A    between atoms: C_19  and  C_20
REMARK                            x       y       z     vdW  Elec       q    Type
REMARK                         _______ _______ _______ _____ _____    ______ ____
ROOT
ATOM      1  C   UNL     1       1.650   6.048  20.781  0.00  0.00    +0.000 C 
ATOM      2  C   UNL     1       2.075   7.251  20.367  0.00  0.00    +0.000 C 
ENDROOT
BRANCH   2   3
ATOM      3  C   UNL     1       1.294   8.473  20.579  0.00  0.00    +0.000 A 
ATOM      4  C   UNL     1       0.925   9.272  19.476  0.00  0.00    +0.000 A 
ATOM      5  C   UNL     1       0.177  10.442  19.662  0.00  0.00    +0.000 A 
ATOM      6  C   UNL     1      -0.175  10.783  20.946  0.00  0.00    +0.000 A 
ATOM      7  C   UNL     1       0.180  10.005  22.024  0.00  0.00    +0.000 A 
ATOM      8  C   UNL     1       0.910   8.843  21.874  0.00  0.00    +0.000 A 
ATOM      9  O   UNL     1      -0.265  10.516  23.201  0.00  0.00    +0.000 OA
ATOM     10  C   UNL     1      -0.914  11.726  22.748  0.00  0.00    +0.000 C 
ATOM     11  O   UNL     1      -0.886  11.882  21.313  0.00  0.00    +0.000 OA
ENDBRANCH   2   3
BRANCH   1  12
ATOM     12  C   UNL     1       2.478   4.839  20.486  0.00  0.00    +0.000 C 
ATOM     13  O   UNL     1       2.451   3.860  21.223  0.00  0.00    +0.000 OA
BRANCH  12  18
ATOM     14  C   UNL     1       6.145   4.756  15.961  0.00  0.00    +0.000 C 
ATOM     15  C   UNL     1       5.194   4.816  17.120  0.00  0.00    +0.000 A 
ATOM     16  C   UNL     1       5.630   5.168  18.397  0.00  0.00    +0.000 A 
ATOM     17  C   UNL     1       4.730   5.191  19.468  0.00  0.00    +0.000 A 
ATOM     18  C   UNL     1       3.371   4.878  19.284  0.00  0.00    +0.000 A 
ATOM     19  C   UNL     1       2.917   4.533  17.994  0.00  0.00    +0.000 A 
ATOM     20  C   UNL     1       1.497   4.168  17.649  0.00  0.00    +0.000 C 
ATOM     21  C   UNL     1       3.844   4.501  16.931  0.00  0.00    +0.000 A 
ENDBRANCH  12  18
ENDBRANCH   1  12
TORSDOF 3
ENDMDL
MODEL 6
REMARK VINA RESULT:      -7.4      1.689      2.762
REMARK  Name = 
REMARK  5 active torsions:
REMARK  status: ('A' for Active; 'I' for Inactive)
REMARK    1  A    between atoms: C_1  and  C_2
REMARK    2  A    between atoms: C_5  and  C_6
REMARK    3  A    between atoms: C_6  and  C_8
REMARK    4  A    between atoms: C_9  and  C_10
REMARK    5  A    between atoms: C_19  and  C_20
REMARK                            x       y       z     vdW  Elec       q    Type
REMARK                         _______ _______ _______ _____ _____    ______ ____
ROOT
ATOM      1  C   UNL     1       2.333   7.035  19.399  0.00  0.00    +0.000 C 
ATOM      2  C   UNL     1       1.870   7.413  20.601  0.00  0.00    +0.000 C 
ENDROOT
BRANCH   2   3
ATOM      3  C   UNL     1       1.117   8.655  20.794  0.00  0.00    +0.000 A 
ATOM      4  C   UNL     1       0.895   9.521  19.702  0.00  0.00    +0.000 A 
ATOM      5  C   UNL     1       0.176  10.711  19.869  0.00  0.00    +0.000 A 
ATOM      6  C   UNL     1      -0.297  11.004  21.127  0.00  0.00    +0.000 A 
ATOM      7  C   UNL     1      -0.087  10.161  22.194  0.00  0.00    +0.000 A 
ATOM      8  C   UNL     1       0.612   8.979  22.060  0.00  0.00    +0.000 A 
ATOM      9  O   UNL     1      -0.635  10.634  23.343  0.00  0.00    +0.000 OA
ATOM     10  C   UNL     1      -1.187  11.890  22.888  0.00  0.00    +0.000 C 
ATOM     11  O   UNL     1      -1.002  12.114  21.474  0.00  0.00    +0.000 OA
ENDBRANCH   2   3
BRANCH   1  12
ATOM     12  C   UNL     1       3.135   5.779  19.287  0.00  0.00    +0.000 C 
ATOM     13  O   UNL     1       3.220   4.997  20.227  0.00  0.00    +0.000 OA
BRANCH  12  18
ATOM     14  C   UNL     1       6.254   4.896  14.447  0.00  0.00    +0.000 C 
ATOM     15  C   UNL     1       5.420   5.134  15.671  0.00  0.00    +0.000 A 
ATOM     16  C   UNL     1       5.339   6.396  16.258  0.00  0.00    +0.000 A 
ATOM     17  C   UNL     1       4.576   6.588  17.415  0.00  0.00    +0.000 A 
ATOM     18  C   UNL     1       3.863   5.526  18.002  0.00  0.00    +0.000 A 
ATOM     19  C   UNL     1       3.928   4.248  17.410  0.00  0.00    +0.000 A 
ATOM     20  C   UNL     1       3.228   3.020  17.929  0.00  0.00    +0.000 C 
ATOM     21  C   UNL     1       4.716   4.073  16.251  0.00  0.00    +0.000 A 
ENDBRANCH  12  18
ENDBRANCH   1  12
TORSDOF 3
ENDMDL
MODEL 7
REMARK VINA RESULT:      -7.4      0.986      2.233
REMARK  Name = 
REMARK  5 active torsions:
REMARK  status: ('A' for Active; 'I' for Inactive)
REMARK    1  A    between atoms: C_1  and  C_2
REMARK    2  A    between atoms: C_5  and  C_6
REMARK    3  A    between atoms: C_6  and  C_8
REMARK    4  A    between atoms: C_9  and  C_10
REMARK    5  A    between atoms: C_19  and  C_20
REMARK                            x       y       z     vdW  Elec       q    Type
REMARK                         _______ _______ _______ _____ _____    ______ ____
ROOT
ATOM      1  C   UNL     1       3.649   5.224  19.811  0.00  0.00    +0.000 C 
ATOM      2  C   UNL     1       3.291   6.242  19.013  0.00  0.00    +0.000 C 
ENDROOT
BRANCH   2   3
ATOM      3  C   UNL     1       2.376   7.298  19.455  0.00  0.00    +0.000 A 
ATOM      4  C   UNL     1       1.797   7.235  20.740  0.00  0.00    +0.000 A 
ATOM      5  C   UNL     1       0.922   8.237  21.178  0.00  0.00    +0.000 A 
ATOM      6  C   UNL     1       0.646   9.271  20.315  0.00  0.00    +0.000 A 
ATOM      7  C   UNL     1       1.211   9.339  19.062  0.00  0.00    +0.000 A 
ATOM      8  C   UNL     1       2.082   8.371  18.604  0.00  0.00    +0.000 A 
ATOM      9  O   UNL     1       0.810  10.437  18.372  0.00  0.00    +0.000 OA
ATOM     10  C   UNL     1      -0.102  11.039  19.318  0.00  0.00    +0.000 C 
ATOM     11  O   UNL     1      -0.184  10.319  20.566  0.00  0.00    +0.000 OA
ENDBRANCH   2   3
BRANCH   1  12
ATOM     12  C   UNL     1       4.548   4.157  19.275  0.00  0.00    +0.000 C 
ATOM     13  O   UNL     1       4.832   3.173  19.948  0.00  0.00    +0.000 OA
BRANCH  12  18
ATOM     14  C   UNL     1       7.035   4.694  14.035  0.00  0.00    +0.000 C 
ATOM     15  C   UNL     1       6.382   4.593  15.382  0.00  0.00    +0.000 A 
ATOM     16  C   UNL     1       7.049   4.983  16.541  0.00  0.00    +0.000 A 
ATOM     17  C   UNL     1       6.430   4.855  17.789  0.00  0.00    +0.000 A 
ATOM     18  C   UNL     1       5.122   4.348  17.904  0.00  0.00    +0.000 A 
ATOM     19  C   UNL     1       4.433   3.962  16.736  0.00  0.00    +0.000 A 
ATOM     20  C   UNL     1       3.037   3.399  16.705  0.00  0.00    +0.000 C 
ATOM     21  C   UNL     1       5.082   4.087  15.489  0.00  0.00    +0.000 A 
ENDBRANCH  12  18
ENDBRANCH   1  12
TORSDOF 3
ENDMDL
MODEL 8
REMARK VINA RESULT:      -7.4      0.590      1.627
REMARK  Name = 
REMARK  5 active torsions:
REMARK  status: ('A' for Active; 'I' for Inactive)
REMARK    1  A    between atoms: C_1  and  C_2
REMARK    2  A    between atoms: C_5  and  C_6
REMARK    3  A    between atoms: C_6  and  C_8
REMARK    4  A    between atoms: C_9  and  C_10
REMARK    5  A    between atoms: C_19  and  C_20
REMARK                            x       y       z     vdW  Elec       q    Type
REMARK                         _______ _______ _______ _____ _____    ______ ____
ROOT
ATOM      1  C   UNL     1       3.839   5.634  19.521  0.00  0.00    +0.000 C 
ATOM      2  C   UNL     1       3.237   6.443  18.635  0.00  0.00    +0.000 C 
ENDROOT
BRANCH   2   3
ATOM      3  C   UNL     1       2.358   7.540  19.048  0.00  0.00    +0.000 A 
ATOM      4  C   UNL     1       1.999   8.542  18.121  0.00  0.00    +0.000 A 
ATOM      5  C   UNL     1       1.160   9.596  18.500  0.00  0.00    +0.000 A 
ATOM      6  C   UNL     1       0.706   9.623  19.798  0.00  0.00    +0.000 A 
ATOM      7  C   UNL     1       1.051   8.647  20.704  0.00  0.00    +0.000 A 
ATOM      8  C   UNL     1       1.872   7.591  20.361  0.00  0.00    +0.000 A 
ATOM      9  O   UNL     1       0.500   8.858  21.927  0.00  0.00    +0.000 OA
ATOM     10  C   UNL     1      -0.206  10.099  21.700  0.00  0.00    +0.000 C 
ATOM     11  O   UNL     1      -0.103  10.571  20.340  0.00  0.00    +0.000 OA
ENDBRANCH   2   3
BRANCH   1  12
ATOM     12  C   UNL     1       4.683   4.505  19.024  0.00  0.00    +0.000 C 
ATOM     13  O   UNL     1       4.943   3.546  19.742  0.00  0.00    +0.000 OA
BRANCH  12  18
ATOM     14  C   UNL     1       7.106   4.728  13.731  0.00  0.00    +0.000 C 
ATOM     15  C   UNL     1       6.463   4.705  15.087  0.00  0.00    +0.000 A 
ATOM     16  C   UNL     1       7.056   5.335  16.180  0.00  0.00    +0.000 A 
ATOM     17  C   UNL     1       6.453   5.277  17.440  0.00  0.00    +0.000 A 
ATOM     18  C   UNL     1       5.233   4.602  17.634  0.00  0.00    +0.000 A 
ATOM     19  C   UNL     1       4.618   3.972  16.532  0.00  0.00    +0.000 A 
ATOM     20  C   UNL     1       3.321   3.208  16.589  0.00  0.00    +0.000 C 
ATOM     21  C   UNL     1       5.252   4.030  15.273  0.00  0.00    +0.000 A 
ENDBRANCH  12  18
ENDBRANCH   1  12
TORSDOF 3
ENDMDL
MODEL 9
REMARK VINA RESULT:      -7.3      5.258      6.913
REMARK  Name = 
REMARK  5 active torsions:
REMARK  status: ('A' for Active; 'I' for Inactive)
REMARK    1  A    between atoms: C_1  and  C_2
REMARK    2  A    between atoms: C_5  and  C_6
REMARK    3  A    between atoms: C_6  and  C_8
REMARK    4  A    between atoms: C_9  and  C_10
REMARK    5  A    between atoms: C_19  and  C_20
REMARK                            x       y       z     vdW  Elec       q    Type
REMARK                         _______ _______ _______ _____ _____    ______ ____
ROOT
ATOM      1  C   UNL     1       7.958   7.981  18.122  0.00  0.00    +0.000 C 
ATOM      2  C   UNL     1       8.183   9.180  17.561  0.00  0.00    +0.000 C 
ENDROOT
BRANCH   2   3
ATOM      3  C   UNL     1       8.716  10.313  18.322  0.00  0.00    +0.000 A 
ATOM      4  C   UNL     1       9.288  10.100  19.594  0.00  0.00    +0.000 A 
ATOM      5  C   UNL     1       9.803  11.171  20.334  0.00  0.00    +0.000 A 
ATOM      6  C   UNL     1       9.726  12.429  19.783  0.00  0.00    +0.000 A 
ATOM      7  C   UNL     1       9.172  12.641  18.541  0.00  0.00    +0.000 A 
ATOM      8  C   UNL     1       8.662  11.605  17.784  0.00  0.00    +0.000 A 
ATOM      9  O   UNL     1       9.194  13.950  18.181  0.00  0.00    +0.000 OA
ATOM     10  C   UNL     1       9.794  14.547  19.353  0.00  0.00    +0.000 C 
ATOM     11  O   UNL     1      10.163  13.580  20.359  0.00  0.00    +0.000 OA
ENDBRANCH   2   3
BRANCH   1  12
ATOM     12  C   UNL     1       7.368   6.886  17.294  0.00  0.00    +0.000 C 
ATOM     13  O   UNL     1       7.868   6.564  16.222  0.00  0.00    +0.000 OA
BRANCH  12  18
ATOM     14  C   UNL     1       2.566   4.476  19.544  0.00  0.00    +0.000 C 
ATOM     15  C   UNL     1       3.810   5.063  18.945  0.00  0.00    +0.000 A 
ATOM     16  C   UNL     1       5.053   4.899  19.553  0.00  0.00    +0.000 A 
ATOM     17  C   UNL     1       6.196   5.478  18.991  0.00  0.00    +0.000 A 
ATOM     18  C   UNL     1       6.124   6.222  17.798  0.00  0.00    +0.000 A 
ATOM     19  C   UNL     1       4.872   6.383  17.168  0.00  0.00    +0.000 A 
ATOM     20  C   UNL     1       4.641   7.156  15.896  0.00  0.00    +0.000 C 
ATOM     21  C   UNL     1       3.731   5.803  17.760  0.00  0.00    +0.000 A 
ENDBRANCH  12  18
ENDBRANCH   1  12
TORSDOF 3
ENDMDL
