MODEL 1
REMARK VINA RESULT:      -7.0      0.000      0.000
REMARK  Name = 
REMARK  9 active torsions:
REMARK  status: ('A' for Active; 'I' for Inactive)
REMARK    1  A    between atoms: C_1  and  O_2
REMARK    2  A    between atoms: O_2  and  C_3
REMARK    3  A    between atoms: C_5  and  C_6
REMARK    4  A    between atoms: C_6  and  O_7
REMARK    5  A    between atoms: C_8  and  O_9
REMARK    6  A    between atoms: C_10  and  O_11
REMARK    7  A    between atoms: C_12  and  N_13
REMARK    8  A    between atoms: N_16  and  C_17
REMARK    9  A    between atoms: N_16  and  N_18
REMARK                            x       y       z     vdW  Elec       q    Type
REMARK                         _______ _______ _______ _____ _____    ______ ____
ROOT
ATOM      1  C   UNL     1       3.907   5.110  18.719  0.00  0.00    +0.000 C 
ATOM      2  O   UNL     1       3.451   4.774  20.041  0.00  0.00    +0.000 OA
ATOM      3  C   UNL     1       2.392   3.803  20.030  0.00  0.00    +0.000 C 
ATOM      4  C   UNL     1       2.876   2.481  19.433  0.00  0.00    +0.000 C 
ATOM      5  C   UNL     1       3.516   2.709  18.054  0.00  0.00    +0.000 C 
ATOM      6  C   UNL     1       4.538   3.861  18.047  0.00  0.00    +0.000 C 
ENDROOT
BRANCH   6   7
ATOM      7  N   UNL     1       5.002   4.056  16.659  0.00  0.00    +0.000 N 
ATOM      8  C   UNL     1       6.177   4.714  16.366  0.00  0.00    +0.000 C 
ATOM      9  O   UNL     1       6.798   5.275  17.268  0.00  0.00    +0.000 OA
ATOM     10  N   UNL     1       6.569   4.707  15.025  0.00  0.00    +0.000 N 
ATOM     11  C   UNL     1       5.899   4.023  13.917  0.00  0.00    +0.000 C 
ATOM     12  H   UNL     1       4.723   3.301  16.047  0.00  0.00    +0.000 HD
BRANCH  10  13
ATOM     13  N   UNL     1       7.767   5.391  14.742  0.00  0.00    +0.000 NA
ATOM     14  O   UNL     1       7.952   5.619  13.544  0.00  0.00    +0.000 OA
ENDBRANCH  10  13
ENDBRANCH   6   7
BRANCH   1  16
ATOM     15  C   UNL     1       2.575   6.984  18.164  0.00  0.00    +0.000 C 
ATOM     16  O   UNL     1       2.826   5.603  17.919  0.00  0.00    +0.000 OA
ENDBRANCH   1  16
BRANCH   4  17
ATOM     17  O   UNL     1       1.805   1.539  19.318  0.00  0.00    +0.000 OA
ATOM     18  H   UNL     1       2.144   0.734  18.878  0.00  0.00    +0.000 HD
ENDBRANCH   4  17
BRANCH   5  19
ATOM     19  O   UNL     1       4.163   1.513  17.571  0.00  0.00    +0.000 OA
ATOM     20  H   UNL     1       4.587   1.068  18.329  0.00  0.00    +0.000 HD
ENDBRANCH   5  19
BRANCH   3  21
ATOM     21  C   UNL     1       1.905   3.638  21.475  0.00  0.00    +0.000 C 
BRANCH  21  22
ATOM     22  O   UNL     1       2.613   2.563  22.097  0.00  0.00    +0.000 OA
ATOM     23  H   UNL     1       2.946   2.009  21.365  0.00  0.00    +0.000 HD
ENDBRANCH  21  22
ENDBRANCH   3  21
TORSDOF 7
ENDMDL
MODEL 2
REMARK VINA RESULT:      -6.3      1.019      1.042
REMARK  Name = 
REMARK  9 active torsions:
REMARK  status: ('A' for Active; 'I' for Inactive)
REMARK    1  A    between atoms: C_1  and  O_2
REMARK    2  A    between atoms: O_2  and  C_3
REMARK    3  A    between atoms: C_5  and  C_6
REMARK    4  A    between atoms: C_6  and  O_7
REMARK    5  A    between atoms: C_8  and  O_9
REMARK    6  A    between atoms: C_10  and  O_11
REMARK    7  A    between atoms: C_12  and  N_13
REMARK    8  A    between atoms: N_16  and  C_17
REMARK    9  A    between atoms: N_16  and  N_18
REMARK                            x       y       z     vdW  Elec       q    Type
REMARK                         _______ _______ _______ _____ _____    ______ ____
ROOT
ATOM      1  C   UNL     1       3.309   5.431  19.639  0.00  0.00    +0.000 C 
ATOM      2  O   UNL     1       2.835   4.657  20.755  0.00  0.00    +0.000 OA
ATOM      3  C   UNL     1       1.976   3.577  20.353  0.00  0.00    +0.000 C 
ATOM      4  C   UNL     1       2.734   2.580  19.475  0.00  0.00    +0.000 C 
ATOM      5  C   UNL     1       3.411   3.299  18.297  0.00  0.00    +0.000 C 
ATOM      6  C   UNL     1       4.201   4.548  18.727  0.00  0.00    +0.000 C 
ENDROOT
BRANCH   6   7
ATOM      7  N   UNL     1       4.713   5.211  17.510  0.00  0.00    +0.000 N 
ATOM      8  C   UNL     1       5.986   4.983  17.033  0.00  0.00    +0.000 C 
ATOM      9  O   UNL     1       6.773   4.315  17.701  0.00  0.00    +0.000 OA
ATOM     10  N   UNL     1       6.293   5.563  15.800  0.00  0.00    +0.000 N 
ATOM     11  C   UNL     1       5.390   6.330  14.939  0.00  0.00    +0.000 C 
ATOM     12  H   UNL     1       3.985   5.394  16.833  0.00  0.00    +0.000 HD
BRANCH  10  13
ATOM     13  N   UNL     1       7.600   5.327  15.331  0.00  0.00    +0.000 NA
ATOM     14  O   UNL     1       7.729   5.433  14.109  0.00  0.00    +0.000 OA
ENDBRANCH  10  13
ENDBRANCH   6   7
BRANCH   1  16
ATOM     15  C   UNL     1       2.283   7.377  18.772  0.00  0.00    +0.000 C 
ATOM     16  O   UNL     1       2.210   5.960  18.887  0.00  0.00    +0.000 OA
ENDBRANCH   1  16
BRANCH   4  17
ATOM     17  O   UNL     1       1.864   1.557  18.981  0.00  0.00    +0.000 OA
ATOM     18  H   UNL     1       1.500   1.063  19.742  0.00  0.00    +0.000 HD
ENDBRANCH   4  17
BRANCH   5  19
ATOM     19  O   UNL     1       4.298   2.413  17.581  0.00  0.00    +0.000 OA
ATOM     20  H   UNL     1       3.755   1.739  17.129  0.00  0.00    +0.000 HD
ENDBRANCH   5  19
BRANCH   3  21
ATOM     21  C   UNL     1       1.432   2.923  21.629  0.00  0.00    +0.000 C 
BRANCH  21  22
ATOM     22  O   UNL     1       2.465   2.148  22.244  0.00  0.00    +0.000 OA
ATOM     23  H   UNL     1       3.106   1.952  21.534  0.00  0.00    +0.000 HD
ENDBRANCH  21  22
ENDBRANCH   3  21
TORSDOF 7
ENDMDL
MODEL 3
REMARK VINA RESULT:      -6.3      1.373      1.390
REMARK  Name = 
REMARK  9 active torsions:
REMARK  status: ('A' for Active; 'I' for Inactive)
REMARK    1  A    between atoms: C_1  and  O_2
REMARK    2  A    between atoms: O_2  and  C_3
REMARK    3  A    between atoms: C_5  and  C_6
REMARK    4  A    between atoms: C_6  and  O_7
REMARK    5  A    between atoms: C_8  and  O_9
REMARK    6  A    between atoms: C_10  and  O_11
REMARK    7  A    between atoms: C_12  and  N_13
REMARK    8  A    between atoms: N_16  and  C_17
REMARK    9  A    between atoms: N_16  and  N_18
REMARK                            x       y       z     vdW  Elec       q    Type
REMARK                         _______ _______ _______ _____ _____    ______ ____
ROOT
ATOM      1  C   UNL     1       3.468   5.035  19.399  0.00  0.00    +0.000 C 
ATOM      2  O   UNL     1       2.784   4.388  20.486  0.00  0.00    +0.000 OA
ATOM      3  C   UNL     1       1.830   3.411  20.035  0.00  0.00    +0.000 C 
ATOM      4  C   UNL     1       2.529   2.280  19.281  0.00  0.00    +0.000 C 
ATOM      5  C   UNL     1       3.413   2.842  18.155  0.00  0.00    +0.000 C 
ATOM      6  C   UNL     1       4.319   3.995  18.621  0.00  0.00    +0.000 C 
ENDROOT
BRANCH   6   7
ATOM      7  N   UNL     1       5.037   4.522  17.442  0.00  0.00    +0.000 N 
ATOM      8  C   UNL     1       6.086   5.407  17.559  0.00  0.00    +0.000 C 
ATOM      9  O   UNL     1       6.357   5.882  18.660  0.00  0.00    +0.000 OA
ATOM     10  N   UNL     1       6.766   5.715  16.378  0.00  0.00    +0.000 N 
ATOM     11  C   UNL     1       6.520   5.151  15.049  0.00  0.00    +0.000 C 
ATOM     12  H   UNL     1       5.065   3.859  16.678  0.00  0.00    +0.000 HD
BRANCH  10  13
ATOM     13  N   UNL     1       7.830   6.628  16.514  0.00  0.00    +0.000 NA
ATOM     14  O   UNL     1       7.482   7.776  16.799  0.00  0.00    +0.000 OA
ENDBRANCH  10  13
ENDBRANCH   6   7
BRANCH   1  16
ATOM     15  C   UNL     1       2.631   7.084  18.568  0.00  0.00    +0.000 C 
ATOM     16  O   UNL     1       2.534   5.665  18.515  0.00  0.00    +0.000 OA
ENDBRANCH   1  16
BRANCH   4  17
ATOM     17  O   UNL     1       1.581   1.356  18.735  0.00  0.00    +0.000 OA
ATOM     18  H   UNL     1       1.675   0.502  19.202  0.00  0.00    +0.000 HD
ENDBRANCH   4  17
BRANCH   5  19
ATOM     19  O   UNL     1       4.237   1.811  17.572  0.00  0.00    +0.000 OA
ATOM     20  H   UNL     1       3.689   1.300  16.946  0.00  0.00    +0.000 HD
ENDBRANCH   5  19
BRANCH   3  21
ATOM     21  C   UNL     1       1.076   2.902  21.270  0.00  0.00    +0.000 C 
BRANCH  21  22
ATOM     22  O   UNL     1       1.978   2.821  22.378  0.00  0.00    +0.000 OA
ATOM     23  H   UNL     1       2.655   3.506  22.217  0.00  0.00    +0.000 HD
ENDBRANCH  21  22
ENDBRANCH   3  21
TORSDOF 7
ENDMDL
MODEL 4
REMARK VINA RESULT:      -5.9      1.375      1.736
REMARK  Name = 
REMARK  9 active torsions:
REMARK  status: ('A' for Active; 'I' for Inactive)
REMARK    1  A    between atoms: C_1  and  O_2
REMARK    2  A    between atoms: O_2  and  C_3
REMARK    3  A    between atoms: C_5  and  C_6
REMARK    4  A    between atoms: C_6  and  O_7
REMARK    5  A    between atoms: C_8  and  O_9
REMARK    6  A    between atoms: C_10  and  O_11
REMARK    7  A    between atoms: C_12  and  N_13
REMARK    8  A    between atoms: N_16  and  C_17
REMARK    9  A    between atoms: N_16  and  N_18
REMARK                            x       y       z     vdW  Elec       q    Type
REMARK                         _______ _______ _______ _____ _____    ______ ____
ROOT
ATOM      1  C   UNL     1       2.847   4.854  17.844  0.00  0.00    +0.000 C 
ATOM      2  O   UNL     1       2.477   4.946  19.230  0.00  0.00    +0.000 OA
ATOM      3  C   UNL     1       2.863   3.783  19.984  0.00  0.00    +0.000 C 
ATOM      4  C   UNL     1       4.383   3.625  19.992  0.00  0.00    +0.000 C 
ATOM      5  C   UNL     1       4.940   3.642  18.559  0.00  0.00    +0.000 C 
ATOM      6  C   UNL     1       4.393   4.807  17.714  0.00  0.00    +0.000 C 
ENDROOT
BRANCH   6   7
ATOM      7  N   UNL     1       4.908   4.660  16.338  0.00  0.00    +0.000 N 
ATOM      8  C   UNL     1       6.094   5.235  15.935  0.00  0.00    +0.000 C 
ATOM      9  O   UNL     1       6.683   6.004  16.693  0.00  0.00    +0.000 OA
ATOM     10  N   UNL     1       6.534   4.902  14.652  0.00  0.00    +0.000 N 
ATOM     11  C   UNL     1       5.904   3.962  13.721  0.00  0.00    +0.000 C 
ATOM     12  H   UNL     1       4.651   3.776  15.920  0.00  0.00    +0.000 HD
BRANCH  10  13
ATOM     13  N   UNL     1       7.743   5.505  14.252  0.00  0.00    +0.000 NA
ATOM     14  O   UNL     1       7.944   5.483  13.036  0.00  0.00    +0.000 OA
ENDBRANCH  10  13
ENDBRANCH   6   7
BRANCH   1  16
ATOM     15  C   UNL     1       1.056   3.310  17.881  0.00  0.00    +0.000 C 
ATOM     16  O   UNL     1       2.269   3.690  17.240  0.00  0.00    +0.000 OA
ENDBRANCH   1  16
BRANCH   4  17
ATOM     17  O   UNL     1       4.776   2.415  20.648  0.00  0.00    +0.000 OA
ATOM     18  H   UNL     1       5.753   2.367  20.654  0.00  0.00    +0.000 HD
ENDBRANCH   4  17
BRANCH   5  19
ATOM     19  O   UNL     1       6.382   3.704  18.556  0.00  0.00    +0.000 OA
ATOM     20  H   UNL     1       6.649   4.580  18.219  0.00  0.00    +0.000 HD
ENDBRANCH   5  19
BRANCH   3  21
ATOM     21  C   UNL     1       2.292   3.943  21.398  0.00  0.00    +0.000 C 
BRANCH  21  22
ATOM     22  O   UNL     1       2.173   2.656  22.011  0.00  0.00    +0.000 OA
ATOM     23  H   UNL     1       3.065   2.438  22.341  0.00  0.00    +0.000 HD
ENDBRANCH  21  22
ENDBRANCH   3  21
TORSDOF 7
ENDMDL
MODEL 5
REMARK VINA RESULT:      -5.8      1.573      2.945
REMARK  Name = 
REMARK  9 active torsions:
REMARK  status: ('A' for Active; 'I' for Inactive)
REMARK    1  A    between atoms: C_1  and  O_2
REMARK    2  A    between atoms: O_2  and  C_3
REMARK    3  A    between atoms: C_5  and  C_6
REMARK    4  A    between atoms: C_6  and  O_7
REMARK    5  A    between atoms: C_8  and  O_9
REMARK    6  A    between atoms: C_10  and  O_11
REMARK    7  A    between atoms: C_12  and  N_13
REMARK    8  A    between atoms: N_16  and  C_17
REMARK    9  A    between atoms: N_16  and  N_18
REMARK                            x       y       z     vdW  Elec       q    Type
REMARK                         _______ _______ _______ _____ _____    ______ ____
ROOT
ATOM      1  C   UNL     1       3.978   3.060  18.849  0.00  0.00    +0.000 C 
ATOM      2  O   UNL     1       2.709   2.691  19.417  0.00  0.00    +0.000 OA
ATOM      3  C   UNL     1       2.335   3.527  20.525  0.00  0.00    +0.000 C 
ATOM      4  C   UNL     1       2.157   4.976  20.073  0.00  0.00    +0.000 C 
ATOM      5  C   UNL     1       3.406   5.470  19.324  0.00  0.00    +0.000 C 
ATOM      6  C   UNL     1       3.887   4.486  18.243  0.00  0.00    +0.000 C 
ENDROOT
BRANCH   6   7
ATOM      7  N   UNL     1       5.143   5.010  17.669  0.00  0.00    +0.000 N 
ATOM      8  C   UNL     1       5.480   4.819  16.347  0.00  0.00    +0.000 C 
ATOM      9  O   UNL     1       4.789   4.081  15.646  0.00  0.00    +0.000 OA
ATOM     10  N   UNL     1       6.623   5.486  15.900  0.00  0.00    +0.000 N 
ATOM     11  C   UNL     1       7.460   6.409  16.670  0.00  0.00    +0.000 C 
ATOM     12  H   UNL     1       5.440   5.872  18.108  0.00  0.00    +0.000 HD
BRANCH  10  13
ATOM     13  N   UNL     1       6.958   5.273  14.549  0.00  0.00    +0.000 NA
ATOM     14  O   UNL     1       8.090   5.651  14.239  0.00  0.00    +0.000 OA
ENDBRANCH  10  13
ENDBRANCH   6   7
BRANCH   1  16
ATOM     15  C   UNL     1       5.034   1.764  20.522  0.00  0.00    +0.000 C 
ATOM     16  O   UNL     1       5.010   3.015  19.842  0.00  0.00    +0.000 OA
ENDBRANCH   1  16
BRANCH   4  17
ATOM     17  O   UNL     1       1.889   5.838  21.184  0.00  0.00    +0.000 OA
ATOM     18  H   UNL     1       2.588   6.520  21.225  0.00  0.00    +0.000 HD
ENDBRANCH   4  17
BRANCH   5  19
ATOM     19  O   UNL     1       3.176   6.757  18.712  0.00  0.00    +0.000 OA
ATOM     20  H   UNL     1       3.956   6.980  18.170  0.00  0.00    +0.000 HD
ENDBRANCH   5  19
BRANCH   3  21
ATOM     21  C   UNL     1       1.048   2.947  21.124  0.00  0.00    +0.000 C 
BRANCH  21  22
ATOM     22  O   UNL     1       1.349   2.293  22.359  0.00  0.00    +0.000 OA
ATOM     23  H   UNL     1       1.858   1.496  22.118  0.00  0.00    +0.000 HD
ENDBRANCH  21  22
ENDBRANCH   3  21
TORSDOF 7
ENDMDL
MODEL 6
REMARK VINA RESULT:      -5.7      1.739      2.037
REMARK  Name = 
REMARK  9 active torsions:
REMARK  status: ('A' for Active; 'I' for Inactive)
REMARK    1  A    between atoms: C_1  and  O_2
REMARK    2  A    between atoms: O_2  and  C_3
REMARK    3  A    between atoms: C_5  and  C_6
REMARK    4  A    between atoms: C_6  and  O_7
REMARK    5  A    between atoms: C_8  and  O_9
REMARK    6  A    between atoms: C_10  and  O_11
REMARK    7  A    between atoms: C_12  and  N_13
REMARK    8  A    between atoms: N_16  and  C_17
REMARK    9  A    between atoms: N_16  and  N_18
REMARK                            x       y       z     vdW  Elec       q    Type
REMARK                         _______ _______ _______ _____ _____    ______ ____
ROOT
ATOM      1  C   UNL     1       3.114   5.873  19.464  0.00  0.00    +0.000 C 
ATOM      2  O   UNL     1       2.032   5.172  20.101  0.00  0.00    +0.000 OA
ATOM      3  C   UNL     1       1.714   3.933  19.446  0.00  0.00    +0.000 C 
ATOM      4  C   UNL     1       2.900   2.968  19.508  0.00  0.00    +0.000 C 
ATOM      5  C   UNL     1       4.175   3.639  18.971  0.00  0.00    +0.000 C 
ATOM      6  C   UNL     1       4.417   5.037  19.569  0.00  0.00    +0.000 C 
ENDROOT
BRANCH   6   7
ATOM      7  N   UNL     1       5.600   5.623  18.906  0.00  0.00    +0.000 N 
ATOM      8  C   UNL     1       5.861   5.426  17.568  0.00  0.00    +0.000 C 
ATOM      9  O   UNL     1       5.172   4.634  16.926  0.00  0.00    +0.000 OA
ATOM     10  N   UNL     1       6.931   6.149  17.036  0.00  0.00    +0.000 N 
ATOM     11  C   UNL     1       7.759   7.136  17.734  0.00  0.00    +0.000 C 
ATOM     12  H   UNL     1       5.872   6.508  19.311  0.00  0.00    +0.000 HD
BRANCH  10  13
ATOM     13  N   UNL     1       7.189   5.930  15.669  0.00  0.00    +0.000 NA
ATOM     14  O   UNL     1       7.756   4.862  15.424  0.00  0.00    +0.000 OA
ENDBRANCH  10  13
ENDBRANCH   6   7
BRANCH   1  16
ATOM     15  C   UNL     1       2.719   7.530  17.823  0.00  0.00    +0.000 C 
ATOM     16  O   UNL     1       2.809   6.134  18.088  0.00  0.00    +0.000 OA
ENDBRANCH   1  16
BRANCH   4  17
ATOM     17  O   UNL     1       2.636   1.772  18.768  0.00  0.00    +0.000 OA
ATOM     18  H   UNL     1       1.826   1.907  18.237  0.00  0.00    +0.000 HD
ENDBRANCH   4  17
BRANCH   5  19
ATOM     19  O   UNL     1       5.340   2.822  19.215  0.00  0.00    +0.000 OA
ATOM     20  H   UNL     1       6.099   3.230  18.758  0.00  0.00    +0.000 HD
ENDBRANCH   5  19
BRANCH   3  21
ATOM     21  C   UNL     1       0.467   3.358  20.129  0.00  0.00    +0.000 C 
BRANCH  21  22
ATOM     22  O   UNL     1       0.850   2.693  21.336  0.00  0.00    +0.000 OA
ATOM     23  H   UNL     1       1.797   2.480  21.230  0.00  0.00    +0.000 HD
ENDBRANCH  21  22
ENDBRANCH   3  21
TORSDOF 7
ENDMDL
MODEL 7
REMARK VINA RESULT:      -5.6      2.454      6.157
REMARK  Name = 
REMARK  9 active torsions:
REMARK  status: ('A' for Active; 'I' for Inactive)
REMARK    1  A    between atoms: C_1  and  O_2
REMARK    2  A    between atoms: O_2  and  C_3
REMARK    3  A    between atoms: C_5  and  C_6
REMARK    4  A    between atoms: C_6  and  O_7
REMARK    5  A    between atoms: C_8  and  O_9
REMARK    6  A    between atoms: C_10  and  O_11
REMARK    7  A    between atoms: C_12  and  N_13
REMARK    8  A    between atoms: N_16  and  C_17
REMARK    9  A    between atoms: N_16  and  N_18
REMARK                            x       y       z     vdW  Elec       q    Type
REMARK                         _______ _______ _______ _____ _____    ______ ____
ROOT
ATOM      1  C   UNL     1       4.293   5.691  16.695  0.00  0.00    +0.000 C 
ATOM      2  O   UNL     1       5.324   5.408  15.733  0.00  0.00    +0.000 OA
ATOM      3  C   UNL     1       6.635   5.372  16.322  0.00  0.00    +0.000 C 
ATOM      4  C   UNL     1       6.735   4.244  17.349  0.00  0.00    +0.000 C 
ATOM      5  C   UNL     1       5.600   4.345  18.381  0.00  0.00    +0.000 C 
ATOM      6  C   UNL     1       4.216   4.541  17.736  0.00  0.00    +0.000 C 
ENDROOT
BRANCH   6   7
ATOM      7  N   UNL     1       3.227   4.732  18.816  0.00  0.00    +0.000 N 
ATOM      8  C   UNL     1       2.573   3.672  19.406  0.00  0.00    +0.000 C 
ATOM      9  O   UNL     1       2.709   2.542  18.940  0.00  0.00    +0.000 OA
ATOM     10  N   UNL     1       1.771   3.980  20.507  0.00  0.00    +0.000 N 
ATOM     11  C   UNL     1       1.604   5.293  21.134  0.00  0.00    +0.000 C 
ATOM     12  H   UNL     1       3.436   5.535  19.395  0.00  0.00    +0.000 HD
BRANCH  10  13
ATOM     13  N   UNL     1       1.104   2.886  21.093  0.00  0.00    +0.000 NA
ATOM     14  O   UNL     1       1.599   2.497  22.153  0.00  0.00    +0.000 OA
ENDBRANCH  10  13
ENDBRANCH   6   7
BRANCH   1  16
ATOM     15  C   UNL     1       3.353   7.697  17.521  0.00  0.00    +0.000 C 
ATOM     16  O   UNL     1       4.545   6.936  17.357  0.00  0.00    +0.000 OA
ENDBRANCH   1  16
BRANCH   4  17
ATOM     17  O   UNL     1       7.999   4.262  18.020  0.00  0.00    +0.000 OA
ATOM     18  H   UNL     1       8.121   5.141  18.431  0.00  0.00    +0.000 HD
ENDBRANCH   4  17
BRANCH   5  19
ATOM     19  O   UNL     1       5.555   3.178  19.229  0.00  0.00    +0.000 OA
ATOM     20  H   UNL     1       6.405   3.113  19.704  0.00  0.00    +0.000 HD
ENDBRANCH   5  19
BRANCH   3  21
ATOM     21  C   UNL     1       7.646   5.204  15.181  0.00  0.00    +0.000 C 
BRANCH  21  22
ATOM     22  O   UNL     1       6.958   5.234  13.927  0.00  0.00    +0.000 OA
ATOM     23  H   UNL     1       6.217   5.858  14.048  0.00  0.00    +0.000 HD
ENDBRANCH  21  22
ENDBRANCH   3  21
TORSDOF 7
ENDMDL
MODEL 8
REMARK VINA RESULT:      -5.6      2.244      3.585
REMARK  Name = 
REMARK  9 active torsions:
REMARK  status: ('A' for Active; 'I' for Inactive)
REMARK    1  A    between atoms: C_1  and  O_2
REMARK    2  A    between atoms: O_2  and  C_3
REMARK    3  A    between atoms: C_5  and  C_6
REMARK    4  A    between atoms: C_6  and  O_7
REMARK    5  A    between atoms: C_8  and  O_9
REMARK    6  A    between atoms: C_10  and  O_11
REMARK    7  A    between atoms: C_12  and  N_13
REMARK    8  A    between atoms: N_16  and  C_17
REMARK    9  A    between atoms: N_16  and  N_18
REMARK                            x       y       z     vdW  Elec       q    Type
REMARK                         _______ _______ _______ _____ _____    ______ ____
ROOT
ATOM      1  C   UNL     1       4.199   2.800  18.853  0.00  0.00    +0.000 C 
ATOM      2  O   UNL     1       2.839   2.335  18.806  0.00  0.00    +0.000 OA
ATOM      3  C   UNL     1       2.001   2.979  19.780  0.00  0.00    +0.000 C 
ATOM      4  C   UNL     1       1.913   4.482  19.510  0.00  0.00    +0.000 C 
ATOM      5  C   UNL     1       3.318   5.098  19.402  0.00  0.00    +0.000 C 
ATOM      6  C   UNL     1       4.254   4.304  18.473  0.00  0.00    +0.000 C 
ENDROOT
BRANCH   6   7
ATOM      7  N   UNL     1       5.594   4.922  18.532  0.00  0.00    +0.000 N 
ATOM      8  C   UNL     1       6.038   5.801  17.568  0.00  0.00    +0.000 C 
ATOM      9  O   UNL     1       5.362   5.982  16.556  0.00  0.00    +0.000 OA
ATOM     10  N   UNL     1       7.265   6.419  17.818  0.00  0.00    +0.000 N 
ATOM     11  C   UNL     1       8.093   6.279  19.018  0.00  0.00    +0.000 C 
ATOM     12  H   UNL     1       5.912   5.068  19.481  0.00  0.00    +0.000 HD
BRANCH  10  13
ATOM     13  N   UNL     1       7.708   7.308  16.818  0.00  0.00    +0.000 NA
ATOM     14  O   UNL     1       7.736   8.491  17.166  0.00  0.00    +0.000 OA
ENDBRANCH  10  13
ENDBRANCH   6   7
BRANCH   1  16
ATOM     15  C   UNL     1       5.040   1.229  20.408  0.00  0.00    +0.000 C 
ATOM     16  O   UNL     1       4.758   2.602  20.157  0.00  0.00    +0.000 OA
ENDBRANCH   1  16
BRANCH   4  17
ATOM     17  O   UNL     1       1.170   5.152  20.532  0.00  0.00    +0.000 OA
ATOM     18  H   UNL     1       0.284   4.741  20.593  0.00  0.00    +0.000 HD
ENDBRANCH   4  17
BRANCH   5  19
ATOM     19  O   UNL     1       3.258   6.465  18.942  0.00  0.00    +0.000 OA
ATOM     20  H   UNL     1       2.319   6.717  18.860  0.00  0.00    +0.000 HD
ENDBRANCH   5  19
BRANCH   3  21
ATOM     21  C   UNL     1       0.626   2.302  19.723  0.00  0.00    +0.000 C 
BRANCH  21  22
ATOM     22  O   UNL     1       0.324   1.951  18.370  0.00  0.00    +0.000 OA
ATOM     23  H   UNL     1       1.146   2.109  17.867  0.00  0.00    +0.000 HD
ENDBRANCH  21  22
ENDBRANCH   3  21
TORSDOF 7
ENDMDL
MODEL 9
REMARK VINA RESULT:      -5.6      2.535      6.414
REMARK  Name = 
REMARK  9 active torsions:
REMARK  status: ('A' for Active; 'I' for Inactive)
REMARK    1  A    between atoms: C_1  and  O_2
REMARK    2  A    between atoms: O_2  and  C_3
REMARK    3  A    between atoms: C_5  and  C_6
REMARK    4  A    between atoms: C_6  and  O_7
REMARK    5  A    between atoms: C_8  and  O_9
REMARK    6  A    between atoms: C_10  and  O_11
REMARK    7  A    between atoms: C_12  and  N_13
REMARK    8  A    between atoms: N_16  and  C_17
REMARK    9  A    between atoms: N_16  and  N_18
REMARK                            x       y       z     vdW  Elec       q    Type
REMARK                         _______ _______ _______ _____ _____    ______ ____
ROOT
ATOM      1  C   UNL     1       4.600   3.515  17.216  0.00  0.00    +0.000 C 
ATOM      2  O   UNL     1       5.669   3.566  16.256  0.00  0.00    +0.000 OA
ATOM      3  C   UNL     1       5.467   4.580  15.257  0.00  0.00    +0.000 C 
ATOM      4  C   UNL     1       5.442   5.970  15.893  0.00  0.00    +0.000 C 
ATOM      5  C   UNL     1       4.420   6.025  17.041  0.00  0.00    +0.000 C 
ATOM      6  C   UNL     1       4.550   4.843  18.019  0.00  0.00    +0.000 C 
ENDROOT
BRANCH   6   7
ATOM      7  N   UNL     1       3.458   4.943  19.008  0.00  0.00    +0.000 N 
ATOM      8  C   UNL     1       3.355   4.076  20.075  0.00  0.00    +0.000 C 
ATOM      9  O   UNL     1       4.110   3.107  20.142  0.00  0.00    +0.000 OA
ATOM     10  N   UNL     1       2.360   4.367  21.011  0.00  0.00    +0.000 N 
ATOM     11  C   UNL     1       1.463   5.525  21.010  0.00  0.00    +0.000 C 
ATOM     12  H   UNL     1       3.146   5.895  19.147  0.00  0.00    +0.000 HD
BRANCH  10  13
ATOM     13  N   UNL     1       2.264   3.466  22.090  0.00  0.00    +0.000 NA
ATOM     14  O   UNL     1       1.396   2.601  21.953  0.00  0.00    +0.000 OA
ENDBRANCH  10  13
ENDBRANCH   6   7
BRANCH   1  16
ATOM     15  C   UNL     1       2.621   2.222  17.169  0.00  0.00    +0.000 C 
ATOM     16  O   UNL     1       3.344   3.289  16.565  0.00  0.00    +0.000 OA
ENDBRANCH   1  16
BRANCH   4  17
ATOM     17  O   UNL     1       5.136   6.979  14.926  0.00  0.00    +0.000 OA
ATOM     18  H   UNL     1       5.602   7.802  15.176  0.00  0.00    +0.000 HD
ENDBRANCH   4  17
BRANCH   5  19
ATOM     19  O   UNL     1       4.532   7.257  17.785  0.00  0.00    +0.000 OA
ATOM     20  H   UNL     1       3.813   7.852  17.498  0.00  0.00    +0.000 HD
ENDBRANCH   5  19
BRANCH   3  21
ATOM     21  C   UNL     1       6.593   4.438  14.225  0.00  0.00    +0.000 C 
BRANCH  21  22
ATOM     22  O   UNL     1       7.631   5.376  14.522  0.00  0.00    +0.000 OA
ATOM     23  H   UNL     1       7.292   6.245  14.236  0.00  0.00    +0.000 HD
ENDBRANCH  21  22
ENDBRANCH   3  21
TORSDOF 7
ENDMDL
