MODEL 1
REMARK VINA RESULT:      -7.6      0.000      0.000
REMARK  Name = 
REMARK  4 active torsions:
REMARK  status: ('A' for Active; 'I' for Inactive)
REMARK    1  A    between atoms: N_1  and  S_2
REMARK    2  A    between atoms: S_2  and  C_5
REMARK    3  A    between atoms: C_7  and  C_8
REMARK    4  A    between atoms: N_10  and  C_11
REMARK                            x       y       z     vdW  Elec       q    Type
REMARK                         _______ _______ _______ _____ _____    ______ ____
ROOT
ATOM      1  C   UNL     1       2.365   7.744  18.597  0.00  0.00    +0.000 C 
ATOM      2  O   UNL     1       2.129   7.632  19.794  0.00  0.00    +0.000 OA
ATOM      3  N   UNL     1       1.852   8.709  17.745  0.00  0.00    +0.000 N 
ATOM      4  H   UNL     1       1.965   8.573  16.748  0.00  0.00    +0.000 HD
ENDROOT
BRANCH   3   5
ATOM      5  C   UNL     1       1.005   9.776  18.142  0.00  0.00    +0.000 A 
ATOM      6  C   UNL     1       1.496  10.991  18.626  0.00  0.00    +0.000 A 
ATOM      7  C   UNL     1       0.627  12.001  19.048  0.00  0.00    +0.000 A 
ATOM      8  C   UNL     1      -0.752  11.815  18.994  0.00  0.00    +0.000 A 
ATOM      9  C   UNL     1      -1.262  10.631  18.446  0.00  0.00    +0.000 A 
ATOM     10  C   UNL     1      -0.384   9.613  18.036  0.00  0.00    +0.000 A 
ATOM     11  O   UNL     1      -2.601  10.355  18.286  0.00  0.00    +0.000 OA
ATOM     12  C   UNL     1      -3.378  11.500  17.919  0.00  0.00    +0.000 C 
ATOM     13  C   UNL     1      -3.814  12.304  19.135  0.00  0.00    +0.000 C 
ATOM     14  C   UNL     1      -2.690  12.465  20.140  0.00  0.00    +0.000 C 
ATOM     15  O   UNL     1      -1.485  12.862  19.489  0.00  0.00    +0.000 OA
ENDBRANCH   3   5
BRANCH   1  18
ATOM     16  C   UNL     1       5.352   5.796  17.227  0.00  0.00    +0.000 A 
ATOM     17  C   UNL     1       4.596   6.869  17.743  0.00  0.00    +0.000 A 
ATOM     18  C   UNL     1       3.232   6.691  17.993  0.00  0.00    +0.000 A 
ATOM     19  C   UNL     1       2.641   5.444  17.738  0.00  0.00    +0.000 A 
ATOM     20  C   UNL     1       3.398   4.383  17.232  0.00  0.00    +0.000 A 
ATOM     21  C   UNL     1       4.756   4.555  16.974  0.00  0.00    +0.000 A 
ATOM     22 CL   UNL     1       5.600   3.170  16.375  0.00  0.00    +0.000 Cl
BRANCH  16  23
ATOM     23  S   UNL     1       7.055   6.053  16.846  0.00  0.00    +0.000 S 
ATOM     24  O   UNL     1       7.234   5.906  15.420  0.00  0.00    +0.000 OA
ATOM     25  O   UNL     1       7.866   5.321  17.788  0.00  0.00    +0.000 OA
BRANCH  23  26
ATOM     26  N   UNL     1       7.277   7.690  17.157  0.00  0.00    +0.000 NA
ATOM     27  H   UNL     1       6.471   8.057  17.663  0.00  0.00    +0.000 HD
ATOM     28  H   UNL     1       7.480   8.198  16.294  0.00  0.00    +0.000 HD
ENDBRANCH  23  26
ENDBRANCH  16  23
ENDBRANCH   1  18
TORSDOF 4
ENDMDL
MODEL 2
REMARK VINA RESULT:      -7.5      1.649      2.145
REMARK  Name = 
REMARK  4 active torsions:
REMARK  status: ('A' for Active; 'I' for Inactive)
REMARK    1  A    between atoms: N_1  and  S_2
REMARK    2  A    between atoms: S_2  and  C_5
REMARK    3  A    between atoms: C_7  and  C_8
REMARK    4  A    between atoms: N_10  and  C_11
REMARK                            x       y       z     vdW  Elec       q    Type
REMARK                         _______ _______ _______ _____ _____    ______ ____
ROOT
ATOM      1  C   UNL     1       2.365   7.122  18.965  0.00  0.00    +0.000 C 
ATOM      2  O   UNL     1       2.012   6.726  20.070  0.00  0.00    +0.000 OA
ATOM      3  N   UNL     1       1.957   8.291  18.343  0.00  0.00    +0.000 N 
ATOM      4  H   UNL     1       2.161   8.404  17.358  0.00  0.00    +0.000 HD
ENDROOT
BRANCH   3   5
ATOM      5  C   UNL     1       1.099   9.263  18.921  0.00  0.00    +0.000 A 
ATOM      6  C   UNL     1       0.219  10.041  18.163  0.00  0.00    +0.000 A 
ATOM      7  C   UNL     1      -0.578  11.018  18.765  0.00  0.00    +0.000 A 
ATOM      8  C   UNL     1      -0.510  11.238  20.138  0.00  0.00    +0.000 A 
ATOM      9  C   UNL     1       0.314  10.421  20.923  0.00  0.00    +0.000 A 
ATOM     10  C   UNL     1       1.124   9.448  20.311  0.00  0.00    +0.000 A 
ATOM     11  O   UNL     1       0.422  10.501  22.292  0.00  0.00    +0.000 OA
ATOM     12  C   UNL     1      -0.815  10.806  22.944  0.00  0.00    +0.000 C 
ATOM     13  C   UNL     1      -1.075  12.304  22.999  0.00  0.00    +0.000 C 
ATOM     14  C   UNL     1      -0.744  12.984  21.684  0.00  0.00    +0.000 C 
ATOM     15  O   UNL     1      -1.303  12.261  20.589  0.00  0.00    +0.000 OA
ENDBRANCH   3   5
BRANCH   1  18
ATOM     16  C   UNL     1       5.397   5.555  17.250  0.00  0.00    +0.000 A 
ATOM     17  C   UNL     1       4.606   6.500  17.936  0.00  0.00    +0.000 A 
ATOM     18  C   UNL     1       3.262   6.215  18.192  0.00  0.00    +0.000 A 
ATOM     19  C   UNL     1       2.725   4.987  17.775  0.00  0.00    +0.000 A 
ATOM     20  C   UNL     1       3.516   4.053  17.100  0.00  0.00    +0.000 A 
ATOM     21  C   UNL     1       4.855   4.332  16.835  0.00  0.00    +0.000 A 
ATOM     22 CL   UNL     1       5.746   3.095  16.020  0.00  0.00    +0.000 Cl
BRANCH  16  23
ATOM     23  S   UNL     1       7.072   5.954  16.867  0.00  0.00    +0.000 S 
ATOM     24  O   UNL     1       7.234   5.923  15.431  0.00  0.00    +0.000 OA
ATOM     25  O   UNL     1       7.947   5.215  17.742  0.00  0.00    +0.000 OA
BRANCH  23  26
ATOM     26  N   UNL     1       7.188   7.577  17.293  0.00  0.00    +0.000 NA
ATOM     27  H   UNL     1       8.160   7.810  17.499  0.00  0.00    +0.000 HD
ATOM     28  H   UNL     1       6.546   7.798  18.056  0.00  0.00    +0.000 HD
ENDBRANCH  23  26
ENDBRANCH  16  23
ENDBRANCH   1  18
TORSDOF 4
ENDMDL
MODEL 3
REMARK VINA RESULT:      -7.5      2.136      2.509
REMARK  Name = 
REMARK  4 active torsions:
REMARK  status: ('A' for Active; 'I' for Inactive)
REMARK    1  A    between atoms: N_1  and  S_2
REMARK    2  A    between atoms: S_2  and  C_5
REMARK    3  A    between atoms: C_7  and  C_8
REMARK    4  A    between atoms: N_10  and  C_11
REMARK                            x       y       z     vdW  Elec       q    Type
REMARK                         _______ _______ _______ _____ _____    ______ ____
ROOT
ATOM      1  C   UNL     1       2.103   8.011  18.896  0.00  0.00    +0.000 C 
ATOM      2  O   UNL     1       1.862   7.968  20.097  0.00  0.00    +0.000 OA
ATOM      3  N   UNL     1       1.541   8.881  17.976  0.00  0.00    +0.000 N 
ATOM      4  H   UNL     1       1.672   8.684  16.992  0.00  0.00    +0.000 HD
ENDROOT
BRANCH   3   5
ATOM      5  C   UNL     1       0.625   9.919  18.292  0.00  0.00    +0.000 A 
ATOM      6  C   UNL     1       1.031  11.156  18.801  0.00  0.00    +0.000 A 
ATOM      7  C   UNL     1       0.094  12.135  19.141  0.00  0.00    +0.000 A 
ATOM      8  C   UNL     1      -1.267  11.897  18.980  0.00  0.00    +0.000 A 
ATOM      9  C   UNL     1      -1.689  10.690  18.407  0.00  0.00    +0.000 A 
ATOM     10  C   UNL     1      -0.743   9.702  18.079  0.00  0.00    +0.000 A 
ATOM     11  O   UNL     1      -2.999  10.363  18.143  0.00  0.00    +0.000 OA
ATOM     12  C   UNL     1      -3.786  11.475  17.704  0.00  0.00    +0.000 C 
ATOM     13  C   UNL     1      -4.348  12.272  18.872  0.00  0.00    +0.000 C 
ATOM     14  C   UNL     1      -3.314  12.482  19.962  0.00  0.00    +0.000 C 
ATOM     15  O   UNL     1      -2.076  12.919  19.404  0.00  0.00    +0.000 OA
ENDBRANCH   3   5
BRANCH   1  18
ATOM     16  C   UNL     1       3.923   4.721  18.220  0.00  0.00    +0.000 A 
ATOM     17  C   UNL     1       3.045   5.649  18.817  0.00  0.00    +0.000 A 
ATOM     18  C   UNL     1       3.039   6.975  18.372  0.00  0.00    +0.000 A 
ATOM     19  C   UNL     1       3.897   7.356  17.329  0.00  0.00    +0.000 A 
ATOM     20  C   UNL     1       4.761   6.429  16.738  0.00  0.00    +0.000 A 
ATOM     21  C   UNL     1       4.777   5.108  17.180  0.00  0.00    +0.000 A 
ATOM     22 CL   UNL     1       5.864   4.042  16.361  0.00  0.00    +0.000 Cl
BRANCH  16  23
ATOM     23  S   UNL     1       3.975   3.070  18.838  0.00  0.00    +0.000 S 
ATOM     24  O   UNL     1       5.179   2.910  19.619  0.00  0.00    +0.000 OA
ATOM     25  O   UNL     1       3.638   2.155  17.774  0.00  0.00    +0.000 OA
BRANCH  23  26
ATOM     26  N   UNL     1       2.714   3.034  19.950  0.00  0.00    +0.000 NA
ATOM     27  H   UNL     1       2.974   2.453  20.747  0.00  0.00    +0.000 HD
ATOM     28  H   UNL     1       1.844   2.743  19.501  0.00  0.00    +0.000 HD
ENDBRANCH  23  26
ENDBRANCH  16  23
ENDBRANCH   1  18
TORSDOF 4
ENDMDL
MODEL 4
REMARK VINA RESULT:      -7.5      3.990      9.024
REMARK  Name = 
REMARK  4 active torsions:
REMARK  status: ('A' for Active; 'I' for Inactive)
REMARK    1  A    between atoms: N_1  and  S_2
REMARK    2  A    between atoms: S_2  and  C_5
REMARK    3  A    between atoms: C_7  and  C_8
REMARK    4  A    between atoms: N_10  and  C_11
REMARK                            x       y       z     vdW  Elec       q    Type
REMARK                         _______ _______ _______ _____ _____    ______ ____
ROOT
ATOM      1  C   UNL     1       1.714   8.681  18.580  0.00  0.00    +0.000 C 
ATOM      2  O   UNL     1       1.753   9.031  17.406  0.00  0.00    +0.000 OA
ATOM      3  N   UNL     1       2.225   7.505  19.105  0.00  0.00    +0.000 N 
ATOM      4  H   UNL     1       1.954   7.245  20.044  0.00  0.00    +0.000 HD
ENDROOT
BRANCH   3   5
ATOM      5  C   UNL     1       2.941   6.529  18.364  0.00  0.00    +0.000 A 
ATOM      6  C   UNL     1       2.654   5.163  18.439  0.00  0.00    +0.000 A 
ATOM      7  C   UNL     1       3.411   4.229  17.727  0.00  0.00    +0.000 A 
ATOM      8  C   UNL     1       4.472   4.643  16.926  0.00  0.00    +0.000 A 
ATOM      9  C   UNL     1       4.730   6.012  16.783  0.00  0.00    +0.000 A 
ATOM     10  C   UNL     1       3.974   6.947  17.513  0.00  0.00    +0.000 A 
ATOM     11  O   UNL     1       5.709   6.546  15.978  0.00  0.00    +0.000 OA
ATOM     12  C   UNL     1       5.888   5.831  14.750  0.00  0.00    +0.000 C 
ATOM     13  C   UNL     1       6.835   4.651  14.912  0.00  0.00    +0.000 C 
ATOM     14  C   UNL     1       6.560   3.875  16.186  0.00  0.00    +0.000 C 
ATOM     15  O   UNL     1       5.164   3.621  16.329  0.00  0.00    +0.000 OA
ENDBRANCH   3   5
BRANCH   1  18
ATOM     16  C   UNL     1      -0.504  11.429  20.037  0.00  0.00    +0.000 A 
ATOM     17  C   UNL     1       0.209  10.669  19.087  0.00  0.00    +0.000 A 
ATOM     18  C   UNL     1       0.978   9.582  19.514  0.00  0.00    +0.000 A 
ATOM     19  C   UNL     1       1.017   9.258  20.879  0.00  0.00    +0.000 A 
ATOM     20  C   UNL     1       0.303  10.013  21.815  0.00  0.00    +0.000 A 
ATOM     21  C   UNL     1      -0.460  11.101  21.398  0.00  0.00    +0.000 A 
ATOM     22 CL   UNL     1      -1.323  11.947  22.635  0.00  0.00    +0.000 Cl
BRANCH  16  23
ATOM     23  S   UNL     1      -1.412  12.842  19.498  0.00  0.00    +0.000 S 
ATOM     24  O   UNL     1      -0.766  14.027  20.013  0.00  0.00    +0.000 OA
ATOM     25  O   UNL     1      -2.821  12.603  19.696  0.00  0.00    +0.000 OA
BRANCH  23  26
ATOM     26  N   UNL     1      -1.134  12.868  17.839  0.00  0.00    +0.000 NA
ATOM     27  H   UNL     1      -1.216  13.825  17.491  0.00  0.00    +0.000 HD
ATOM     28  H   UNL     1      -1.748  12.208  17.359  0.00  0.00    +0.000 HD
ENDBRANCH  23  26
ENDBRANCH  16  23
ENDBRANCH   1  18
TORSDOF 4
ENDMDL
MODEL 5
REMARK VINA RESULT:      -7.5      4.174      8.977
REMARK  Name = 
REMARK  4 active torsions:
REMARK  status: ('A' for Active; 'I' for Inactive)
REMARK    1  A    between atoms: N_1  and  S_2
REMARK    2  A    between atoms: S_2  and  C_5
REMARK    3  A    between atoms: C_7  and  C_8
REMARK    4  A    between atoms: N_10  and  C_11
REMARK                            x       y       z     vdW  Elec       q    Type
REMARK                         _______ _______ _______ _____ _____    ______ ____
ROOT
ATOM      1  C   UNL     1       1.438   9.106  18.560  0.00  0.00    +0.000 C 
ATOM      2  O   UNL     1       1.847   9.390  17.441  0.00  0.00    +0.000 OA
ATOM      3  N   UNL     1       1.814   8.010  19.320  0.00  0.00    +0.000 N 
ATOM      4  H   UNL     1       1.260   7.782  20.135  0.00  0.00    +0.000 HD
ENDROOT
BRANCH   3   5
ATOM      5  C   UNL     1       2.796   7.058  18.941  0.00  0.00    +0.000 A 
ATOM      6  C   UNL     1       3.065   5.910  19.692  0.00  0.00    +0.000 A 
ATOM      7  C   UNL     1       4.070   5.018  19.308  0.00  0.00    +0.000 A 
ATOM      8  C   UNL     1       4.827   5.258  18.165  0.00  0.00    +0.000 A 
ATOM      9  C   UNL     1       4.526   6.365  17.362  0.00  0.00    +0.000 A 
ATOM     10  C   UNL     1       3.523   7.266  17.760  0.00  0.00    +0.000 A 
ATOM     11  O   UNL     1       5.162   6.674  16.182  0.00  0.00    +0.000 OA
ATOM     12  C   UNL     1       5.513   5.524  15.406  0.00  0.00    +0.000 C 
ATOM     13  C   UNL     1       6.851   4.937  15.832  0.00  0.00    +0.000 C 
ATOM     14  C   UNL     1       6.990   4.882  17.342  0.00  0.00    +0.000 C 
ATOM     15  O   UNL     1       5.814   4.335  17.935  0.00  0.00    +0.000 OA
ENDBRANCH   3   5
BRANCH   1  18
ATOM     16  C   UNL     1      -0.715  11.212  20.910  0.00  0.00    +0.000 A 
ATOM     17  C   UNL     1       0.284  10.315  20.478  0.00  0.00    +0.000 A 
ATOM     18  C   UNL     1       0.377   9.993  19.121  0.00  0.00    +0.000 A 
ATOM     19  C   UNL     1      -0.516  10.578  18.209  0.00  0.00    +0.000 A 
ATOM     20  C   UNL     1      -1.500  11.470  18.645  0.00  0.00    +0.000 A 
ATOM     21  C   UNL     1      -1.603  11.792  19.996  0.00  0.00    +0.000 A 
ATOM     22 CL   UNL     1      -2.838  12.926  20.419  0.00  0.00    +0.000 Cl
BRANCH  16  23
ATOM     23  S   UNL     1      -0.872  11.556  22.634  0.00  0.00    +0.000 S 
ATOM     24  O   UNL     1      -2.249  11.353  23.019  0.00  0.00    +0.000 OA
ATOM     25  O   UNL     1      -0.176  12.782  22.937  0.00  0.00    +0.000 OA
BRANCH  23  26
ATOM     26  N   UNL     1      -0.017  10.300  23.356  0.00  0.00    +0.000 NA
ATOM     27  H   UNL     1      -0.483   9.412  23.165  0.00  0.00    +0.000 HD
ATOM     28  H   UNL     1       0.119  10.481  24.351  0.00  0.00    +0.000 HD
ENDBRANCH  23  26
ENDBRANCH  16  23
ENDBRANCH   1  18
TORSDOF 4
ENDMDL
MODEL 6
REMARK VINA RESULT:      -7.5      2.035      2.492
REMARK  Name = 
REMARK  4 active torsions:
REMARK  status: ('A' for Active; 'I' for Inactive)
REMARK    1  A    between atoms: N_1  and  S_2
REMARK    2  A    between atoms: S_2  and  C_5
REMARK    3  A    between atoms: C_7  and  C_8
REMARK    4  A    between atoms: N_10  and  C_11
REMARK                            x       y       z     vdW  Elec       q    Type
REMARK                         _______ _______ _______ _____ _____    ______ ____
ROOT
ATOM      1  C   UNL     1       2.283   8.159  18.182  0.00  0.00    +0.000 C 
ATOM      2  O   UNL     1       2.560   8.991  17.326  0.00  0.00    +0.000 OA
ATOM      3  N   UNL     1       1.572   8.386  19.350  0.00  0.00    +0.000 N 
ATOM      4  H   UNL     1       1.585   7.668  20.063  0.00  0.00    +0.000 HD
ENDROOT
BRANCH   3   5
ATOM      5  C   UNL     1       0.989   9.627  19.718  0.00  0.00    +0.000 A 
ATOM      6  C   UNL     1       0.749  10.652  18.798  0.00  0.00    +0.000 A 
ATOM      7  C   UNL     1       0.213  11.875  19.209  0.00  0.00    +0.000 A 
ATOM      8  C   UNL     1      -0.093  12.098  20.548  0.00  0.00    +0.000 A 
ATOM      9  C   UNL     1       0.074  11.059  21.472  0.00  0.00    +0.000 A 
ATOM     10  C   UNL     1       0.627   9.834  21.056  0.00  0.00    +0.000 A 
ATOM     11  O   UNL     1      -0.246  11.138  22.808  0.00  0.00    +0.000 OA
ATOM     12  C   UNL     1      -1.427  11.904  23.065  0.00  0.00    +0.000 C 
ATOM     13  C   UNL     1      -1.127  13.392  23.174  0.00  0.00    +0.000 C 
ATOM     14  C   UNL     1      -0.164  13.855  22.098  0.00  0.00    +0.000 C 
ATOM     15  O   UNL     1      -0.560  13.358  20.821  0.00  0.00    +0.000 OA
ENDBRANCH   3   5
BRANCH   1  18
ATOM     16  C   UNL     1       4.618   5.205  17.543  0.00  0.00    +0.000 A 
ATOM     17  C   UNL     1       4.172   6.537  17.660  0.00  0.00    +0.000 A 
ATOM     18  C   UNL     1       2.833   6.788  17.974  0.00  0.00    +0.000 A 
ATOM     19  C   UNL     1       1.958   5.710  18.180  0.00  0.00    +0.000 A 
ATOM     20  C   UNL     1       2.410   4.391  18.067  0.00  0.00    +0.000 A 
ATOM     21  C   UNL     1       3.741   4.133  17.749  0.00  0.00    +0.000 A 
ATOM     22 CL   UNL     1       4.196   2.467  17.662  0.00  0.00    +0.000 Cl
BRANCH  16  23
ATOM     23  S   UNL     1       6.292   4.899  17.074  0.00  0.00    +0.000 S 
ATOM     24  O   UNL     1       6.293   4.161  15.832  0.00  0.00    +0.000 OA
ATOM     25  O   UNL     1       7.029   4.440  18.225  0.00  0.00    +0.000 OA
BRANCH  23  26
ATOM     26  N   UNL     1       6.868   6.429  16.684  0.00  0.00    +0.000 NA
ATOM     27  H   UNL     1       7.828   6.359  16.342  0.00  0.00    +0.000 HD
ATOM     28  H   UNL     1       6.764   7.067  17.474  0.00  0.00    +0.000 HD
ENDBRANCH  23  26
ENDBRANCH  16  23
ENDBRANCH   1  18
TORSDOF 4
ENDMDL
MODEL 7
REMARK VINA RESULT:      -7.5      2.138      2.834
REMARK  Name = 
REMARK  4 active torsions:
REMARK  status: ('A' for Active; 'I' for Inactive)
REMARK    1  A    between atoms: N_1  and  S_2
REMARK    2  A    between atoms: S_2  and  C_5
REMARK    3  A    between atoms: C_7  and  C_8
REMARK    4  A    between atoms: N_10  and  C_11
REMARK                            x       y       z     vdW  Elec       q    Type
REMARK                         _______ _______ _______ _____ _____    ______ ____
ROOT
ATOM      1  C   UNL     1       1.916   8.707  18.475  0.00  0.00    +0.000 C 
ATOM      2  O   UNL     1       2.015   9.374  17.452  0.00  0.00    +0.000 OA
ATOM      3  N   UNL     1       1.218   9.057  19.620  0.00  0.00    +0.000 N 
ATOM      4  H   UNL     1       1.379   8.517  20.461  0.00  0.00    +0.000 HD
ENDROOT
BRANCH   3   5
ATOM      5  C   UNL     1       0.441  10.236  19.769  0.00  0.00    +0.000 A 
ATOM      6  C   UNL     1      -0.744  10.455  19.062  0.00  0.00    +0.000 A 
ATOM      7  C   UNL     1      -1.457  11.648  19.206  0.00  0.00    +0.000 A 
ATOM      8  C   UNL     1      -0.997  12.647  20.059  0.00  0.00    +0.000 A 
ATOM      9  C   UNL     1       0.150  12.417  20.828  0.00  0.00    +0.000 A 
ATOM     10  C   UNL     1       0.872  11.220  20.670  0.00  0.00    +0.000 A 
ATOM     11  O   UNL     1       0.669  13.301  21.746  0.00  0.00    +0.000 OA
ATOM     12  C   UNL     1      -0.333  14.020  22.472  0.00  0.00    +0.000 C 
ATOM     13  C   UNL     1      -0.798  15.261  21.723  0.00  0.00    +0.000 C 
ATOM     14  C   UNL     1      -1.010  14.983  20.247  0.00  0.00    +0.000 C 
ATOM     15  O   UNL     1      -1.761  13.786  20.063  0.00  0.00    +0.000 OA
ENDBRANCH   3   5
BRANCH   1  18
ATOM     16  C   UNL     1       4.378   5.890  17.703  0.00  0.00    +0.000 A 
ATOM     17  C   UNL     1       3.652   7.090  17.556  0.00  0.00    +0.000 A 
ATOM     18  C   UNL     1       2.688   7.431  18.510  0.00  0.00    +0.000 A 
ATOM     19  C   UNL     1       2.468   6.580  19.605  0.00  0.00    +0.000 A 
ATOM     20  C   UNL     1       3.196   5.395  19.746  0.00  0.00    +0.000 A 
ATOM     21  C   UNL     1       4.153   5.045  18.797  0.00  0.00    +0.000 A 
ATOM     22 CL   UNL     1       5.012   3.572  19.086  0.00  0.00    +0.000 Cl
BRANCH  16  23
ATOM     23  S   UNL     1       5.539   5.432  16.457  0.00  0.00    +0.000 S 
ATOM     24  O   UNL     1       5.057   4.241  15.795  0.00  0.00    +0.000 OA
ATOM     25  O   UNL     1       6.872   5.506  17.002  0.00  0.00    +0.000 OA
BRANCH  23  26
ATOM     26  N   UNL     1       5.390   6.663  15.321  0.00  0.00    +0.000 NA
ATOM     27  H   UNL     1       4.606   6.465  14.698  0.00  0.00    +0.000 HD
ATOM     28  H   UNL     1       6.273   6.810  14.828  0.00  0.00    +0.000 HD
ENDBRANCH  23  26
ENDBRANCH  16  23
ENDBRANCH   1  18
TORSDOF 4
ENDMDL
MODEL 8
REMARK VINA RESULT:      -7.4      1.395      2.429
REMARK  Name = 
REMARK  4 active torsions:
REMARK  status: ('A' for Active; 'I' for Inactive)
REMARK    1  A    between atoms: N_1  and  S_2
REMARK    2  A    between atoms: S_2  and  C_5
REMARK    3  A    between atoms: C_7  and  C_8
REMARK    4  A    between atoms: N_10  and  C_11
REMARK                            x       y       z     vdW  Elec       q    Type
REMARK                         _______ _______ _______ _____ _____    ______ ____
ROOT
ATOM      1  C   UNL     1       2.463   7.771  18.611  0.00  0.00    +0.000 C 
ATOM      2  O   UNL     1       2.139   7.632  19.785  0.00  0.00    +0.000 OA
ATOM      3  N   UNL     1       2.148   8.844  17.794  0.00  0.00    +0.000 N 
ATOM      4  H   UNL     1       2.301   8.746  16.798  0.00  0.00    +0.000 HD
ENDROOT
BRANCH   3   5
ATOM      5  C   UNL     1       1.440  10.002  18.209  0.00  0.00    +0.000 A 
ATOM      6  C   UNL     1       0.061  10.004  18.438  0.00  0.00    +0.000 A 
ATOM      7  C   UNL     1      -0.605  11.176  18.805  0.00  0.00    +0.000 A 
ATOM      8  C   UNL     1       0.094  12.371  18.947  0.00  0.00    +0.000 A 
ATOM      9  C   UNL     1       1.486  12.374  18.790  0.00  0.00    +0.000 A 
ATOM     10  C   UNL     1       2.150  11.195  18.408  0.00  0.00    +0.000 A 
ATOM     11  O   UNL     1       2.292  13.476  18.962  0.00  0.00    +0.000 OA
ATOM     12  C   UNL     1       1.867  14.332  20.027  0.00  0.00    +0.000 C 
ATOM     13  C   UNL     1       0.811  15.327  19.570  0.00  0.00    +0.000 C 
ATOM     14  C   UNL     1      -0.233  14.677  18.682  0.00  0.00    +0.000 C 
ATOM     15  O   UNL     1      -0.689  13.454  19.255  0.00  0.00    +0.000 OA
ENDBRANCH   3   5
BRANCH   1  18
ATOM     16  C   UNL     1       5.178   5.576  17.063  0.00  0.00    +0.000 A 
ATOM     17  C   UNL     1       4.539   6.720  17.583  0.00  0.00    +0.000 A 
ATOM     18  C   UNL     1       3.204   6.635  17.990  0.00  0.00    +0.000 A 
ATOM     19  C   UNL     1       2.527   5.409  17.888  0.00  0.00    +0.000 A 
ATOM     20  C   UNL     1       3.170   4.278  17.376  0.00  0.00    +0.000 A 
ATOM     21  C   UNL     1       4.498   4.356  16.962  0.00  0.00    +0.000 A 
ATOM     22 CL   UNL     1       5.201   2.891  16.372  0.00  0.00    +0.000 Cl
BRANCH  16  23
ATOM     23  S   UNL     1       6.839   5.711  16.483  0.00  0.00    +0.000 S 
ATOM     24  O   UNL     1       6.824   5.694  15.038  0.00  0.00    +0.000 OA
ATOM     25  O   UNL     1       7.679   4.816  17.240  0.00  0.00    +0.000 OA
BRANCH  23  26
ATOM     26  N   UNL     1       7.268   7.282  16.906  0.00  0.00    +0.000 NA
ATOM     27  H   UNL     1       7.059   7.915  16.133  0.00  0.00    +0.000 HD
ATOM     28  H   UNL     1       8.241   7.321  17.211  0.00  0.00    +0.000 HD
ENDBRANCH  23  26
ENDBRANCH  16  23
ENDBRANCH   1  18
TORSDOF 4
ENDMDL
MODEL 9
REMARK VINA RESULT:      -7.4      2.832      3.604
REMARK  Name = 
REMARK  4 active torsions:
REMARK  status: ('A' for Active; 'I' for Inactive)
REMARK    1  A    between atoms: N_1  and  S_2
REMARK    2  A    between atoms: S_2  and  C_5
REMARK    3  A    between atoms: C_7  and  C_8
REMARK    4  A    between atoms: N_10  and  C_11
REMARK                            x       y       z     vdW  Elec       q    Type
REMARK                         _______ _______ _______ _____ _____    ______ ____
ROOT
ATOM      1  C   UNL     1       2.198   8.595  18.167  0.00  0.00    +0.000 C 
ATOM      2  O   UNL     1       2.509   9.565  17.486  0.00  0.00    +0.000 OA
ATOM      3  N   UNL     1       1.284   8.581  19.209  0.00  0.00    +0.000 N 
ATOM      4  H   UNL     1       1.266   7.772  19.817  0.00  0.00    +0.000 HD
ENDROOT
BRANCH   3   5
ATOM      5  C   UNL     1       0.504   9.693  19.620  0.00  0.00    +0.000 A 
ATOM      6  C   UNL     1      -0.221  10.482  18.722  0.00  0.00    +0.000 A 
ATOM      7  C   UNL     1      -0.942  11.595  19.162  0.00  0.00    +0.000 A 
ATOM      8  C   UNL     1      -0.951  11.943  20.510  0.00  0.00    +0.000 A 
ATOM      9  C   UNL     1      -0.288  11.125  21.434  0.00  0.00    +0.000 A 
ATOM     10  C   UNL     1       0.447  10.014  20.984  0.00  0.00    +0.000 A 
ATOM     11  O   UNL     1      -0.273  11.330  22.794  0.00  0.00    +0.000 OA
ATOM     12  C   UNL     1      -1.512  11.831  23.307  0.00  0.00    +0.000 C 
ATOM     13  C   UNL     1      -1.600  13.347  23.202  0.00  0.00    +0.000 C 
ATOM     14  C   UNL     1      -1.096  13.851  21.863  0.00  0.00    +0.000 C 
ATOM     15  O   UNL     1      -1.652  13.086  20.796  0.00  0.00    +0.000 OA
ENDBRANCH   3   5
BRANCH   1  18
ATOM     16  C   UNL     1       3.187   4.916  17.886  0.00  0.00    +0.000 A 
ATOM     17  C   UNL     1       2.452   6.065  18.245  0.00  0.00    +0.000 A 
ATOM     18  C   UNL     1       2.935   7.328  17.889  0.00  0.00    +0.000 A 
ATOM     19  C   UNL     1       4.136   7.431  17.170  0.00  0.00    +0.000 A 
ATOM     20  C   UNL     1       4.856   6.287  16.813  0.00  0.00    +0.000 A 
ATOM     21  C   UNL     1       4.385   5.025  17.169  0.00  0.00    +0.000 A 
ATOM     22 CL   UNL     1       5.341   3.680  16.653  0.00  0.00    +0.000 Cl
BRANCH  16  23
ATOM     23  S   UNL     1       2.608   3.332  18.403  0.00  0.00    +0.000 S 
ATOM     24  O   UNL     1       3.546   2.790  19.359  0.00  0.00    +0.000 OA
ATOM     25  O   UNL     1       2.190   2.580  17.245  0.00  0.00    +0.000 OA
BRANCH  23  26
ATOM     26  N   UNL     1       1.227   3.697  19.290  0.00  0.00    +0.000 NA
ATOM     27  H   UNL     1       1.476   4.285  20.088  0.00  0.00    +0.000 HD
ATOM     28  H   UNL     1       0.730   2.845  19.553  0.00  0.00    +0.000 HD
ENDBRANCH  23  26
ENDBRANCH  16  23
ENDBRANCH   1  18
TORSDOF 4
ENDMDL
