MODEL 1
REMARK VINA RESULT:      -7.7      0.000      0.000
REMARK  Name = 
REMARK  5 active torsions:
REMARK  status: ('A' for Active; 'I' for Inactive)
REMARK    1  A    between atoms: C_1  and  C_2
REMARK    2  A    between atoms: C_2  and  C_3
REMARK    3  A    between atoms: C_3  and  C_4
REMARK    4  A    between atoms: C_6  and  O_7
REMARK    5  A    between atoms: C_18  and  C_19
REMARK                            x       y       z     vdW  Elec       q    Type
REMARK                         _______ _______ _______ _____ _____    ______ ____
ROOT
ATOM      1  C   UNL     1       6.129   6.259  16.648  0.00  0.00    +0.000 C 
ATOM      2  O   UNL     1       6.625   5.151  17.438  0.00  0.00    +0.000 OA
ATOM      3  C   UNL     1       5.717   4.978  18.470  0.00  0.00    +0.000 C 
ATOM      4  C   UNL     1       4.676   5.800  18.534  0.00  0.00    +0.000 C 
ATOM      5  C   UNL     1       4.877   6.655  17.379  0.00  0.00    +0.000 C 
ATOM      6  N   UNL     1       4.115   7.642  17.031  0.00  0.00    +0.000 NA
ATOM      7  C   UNL     1       3.074   7.968  17.884  0.00  0.00    +0.000 C 
ATOM      8  C   UNL     1       2.774   7.259  18.996  0.00  0.00    +0.000 C 
ATOM      9  C   UNL     1       1.777   7.836  19.937  0.00  0.00    +0.000 C 
ATOM     10  O   UNL     1       1.518   7.276  21.001  0.00  0.00    +0.000 OA
ATOM     11  C   UNL     1       1.207   9.197  19.579  0.00  0.00    +0.000 C 
ATOM     12  O   UNL     1       1.065   9.343  18.176  0.00  0.00    +0.000 OA
ATOM     13  C   UNL     1       2.317   9.226  17.501  0.00  0.00    +0.000 C 
ATOM     14  C   UNL     1       3.492   5.994  19.400  0.00  0.00    +0.000 C 
ENDROOT
BRANCH  14  15
ATOM     15  C   UNL     1       2.576   4.772  19.371  0.00  0.00    +0.000 A 
ATOM     16  C   UNL     1       2.024   4.294  18.169  0.00  0.00    +0.000 A 
ATOM     17  C   UNL     1       1.206   3.164  18.166  0.00  0.00    +0.000 A 
ATOM     18  C   UNL     1       0.935   2.504  19.360  0.00  0.00    +0.000 A 
ATOM     19  F   UNL     1       0.148   1.418  19.329  0.00  0.00    +0.000 F 
ATOM     20  C   UNL     1       1.471   2.961  20.561  0.00  0.00    +0.000 A 
ATOM     21 CL   UNL     1       1.139   2.144  22.040  0.00  0.00    +0.000 Cl
ATOM     22  C   UNL     1       2.290   4.091  20.569  0.00  0.00    +0.000 A 
ENDBRANCH  14  15
BRANCH   3  23
ATOM     23  O   UNL     1       5.919   3.969  19.363  0.00  0.00    +0.000 OA
ATOM     24  H   UNL     1       6.616   3.418  18.965  0.00  0.00    +0.000 HD
ENDBRANCH   3  23
BRANCH   1  25
ATOM     25  C   UNL     1       7.114   7.426  16.653  0.00  0.00    +0.000 C 
BRANCH  25  27
ATOM     26  C   UNL     1       8.321   9.028  18.150  0.00  0.00    +0.000 C 
ATOM     27  C   UNL     1       7.867   7.586  17.971  0.00  0.00    +0.000 C 
ENDBRANCH  25  27
ENDBRANCH   1  25
TORSDOF 4
ENDMDL
MODEL 2
REMARK VINA RESULT:      -7.6      3.218      5.067
REMARK  Name = 
REMARK  5 active torsions:
REMARK  status: ('A' for Active; 'I' for Inactive)
REMARK    1  A    between atoms: C_1  and  C_2
REMARK    2  A    between atoms: C_2  and  C_3
REMARK    3  A    between atoms: C_3  and  C_4
REMARK    4  A    between atoms: C_6  and  O_7
REMARK    5  A    between atoms: C_18  and  C_19
REMARK                            x       y       z     vdW  Elec       q    Type
REMARK                         _______ _______ _______ _____ _____    ______ ____
ROOT
ATOM      1  C   UNL     1       6.824   5.721  17.357  0.00  0.00    +0.000 C 
ATOM      2  O   UNL     1       6.307   6.778  16.514  0.00  0.00    +0.000 OA
ATOM      3  C   UNL     1       4.933   6.777  16.697  0.00  0.00    +0.000 C 
ATOM      4  C   UNL     1       4.411   5.876  17.520  0.00  0.00    +0.000 C 
ATOM      5  C   UNL     1       5.582   5.160  17.989  0.00  0.00    +0.000 C 
ATOM      6  N   UNL     1       5.574   4.158  18.808  0.00  0.00    +0.000 NA
ATOM      7  C   UNL     1       4.338   3.669  19.198  0.00  0.00    +0.000 C 
ATOM      8  C   UNL     1       3.165   4.237  18.834  0.00  0.00    +0.000 C 
ATOM      9  C   UNL     1       1.913   3.495  19.136  0.00  0.00    +0.000 C 
ATOM     10  O   UNL     1       0.822   3.923  18.764  0.00  0.00    +0.000 OA
ATOM     11  C   UNL     1       2.066   2.137  19.798  0.00  0.00    +0.000 C 
ATOM     12  O   UNL     1       3.164   2.123  20.696  0.00  0.00    +0.000 OA
ATOM     13  C   UNL     1       4.396   2.402  20.031  0.00  0.00    +0.000 C 
ATOM     14  C   UNL     1       3.068   5.506  18.022  0.00  0.00    +0.000 C 
ENDROOT
BRANCH  14  15
ATOM     15  C   UNL     1       2.435   6.652  18.808  0.00  0.00    +0.000 A 
ATOM     16  C   UNL     1       2.215   6.562  20.195  0.00  0.00    +0.000 A 
ATOM     17  C   UNL     1       1.652   7.630  20.894  0.00  0.00    +0.000 A 
ATOM     18  C   UNL     1       1.305   8.793  20.215  0.00  0.00    +0.000 A 
ATOM     19  F   UNL     1       0.769   9.807  20.911  0.00  0.00    +0.000 F 
ATOM     20  C   UNL     1       1.513   8.903  18.843  0.00  0.00    +0.000 A 
ATOM     21 CL   UNL     1       1.087  10.344  18.001  0.00  0.00    +0.000 Cl
ATOM     22  C   UNL     1       2.076   7.837  18.139  0.00  0.00    +0.000 A 
ENDBRANCH  14  15
BRANCH   3  23
ATOM     23  O   UNL     1       4.180   7.704  16.040  0.00  0.00    +0.000 OA
ATOM     24  H   UNL     1       4.708   7.946  15.258  0.00  0.00    +0.000 HD
ENDBRANCH   3  23
BRANCH   1  25
ATOM     25  C   UNL     1       7.510   4.638  16.528  0.00  0.00    +0.000 C 
BRANCH  25  27
ATOM     26  C   UNL     1       6.095   3.846  14.620  0.00  0.00    +0.000 C 
ATOM     27  C   UNL     1       7.246   4.756  15.029  0.00  0.00    +0.000 C 
ENDBRANCH  25  27
ENDBRANCH   1  25
TORSDOF 4
ENDMDL
MODEL 3
REMARK VINA RESULT:      -7.2      2.952      4.783
REMARK  Name = 
REMARK  5 active torsions:
REMARK  status: ('A' for Active; 'I' for Inactive)
REMARK    1  A    between atoms: C_1  and  C_2
REMARK    2  A    between atoms: C_2  and  C_3
REMARK    3  A    between atoms: C_3  and  C_4
REMARK    4  A    between atoms: C_6  and  O_7
REMARK    5  A    between atoms: C_18  and  C_19
REMARK                            x       y       z     vdW  Elec       q    Type
REMARK                         _______ _______ _______ _____ _____    ______ ____
ROOT
ATOM      1  C   UNL     1       6.891   5.779  17.685  0.00  0.00    +0.000 C 
ATOM      2  O   UNL     1       6.512   6.725  16.656  0.00  0.00    +0.000 OA
ATOM      3  C   UNL     1       5.127   6.776  16.671  0.00  0.00    +0.000 C 
ATOM      4  C   UNL     1       4.481   6.002  17.536  0.00  0.00    +0.000 C 
ATOM      5  C   UNL     1       5.565   5.331  18.230  0.00  0.00    +0.000 C 
ATOM      6  N   UNL     1       5.426   4.447  19.165  0.00  0.00    +0.000 NA
ATOM      7  C   UNL     1       4.137   4.039  19.463  0.00  0.00    +0.000 C 
ATOM      8  C   UNL     1       3.036   4.576  18.892  0.00  0.00    +0.000 C 
ATOM      9  C   UNL     1       1.731   3.905  19.135  0.00  0.00    +0.000 C 
ATOM     10  O   UNL     1       0.707   4.301  18.583  0.00  0.00    +0.000 OA
ATOM     11  C   UNL     1       1.758   2.644  19.981  0.00  0.00    +0.000 C 
ATOM     12  O   UNL     1       2.744   2.727  20.998  0.00  0.00    +0.000 OA
ATOM     13  C   UNL     1       4.053   2.892  20.455  0.00  0.00    +0.000 C 
ATOM     14  C   UNL     1       3.078   5.728  17.917  0.00  0.00    +0.000 C 
ENDROOT
BRANCH  14  15
ATOM     15  C   UNL     1       2.398   6.980  18.467  0.00  0.00    +0.000 A 
ATOM     16  C   UNL     1       1.913   7.990  17.615  0.00  0.00    +0.000 A 
ATOM     17  C   UNL     1       1.278   9.115  18.141  0.00  0.00    +0.000 A 
ATOM     18  C   UNL     1       1.123   9.240  19.518  0.00  0.00    +0.000 A 
ATOM     19  F   UNL     1       0.506  10.331  19.998  0.00  0.00    +0.000 F 
ATOM     20  C   UNL     1       1.597   8.254  20.378  0.00  0.00    +0.000 A 
ATOM     21 CL   UNL     1       1.402   8.406  22.082  0.00  0.00    +0.000 Cl
ATOM     22  C   UNL     1       2.232   7.126  19.857  0.00  0.00    +0.000 A 
ENDBRANCH  14  15
BRANCH   3  23
ATOM     23  O   UNL     1       4.489   7.621  15.815  0.00  0.00    +0.000 OA
ATOM     24  H   UNL     1       5.055   7.649  15.023  0.00  0.00    +0.000 HD
ENDBRANCH   3  23
BRANCH   1  25
ATOM     25  C   UNL     1       7.630   4.582  17.090  0.00  0.00    +0.000 C 
BRANCH  25  27
ATOM     26  C   UNL     1       6.157   3.572  15.336  0.00  0.00    +0.000 C 
ATOM     27  C   UNL     1       7.404   4.408  15.590  0.00  0.00    +0.000 C 
ENDBRANCH  25  27
ENDBRANCH   1  25
TORSDOF 4
ENDMDL
MODEL 4
REMARK VINA RESULT:      -6.9      4.203      6.559
REMARK  Name = 
REMARK  5 active torsions:
REMARK  status: ('A' for Active; 'I' for Inactive)
REMARK    1  A    between atoms: C_1  and  C_2
REMARK    2  A    between atoms: C_2  and  C_3
REMARK    3  A    between atoms: C_3  and  C_4
REMARK    4  A    between atoms: C_6  and  O_7
REMARK    5  A    between atoms: C_18  and  C_19
REMARK                            x       y       z     vdW  Elec       q    Type
REMARK                         _______ _______ _______ _____ _____    ______ ____
ROOT
ATOM      1  C   UNL     1       3.875   2.409  19.180  0.00  0.00    +0.000 C 
ATOM      2  O   UNL     1       2.866   2.294  18.149  0.00  0.00    +0.000 OA
ATOM      3  C   UNL     1       3.185   3.244  17.191  0.00  0.00    +0.000 C 
ATOM      4  C   UNL     1       4.246   4.013  17.401  0.00  0.00    +0.000 C 
ATOM      5  C   UNL     1       4.746   3.523  18.672  0.00  0.00    +0.000 C 
ATOM      6  N   UNL     1       5.774   3.988  19.306  0.00  0.00    +0.000 NA
ATOM      7  C   UNL     1       6.393   5.106  18.774  0.00  0.00    +0.000 C 
ATOM      8  C   UNL     1       6.030   5.669  17.599  0.00  0.00    +0.000 C 
ATOM      9  C   UNL     1       6.626   6.986  17.248  0.00  0.00    +0.000 C 
ATOM     10  O   UNL     1       6.278   7.583  16.231  0.00  0.00    +0.000 OA
ATOM     11  C   UNL     1       7.569   7.603  18.266  0.00  0.00    +0.000 C 
ATOM     12  O   UNL     1       8.326   6.608  18.936  0.00  0.00    +0.000 OA
ATOM     13  C   UNL     1       7.490   5.693  19.644  0.00  0.00    +0.000 C 
ATOM     14  C   UNL     1       4.958   5.105  16.699  0.00  0.00    +0.000 C 
ENDROOT
BRANCH  14  15
ATOM     15  C   UNL     1       5.514   4.633  15.357  0.00  0.00    +0.000 A 
ATOM     16  C   UNL     1       6.898   4.507  15.137  0.00  0.00    +0.000 A 
ATOM     17  C   UNL     1       7.381   4.056  13.908  0.00  0.00    +0.000 A 
ATOM     18  C   UNL     1       6.487   3.726  12.894  0.00  0.00    +0.000 A 
ATOM     19  F   UNL     1       6.978   3.290  11.723  0.00  0.00    +0.000 F 
ATOM     20  C   UNL     1       5.115   3.844  13.091  0.00  0.00    +0.000 A 
ATOM     21 CL   UNL     1       4.008   3.433  11.838  0.00  0.00    +0.000 Cl
ATOM     22  C   UNL     1       4.627   4.295  14.319  0.00  0.00    +0.000 A 
ENDBRANCH  14  15
BRANCH   3  23
ATOM     23  O   UNL     1       2.411   3.340  16.074  0.00  0.00    +0.000 OA
ATOM     24  H   UNL     1       2.741   2.643  15.480  0.00  0.00    +0.000 HD
ENDBRANCH   3  23
BRANCH   1  25
ATOM     25  C   UNL     1       3.257   2.814  20.516  0.00  0.00    +0.000 C 
BRANCH  25  27
ATOM     26  C   UNL     1       1.120   4.118  20.500  0.00  0.00    +0.000 C 
ATOM     27  C   UNL     1       1.733   2.724  20.537  0.00  0.00    +0.000 C 
ENDBRANCH  25  27
ENDBRANCH   1  25
TORSDOF 4
ENDMDL
MODEL 5
REMARK VINA RESULT:      -6.7      5.730      9.152
REMARK  Name = 
REMARK  5 active torsions:
REMARK  status: ('A' for Active; 'I' for Inactive)
REMARK    1  A    between atoms: C_1  and  C_2
REMARK    2  A    between atoms: C_2  and  C_3
REMARK    3  A    between atoms: C_3  and  C_4
REMARK    4  A    between atoms: C_6  and  O_7
REMARK    5  A    between atoms: C_18  and  C_19
REMARK                            x       y       z     vdW  Elec       q    Type
REMARK                         _______ _______ _______ _____ _____    ______ ____
ROOT
ATOM      1  C   UNL     1      -4.674  11.204  18.141  0.00  0.00    +0.000 C 
ATOM      2  O   UNL     1      -4.056  10.445  17.074  0.00  0.00    +0.000 OA
ATOM      3  C   UNL     1      -2.688  10.611  17.227  0.00  0.00    +0.000 C 
ATOM      4  C   UNL     1      -2.257  11.379  18.220  0.00  0.00    +0.000 C 
ATOM      5  C   UNL     1      -3.493  11.794  18.858  0.00  0.00    +0.000 C 
ATOM      6  N   UNL     1      -3.584  12.583  19.881  0.00  0.00    +0.000 NA
ATOM      7  C   UNL     1      -2.412  13.154  20.346  0.00  0.00    +0.000 C 
ATOM      8  C   UNL     1      -1.191  12.861  19.843  0.00  0.00    +0.000 C 
ATOM      9  C   UNL     1      -0.042  13.698  20.279  0.00  0.00    +0.000 C 
ATOM     10  O   UNL     1       1.077  13.529  19.801  0.00  0.00    +0.000 OA
ATOM     11  C   UNL     1      -0.352  14.841  21.230  0.00  0.00    +0.000 C 
ATOM     12  O   UNL     1      -1.394  14.495  22.129  0.00  0.00    +0.000 OA
ATOM     13  C   UNL     1      -2.606  14.186  21.441  0.00  0.00    +0.000 C 
ATOM     14  C   UNL     1      -0.957  11.827  18.767  0.00  0.00    +0.000 C 
ENDROOT
BRANCH  14  15
ATOM     15  C   UNL     1      -0.128  10.646  19.266  0.00  0.00    +0.000 A 
ATOM     16  C   UNL     1      -0.307  10.113  20.556  0.00  0.00    +0.000 A 
ATOM     17  C   UNL     1       0.450   9.021  20.982  0.00  0.00    +0.000 A 
ATOM     18  C   UNL     1       1.388   8.455  20.124  0.00  0.00    +0.000 A 
ATOM     19  F   UNL     1       2.100   7.403  20.557  0.00  0.00    +0.000 F 
ATOM     20  C   UNL     1       1.582   8.968  18.845  0.00  0.00    +0.000 A 
ATOM     21 CL   UNL     1       2.740   8.265  17.782  0.00  0.00    +0.000 Cl
ATOM     22  C   UNL     1       0.827  10.060  18.415  0.00  0.00    +0.000 A 
ENDBRANCH  14  15
BRANCH   3  23
ATOM     23  O   UNL     1      -1.846   9.973  16.366  0.00  0.00    +0.000 OA
ATOM     24  H   UNL     1      -2.343   9.192  16.063  0.00  0.00    +0.000 HD
ENDBRANCH   3  23
BRANCH   1  25
ATOM     25  C   UNL     1      -5.547  12.327  17.587  0.00  0.00    +0.000 C 
BRANCH  25  27
ATOM     26  C   UNL     1      -7.143  11.300  19.219  0.00  0.00    +0.000 C 
ATOM     27  C   UNL     1      -7.005  12.245  18.033  0.00  0.00    +0.000 C 
ENDBRANCH  25  27
ENDBRANCH   1  25
TORSDOF 4
ENDMDL
MODEL 6
REMARK VINA RESULT:      -6.5      5.218      8.063
REMARK  Name = 
REMARK  5 active torsions:
REMARK  status: ('A' for Active; 'I' for Inactive)
REMARK    1  A    between atoms: C_1  and  C_2
REMARK    2  A    between atoms: C_2  and  C_3
REMARK    3  A    between atoms: C_3  and  C_4
REMARK    4  A    between atoms: C_6  and  O_7
REMARK    5  A    between atoms: C_18  and  C_19
REMARK                            x       y       z     vdW  Elec       q    Type
REMARK                         _______ _______ _______ _____ _____    ______ ____
ROOT
ATOM      1  C   UNL     1       1.911   7.732  20.347  0.00  0.00    +0.000 C 
ATOM      2  O   UNL     1       2.288   7.950  18.966  0.00  0.00    +0.000 OA
ATOM      3  C   UNL     1       1.751   9.176  18.610  0.00  0.00    +0.000 C 
ATOM      4  C   UNL     1       1.044   9.839  19.518  0.00  0.00    +0.000 C 
ATOM      5  C   UNL     1       1.112   8.962  20.672  0.00  0.00    +0.000 C 
ATOM      6  N   UNL     1       0.544   9.177  21.815  0.00  0.00    +0.000 NA
ATOM      7  C   UNL     1      -0.273  10.291  21.916  0.00  0.00    +0.000 C 
ATOM      8  C   UNL     1      -0.430  11.191  20.918  0.00  0.00    +0.000 C 
ATOM      9  C   UNL     1      -1.496  12.217  21.072  0.00  0.00    +0.000 C 
ATOM     10  O   UNL     1      -1.736  13.014  20.168  0.00  0.00    +0.000 OA
ATOM     11  C   UNL     1      -2.343  12.139  22.329  0.00  0.00    +0.000 C 
ATOM     12  O   UNL     1      -1.578  11.701  23.440  0.00  0.00    +0.000 OA
ATOM     13  C   UNL     1      -1.029  10.401  23.227  0.00  0.00    +0.000 C 
ATOM     14  C   UNL     1       0.318  11.125  19.609  0.00  0.00    +0.000 C 
ENDROOT
BRANCH  14  15
ATOM     15  C   UNL     1       1.262  12.310  19.419  0.00  0.00    +0.000 A 
ATOM     16  C   UNL     1       1.361  12.984  18.187  0.00  0.00    +0.000 A 
ATOM     17  C   UNL     1       2.217  14.076  18.044  0.00  0.00    +0.000 A 
ATOM     18  C   UNL     1       2.979  14.503  19.127  0.00  0.00    +0.000 A 
ATOM     19  F   UNL     1       3.792  15.558  18.964  0.00  0.00    +0.000 F 
ATOM     20  C   UNL     1       2.897  13.850  20.354  0.00  0.00    +0.000 A 
ATOM     21 CL   UNL     1       3.837  14.379  21.696  0.00  0.00    +0.000 Cl
ATOM     22  C   UNL     1       2.042  12.757  20.502  0.00  0.00    +0.000 A 
ENDBRANCH  14  15
BRANCH   3  23
ATOM     23  O   UNL     1       1.978   9.656  17.355  0.00  0.00    +0.000 OA
ATOM     24  H   UNL     1       1.234   9.324  16.821  0.00  0.00    +0.000 HD
ENDBRANCH   3  23
BRANCH   1  25
ATOM     25  C   UNL     1       1.027   6.495  20.490  0.00  0.00    +0.000 C 
BRANCH  25  27
ATOM     26  C   UNL     1       0.977   4.005  20.241  0.00  0.00    +0.000 C 
ATOM     27  C   UNL     1       1.813   5.200  20.678  0.00  0.00    +0.000 C 
ENDBRANCH  25  27
ENDBRANCH   1  25
TORSDOF 4
ENDMDL
MODEL 7
REMARK VINA RESULT:      -6.4      5.858      9.278
REMARK  Name = 
REMARK  5 active torsions:
REMARK  status: ('A' for Active; 'I' for Inactive)
REMARK    1  A    between atoms: C_1  and  C_2
REMARK    2  A    between atoms: C_2  and  C_3
REMARK    3  A    between atoms: C_3  and  C_4
REMARK    4  A    between atoms: C_6  and  O_7
REMARK    5  A    between atoms: C_18  and  C_19
REMARK                            x       y       z     vdW  Elec       q    Type
REMARK                         _______ _______ _______ _____ _____    ______ ____
ROOT
ATOM      1  C   UNL     1      -4.854  11.250  18.004  0.00  0.00    +0.000 C 
ATOM      2  O   UNL     1      -4.212  10.573  16.897  0.00  0.00    +0.000 OA
ATOM      3  C   UNL     1      -2.852  10.797  17.047  0.00  0.00    +0.000 C 
ATOM      4  C   UNL     1      -2.447  11.536  18.072  0.00  0.00    +0.000 C 
ATOM      5  C   UNL     1      -3.694  11.860  18.740  0.00  0.00    +0.000 C 
ATOM      6  N   UNL     1      -3.812  12.595  19.799  0.00  0.00    +0.000 NA
ATOM      7  C   UNL     1      -2.663  13.198  20.282  0.00  0.00    +0.000 C 
ATOM      8  C   UNL     1      -1.435  12.987  19.755  0.00  0.00    +0.000 C 
ATOM      9  C   UNL     1      -0.322  13.857  20.222  0.00  0.00    +0.000 C 
ATOM     10  O   UNL     1       0.798  13.764  19.727  0.00  0.00    +0.000 OA
ATOM     11  C   UNL     1      -0.676  14.937  21.230  0.00  0.00    +0.000 C 
ATOM     12  O   UNL     1      -1.691  14.500  22.119  0.00  0.00    +0.000 OA
ATOM     13  C   UNL     1      -2.894  14.167  21.427  0.00  0.00    +0.000 C 
ATOM     14  C   UNL     1      -1.164  12.019  18.629  0.00  0.00    +0.000 C 
ENDROOT
BRANCH  14  15
ATOM     15  C   UNL     1      -0.275  10.856  19.064  0.00  0.00    +0.000 A 
ATOM     16  C   UNL     1       0.707  10.320  18.211  0.00  0.00    +0.000 A 
ATOM     17  C   UNL     1       1.520   9.270  18.639  0.00  0.00    +0.000 A 
ATOM     18  C   UNL     1       1.358   8.748  19.919  0.00  0.00    +0.000 A 
ATOM     19  F   UNL     1       2.155   7.741  20.307  0.00  0.00    +0.000 F 
ATOM     20  C   UNL     1       0.391   9.263  20.778  0.00  0.00    +0.000 A 
ATOM     21 CL   UNL     1       0.192   8.621  22.363  0.00  0.00    +0.000 Cl
ATOM     22  C   UNL     1      -0.423  10.314  20.355  0.00  0.00    +0.000 A 
ENDBRANCH  14  15
BRANCH   3  23
ATOM     23  O   UNL     1      -1.990  10.241  16.149  0.00  0.00    +0.000 OA
ATOM     24  H   UNL     1      -1.577  10.999  15.697  0.00  0.00    +0.000 HD
ENDBRANCH   3  23
BRANCH   1  25
ATOM     25  C   UNL     1      -5.785  12.355  17.512  0.00  0.00    +0.000 C 
BRANCH  25  27
ATOM     26  C   UNL     1      -7.229  11.339  19.285  0.00  0.00    +0.000 C 
ATOM     27  C   UNL     1      -7.202  12.255  18.070  0.00  0.00    +0.000 C 
ENDBRANCH  25  27
ENDBRANCH   1  25
TORSDOF 4
ENDMDL
MODEL 8
REMARK VINA RESULT:      -6.4      3.139      5.660
REMARK  Name = 
REMARK  5 active torsions:
REMARK  status: ('A' for Active; 'I' for Inactive)
REMARK    1  A    between atoms: C_1  and  C_2
REMARK    2  A    between atoms: C_2  and  C_3
REMARK    3  A    between atoms: C_3  and  C_4
REMARK    4  A    between atoms: C_6  and  O_7
REMARK    5  A    between atoms: C_18  and  C_19
REMARK                            x       y       z     vdW  Elec       q    Type
REMARK                         _______ _______ _______ _____ _____    ______ ____
ROOT
ATOM      1  C   UNL     1       2.865   2.974  20.775  0.00  0.00    +0.000 C 
ATOM      2  O   UNL     1       3.501   2.275  19.678  0.00  0.00    +0.000 OA
ATOM      3  C   UNL     1       3.726   3.225  18.695  0.00  0.00    +0.000 C 
ATOM      4  C   UNL     1       3.333   4.472  18.927  0.00  0.00    +0.000 C 
ATOM      5  C   UNL     1       2.769   4.382  20.261  0.00  0.00    +0.000 C 
ATOM      6  N   UNL     1       2.229   5.359  20.917  0.00  0.00    +0.000 NA
ATOM      7  C   UNL     1       2.093   6.567  20.255  0.00  0.00    +0.000 C 
ATOM      8  C   UNL     1       2.569   6.790  19.009  0.00  0.00    +0.000 C 
ATOM      9  C   UNL     1       2.170   8.052  18.329  0.00  0.00    +0.000 C 
ATOM     10  O   UNL     1       2.508   8.276  17.170  0.00  0.00    +0.000 OA
ATOM     11  C   UNL     1       1.226   8.967  19.088  0.00  0.00    +0.000 C 
ATOM     12  O   UNL     1       1.484   8.932  20.483  0.00  0.00    +0.000 OA
ATOM     13  C   UNL     1       1.314   7.621  21.021  0.00  0.00    +0.000 C 
ATOM     14  C   UNL     1       3.363   5.774  18.224  0.00  0.00    +0.000 C 
ENDROOT
BRANCH  14  15
ATOM     15  C   UNL     1       4.797   6.231  17.964  0.00  0.00    +0.000 A 
ATOM     16  C   UNL     1       5.120   7.061  16.875  0.00  0.00    +0.000 A 
ATOM     17  C   UNL     1       6.434   7.481  16.670  0.00  0.00    +0.000 A 
ATOM     18  C   UNL     1       7.434   7.077  17.550  0.00  0.00    +0.000 A 
ATOM     19  F   UNL     1       8.689   7.498  17.332  0.00  0.00    +0.000 F 
ATOM     20  C   UNL     1       7.136   6.255  18.633  0.00  0.00    +0.000 A 
ATOM     21 CL   UNL     1       8.371   5.757  19.725  0.00  0.00    +0.000 Cl
ATOM     22  C   UNL     1       5.822   5.833  18.842  0.00  0.00    +0.000 A 
ENDBRANCH  14  15
BRANCH   3  23
ATOM     23  O   UNL     1       4.351   2.849  17.544  0.00  0.00    +0.000 OA
ATOM     24  H   UNL     1       3.921   2.013  17.288  0.00  0.00    +0.000 HD
ENDBRANCH   3  23
BRANCH   1  25
ATOM     25  C   UNL     1       1.463   2.430  21.038  0.00  0.00    +0.000 C 
BRANCH  25  27
ATOM     26  C   UNL     1       0.430   2.136  18.777  0.00  0.00    +0.000 C 
ATOM     27  C   UNL     1       0.411   2.952  20.063  0.00  0.00    +0.000 C 
ENDBRANCH  25  27
ENDBRANCH   1  25
TORSDOF 4
ENDMDL
MODEL 9
REMARK VINA RESULT:      -6.3      5.502      8.227
REMARK  Name = 
REMARK  5 active torsions:
REMARK  status: ('A' for Active; 'I' for Inactive)
REMARK    1  A    between atoms: C_1  and  C_2
REMARK    2  A    between atoms: C_2  and  C_3
REMARK    3  A    between atoms: C_3  and  C_4
REMARK    4  A    between atoms: C_6  and  O_7
REMARK    5  A    between atoms: C_18  and  C_19
REMARK                            x       y       z     vdW  Elec       q    Type
REMARK                         _______ _______ _______ _____ _____    ______ ____
ROOT
ATOM      1  C   UNL     1       0.639   8.437  20.256  0.00  0.00    +0.000 C 
ATOM      2  O   UNL     1       0.037   8.042  21.512  0.00  0.00    +0.000 OA
ATOM      3  C   UNL     1      -0.297   9.217  22.165  0.00  0.00    +0.000 C 
ATOM      4  C   UNL     1      -0.007  10.369  21.571  0.00  0.00    +0.000 C 
ATOM      5  C   UNL     1       0.598   9.937  20.325  0.00  0.00    +0.000 C 
ATOM      6  N   UNL     1       1.069  10.719  19.407  0.00  0.00    +0.000 NA
ATOM      7  C   UNL     1       1.082  12.077  19.678  0.00  0.00    +0.000 C 
ATOM      8  C   UNL     1       0.555  12.617  20.800  0.00  0.00    +0.000 C 
ATOM      9  C   UNL     1       0.824  14.054  21.071  0.00  0.00    +0.000 C 
ATOM     10  O   UNL     1       0.437  14.581  22.112  0.00  0.00    +0.000 OA
ATOM     11  C   UNL     1       1.706  14.784  20.073  0.00  0.00    +0.000 C 
ATOM     12  O   UNL     1       1.489  14.312  18.753  0.00  0.00    +0.000 OA
ATOM     13  C   UNL     1       1.786  12.922  18.631  0.00  0.00    +0.000 C 
ATOM     14  C   UNL     1      -0.169  11.812  21.853  0.00  0.00    +0.000 C 
ENDROOT
BRANCH  14  15
ATOM     15  C   UNL     1      -1.644  12.194  21.965  0.00  0.00    +0.000 A 
ATOM     16  C   UNL     1      -2.403  12.541  20.832  0.00  0.00    +0.000 A 
ATOM     17  C   UNL     1      -3.753  12.867  20.958  0.00  0.00    +0.000 A 
ATOM     18  C   UNL     1      -4.354  12.849  22.213  0.00  0.00    +0.000 A 
ATOM     19  F   UNL     1      -5.656  13.164  22.305  0.00  0.00    +0.000 F 
ATOM     20  C   UNL     1      -3.621  12.510  23.346  0.00  0.00    +0.000 A 
ATOM     21 CL   UNL     1      -4.364  12.484  24.899  0.00  0.00    +0.000 Cl
ATOM     22  C   UNL     1      -2.270  12.183  23.225  0.00  0.00    +0.000 A 
ENDBRANCH  14  15
BRANCH   3  23
ATOM     23  O   UNL     1      -0.917   9.145  23.377  0.00  0.00    +0.000 OA
ATOM     24  H   UNL     1      -0.386   8.511  23.892  0.00  0.00    +0.000 HD
ENDBRANCH   3  23
BRANCH   1  25
ATOM     25  C   UNL     1       2.090   7.970  20.166  0.00  0.00    +0.000 C 
BRANCH  25  27
ATOM     26  C   UNL     1       2.781   8.037  17.762  0.00  0.00    +0.000 C 
ATOM     27  C   UNL     1       2.388   7.135  18.923  0.00  0.00    +0.000 C 
ENDBRANCH  25  27
ENDBRANCH   1  25
TORSDOF 4
ENDMDL
