MODEL 1
REMARK VINA RESULT:      -7.1      0.000      0.000
REMARK  Name = 
REMARK  3 active torsions:
REMARK  status: ('A' for Active; 'I' for Inactive)
REMARK    1  A    between atoms: C_2  and  C_3
REMARK    2  A    between atoms: C_6  and  N_7
REMARK    3  A    between atoms: C_8  and  C_10
REMARK                            x       y       z     vdW  Elec       q    Type
REMARK                         _______ _______ _______ _____ _____    ______ ____
ROOT
ATOM      1  N   UNL     1       2.203   7.544  19.516  0.00  0.00    +0.000 N 
ATOM      2  C   UNL     1       2.604   7.643  18.195  0.00  0.00    +0.000 C 
ATOM      3  O   UNL     1       2.426   8.612  17.461  0.00  0.00    +0.000 OA
ATOM      4  H   UNL     1       2.513   6.715  20.023  0.00  0.00    +0.000 HD
ENDROOT
BRANCH   2   5
ATOM      5  C   UNL     1       3.344   6.485  17.634  0.00  0.00    +0.000 A 
ATOM      6  C   UNL     1       4.555   6.708  16.945  0.00  0.00    +0.000 A 
ATOM      7  C   UNL     1       5.297   5.650  16.418  0.00  0.00    +0.000 A 
ATOM      8  C   UNL     1       4.863   4.327  16.554  0.00  0.00    +0.000 A 
ATOM      9  C   UNL     1       3.659   4.125  17.230  0.00  0.00    +0.000 A 
ATOM     10  N   UNL     1       2.958   2.985  17.535  0.00  0.00    +0.000 N 
ATOM     11  C   UNL     1       1.829   3.350  18.213  0.00  0.00    +0.000 A 
ATOM     12  N   UNL     1       1.761   4.651  18.381  0.00  0.00    +0.000 NA
ATOM     13  C   UNL     1       2.893   5.160  17.767  0.00  0.00    +0.000 A 
ATOM     14  H   UNL     1       3.231   2.042  17.299  0.00  0.00    +0.000 HD
ENDBRANCH   2   5
BRANCH   1  18
ATOM     15  C   UNL     1       0.030  10.360  21.797  0.00  0.00    +0.000 A 
ATOM     16  C   UNL     1       0.155  10.542  20.419  0.00  0.00    +0.000 A 
ATOM     17  C   UNL     1       0.870   9.619  19.653  0.00  0.00    +0.000 A 
ATOM     18  C   UNL     1       1.468   8.503  20.243  0.00  0.00    +0.000 A 
ATOM     19  C   UNL     1       1.328   8.315  21.623  0.00  0.00    +0.000 A 
ATOM     20  C   UNL     1       0.619   9.245  22.400  0.00  0.00    +0.000 A 
BRANCH  15  22
ATOM     21  N   UNL     1      -1.303  12.076  23.213  0.00  0.00    +0.000 NA
ATOM     22  C   UNL     1      -0.703  11.311  22.577  0.00  0.00    +0.000 C 
ENDBRANCH  15  22
ENDBRANCH   1  18
TORSDOF 3
ENDMDL
MODEL 2
REMARK VINA RESULT:      -7.0      2.330      3.243
REMARK  Name = 
REMARK  3 active torsions:
REMARK  status: ('A' for Active; 'I' for Inactive)
REMARK    1  A    between atoms: C_2  and  C_3
REMARK    2  A    between atoms: C_6  and  N_7
REMARK    3  A    between atoms: C_8  and  C_10
REMARK                            x       y       z     vdW  Elec       q    Type
REMARK                         _______ _______ _______ _____ _____    ______ ____
ROOT
ATOM      1  N   UNL     1       3.506   7.263  18.024  0.00  0.00    +0.000 N 
ATOM      2  C   UNL     1       3.410   5.918  17.712  0.00  0.00    +0.000 C 
ATOM      3  O   UNL     1       2.396   5.230  17.802  0.00  0.00    +0.000 OA
ATOM      4  H   UNL     1       4.391   7.718  17.800  0.00  0.00    +0.000 HD
ENDROOT
BRANCH   2   5
ATOM      5  C   UNL     1       4.637   5.264  17.192  0.00  0.00    +0.000 A 
ATOM      6  C   UNL     1       4.611   4.666  15.914  0.00  0.00    +0.000 A 
ATOM      7  C   UNL     1       5.745   4.058  15.374  0.00  0.00    +0.000 A 
ATOM      8  C   UNL     1       6.950   4.020  16.083  0.00  0.00    +0.000 A 
ATOM      9  C   UNL     1       6.956   4.609  17.349  0.00  0.00    +0.000 A 
ATOM     10  N   UNL     1       7.943   4.747  18.292  0.00  0.00    +0.000 N 
ATOM     11  C   UNL     1       7.415   5.407  19.365  0.00  0.00    +0.000 A 
ATOM     12  N   UNL     1       6.154   5.719  19.173  0.00  0.00    +0.000 NA
ATOM     13  C   UNL     1       5.841   5.223  17.918  0.00  0.00    +0.000 A 
ATOM     14  H   UNL     1       8.894   4.419  18.205  0.00  0.00    +0.000 HD
ENDBRANCH   2   5
BRANCH   1  18
ATOM     15  C   UNL     1       0.426   9.746  19.509  0.00  0.00    +0.000 A 
ATOM     16  C   UNL     1       0.999   8.787  20.345  0.00  0.00    +0.000 A 
ATOM     17  C   UNL     1       2.018   7.960  19.868  0.00  0.00    +0.000 A 
ATOM     18  C   UNL     1       2.483   8.075  18.556  0.00  0.00    +0.000 A 
ATOM     19  C   UNL     1       1.917   9.048  17.724  0.00  0.00    +0.000 A 
ATOM     20  C   UNL     1       0.885   9.875  18.195  0.00  0.00    +0.000 A 
BRANCH  15  22
ATOM     21  N   UNL     1      -1.473  11.266  20.408  0.00  0.00    +0.000 NA
ATOM     22  C   UNL     1      -0.620  10.590  20.004  0.00  0.00    +0.000 C 
ENDBRANCH  15  22
ENDBRANCH   1  18
TORSDOF 3
ENDMDL
MODEL 3
REMARK VINA RESULT:      -7.0      1.951      2.723
REMARK  Name = 
REMARK  3 active torsions:
REMARK  status: ('A' for Active; 'I' for Inactive)
REMARK    1  A    between atoms: C_2  and  C_3
REMARK    2  A    between atoms: C_6  and  N_7
REMARK    3  A    between atoms: C_8  and  C_10
REMARK                            x       y       z     vdW  Elec       q    Type
REMARK                         _______ _______ _______ _____ _____    ______ ____
ROOT
ATOM      1  N   UNL     1       2.165   7.146  19.560  0.00  0.00    +0.000 N 
ATOM      2  C   UNL     1       1.959   5.804  19.833  0.00  0.00    +0.000 C 
ATOM      3  O   UNL     1       1.175   5.353  20.665  0.00  0.00    +0.000 OA
ATOM      4  H   UNL     1       2.776   7.359  18.771  0.00  0.00    +0.000 HD
ENDROOT
BRANCH   2   5
ATOM      5  C   UNL     1       2.733   4.832  19.022  0.00  0.00    +0.000 A 
ATOM      6  C   UNL     1       2.043   3.874  18.249  0.00  0.00    +0.000 A 
ATOM      7  C   UNL     1       2.726   2.953  17.455  0.00  0.00    +0.000 A 
ATOM      8  C   UNL     1       4.124   2.946  17.397  0.00  0.00    +0.000 A 
ATOM      9  C   UNL     1       4.791   3.894  18.175  0.00  0.00    +0.000 A 
ATOM     10  N   UNL     1       6.126   4.161  18.352  0.00  0.00    +0.000 N 
ATOM     11  C   UNL     1       6.237   5.201  19.231  0.00  0.00    +0.000 A 
ATOM     12  N   UNL     1       5.062   5.635  19.624  0.00  0.00    +0.000 NA
ATOM     13  C   UNL     1       4.139   4.827  18.980  0.00  0.00    +0.000 A 
ATOM     14  H   UNL     1       6.890   3.673  17.908  0.00  0.00    +0.000 HD
ENDBRANCH   2   5
BRANCH   1  18
ATOM     15  C   UNL     1       0.336  10.464  21.431  0.00  0.00    +0.000 A 
ATOM     16  C   UNL     1       0.825   9.417  22.214  0.00  0.00    +0.000 A 
ATOM     17  C   UNL     1       1.433   8.314  21.609  0.00  0.00    +0.000 A 
ATOM     18  C   UNL     1       1.564   8.237  20.220  0.00  0.00    +0.000 A 
ATOM     19  C   UNL     1       1.087   9.296  19.439  0.00  0.00    +0.000 A 
ATOM     20  C   UNL     1       0.466  10.402  20.041  0.00  0.00    +0.000 A 
BRANCH  15  22
ATOM     21  N   UNL     1      -0.786  12.505  22.571  0.00  0.00    +0.000 NA
ATOM     22  C   UNL     1      -0.287  11.591  22.057  0.00  0.00    +0.000 C 
ENDBRANCH  15  22
ENDBRANCH   1  18
TORSDOF 3
ENDMDL
MODEL 4
REMARK VINA RESULT:      -6.9      2.197      3.258
REMARK  Name = 
REMARK  3 active torsions:
REMARK  status: ('A' for Active; 'I' for Inactive)
REMARK    1  A    between atoms: C_2  and  C_3
REMARK    2  A    between atoms: C_6  and  N_7
REMARK    3  A    between atoms: C_8  and  C_10
REMARK                            x       y       z     vdW  Elec       q    Type
REMARK                         _______ _______ _______ _____ _____    ______ ____
ROOT
ATOM      1  N   UNL     1       3.125   7.504  18.013  0.00  0.00    +0.000 N 
ATOM      2  C   UNL     1       3.146   6.119  18.018  0.00  0.00    +0.000 C 
ATOM      3  O   UNL     1       2.302   5.391  18.536  0.00  0.00    +0.000 OA
ATOM      4  H   UNL     1       3.844   7.965  17.455  0.00  0.00    +0.000 HD
ENDROOT
BRANCH   2   5
ATOM      5  C   UNL     1       4.271   5.465  17.305  0.00  0.00    +0.000 A 
ATOM      6  C   UNL     1       4.078   4.188  16.737  0.00  0.00    +0.000 A 
ATOM      7  C   UNL     1       5.099   3.542  16.039  0.00  0.00    +0.000 A 
ATOM      8  C   UNL     1       6.354   4.140  15.879  0.00  0.00    +0.000 A 
ATOM      9  C   UNL     1       6.530   5.400  16.454  0.00  0.00    +0.000 A 
ATOM     10  N   UNL     1       7.606   6.251  16.488  0.00  0.00    +0.000 N 
ATOM     11  C   UNL     1       7.244   7.365  17.192  0.00  0.00    +0.000 A 
ATOM     12  N   UNL     1       5.999   7.297  17.603  0.00  0.00    +0.000 NA
ATOM     13  C   UNL     1       5.531   6.072  17.158  0.00  0.00    +0.000 A 
ATOM     14  H   UNL     1       8.507   6.081  16.065  0.00  0.00    +0.000 HD
ENDBRANCH   2   5
BRANCH   1  18
ATOM     15  C   UNL     1       0.255  10.034  19.804  0.00  0.00    +0.000 A 
ATOM     16  C   UNL     1       0.875   9.047  20.572  0.00  0.00    +0.000 A 
ATOM     17  C   UNL     1       1.827   8.205  19.993  0.00  0.00    +0.000 A 
ATOM     18  C   UNL     1       2.175   8.331  18.646  0.00  0.00    +0.000 A 
ATOM     19  C   UNL     1       1.563   9.331  17.883  0.00  0.00    +0.000 A 
ATOM     20  C   UNL     1       0.598  10.175  18.457  0.00  0.00    +0.000 A 
BRANCH  15  22
ATOM     21  N   UNL     1      -1.510  11.589  20.897  0.00  0.00    +0.000 NA
ATOM     22  C   UNL     1      -0.721  10.894  20.403  0.00  0.00    +0.000 C 
ENDBRANCH  15  22
ENDBRANCH   1  18
TORSDOF 3
ENDMDL
MODEL 5
REMARK VINA RESULT:      -6.9      0.252      1.101
REMARK  Name = 
REMARK  3 active torsions:
REMARK  status: ('A' for Active; 'I' for Inactive)
REMARK    1  A    between atoms: C_2  and  C_3
REMARK    2  A    between atoms: C_6  and  N_7
REMARK    3  A    between atoms: C_8  and  C_10
REMARK                            x       y       z     vdW  Elec       q    Type
REMARK                         _______ _______ _______ _____ _____    ______ ____
ROOT
ATOM      1  N   UNL     1       2.078   7.587  19.706  0.00  0.00    +0.000 N 
ATOM      2  C   UNL     1       2.538   7.753  18.410  0.00  0.00    +0.000 C 
ATOM      3  O   UNL     1       2.408   8.766  17.727  0.00  0.00    +0.000 OA
ATOM      4  H   UNL     1       2.352   6.724  20.176  0.00  0.00    +0.000 HD
ENDROOT
BRANCH   2   5
ATOM      5  C   UNL     1       3.281   6.615  17.815  0.00  0.00    +0.000 A 
ATOM      6  C   UNL     1       4.482   6.866  17.116  0.00  0.00    +0.000 A 
ATOM      7  C   UNL     1       5.226   5.827  16.557  0.00  0.00    +0.000 A 
ATOM      8  C   UNL     1       4.807   4.497  16.669  0.00  0.00    +0.000 A 
ATOM      9  C   UNL     1       3.613   4.268  17.355  0.00  0.00    +0.000 A 
ATOM     10  N   UNL     1       2.928   3.115  17.644  0.00  0.00    +0.000 N 
ATOM     11  C   UNL     1       1.804   3.453  18.344  0.00  0.00    +0.000 A 
ATOM     12  N   UNL     1       1.726   4.749  18.541  0.00  0.00    +0.000 NA
ATOM     13  C   UNL     1       2.845   5.283  17.925  0.00  0.00    +0.000 A 
ATOM     14  H   UNL     1       3.208   2.180  17.384  0.00  0.00    +0.000 HD
ENDBRANCH   2   5
BRANCH   1  18
ATOM     15  C   UNL     1      -0.211  10.420  21.847  0.00  0.00    +0.000 A 
ATOM     16  C   UNL     1       0.496   9.440  22.545  0.00  0.00    +0.000 A 
ATOM     17  C   UNL     1       1.258   8.497  21.850  0.00  0.00    +0.000 A 
ATOM     18  C   UNL     1       1.328   8.516  20.455  0.00  0.00    +0.000 A 
ATOM     19  C   UNL     1       0.630   9.510  19.759  0.00  0.00    +0.000 A 
ATOM     20  C   UNL     1      -0.145  10.453  20.452  0.00  0.00    +0.000 A 
BRANCH  15  22
ATOM     21  N   UNL     1      -1.617  12.166  23.152  0.00  0.00    +0.000 NA
ATOM     22  C   UNL     1      -0.992  11.382  22.566  0.00  0.00    +0.000 C 
ENDBRANCH  15  22
ENDBRANCH   1  18
TORSDOF 3
ENDMDL
MODEL 6
REMARK VINA RESULT:      -6.9      2.372      3.239
REMARK  Name = 
REMARK  3 active torsions:
REMARK  status: ('A' for Active; 'I' for Inactive)
REMARK    1  A    between atoms: C_2  and  C_3
REMARK    2  A    between atoms: C_6  and  N_7
REMARK    3  A    between atoms: C_8  and  C_10
REMARK                            x       y       z     vdW  Elec       q    Type
REMARK                         _______ _______ _______ _____ _____    ______ ____
ROOT
ATOM      1  N   UNL     1       2.357   6.915  20.324  0.00  0.00    +0.000 N 
ATOM      2  C   UNL     1       1.827   5.638  20.404  0.00  0.00    +0.000 C 
ATOM      3  O   UNL     1       0.638   5.362  20.545  0.00  0.00    +0.000 OA
ATOM      4  H   UNL     1       3.352   6.980  20.106  0.00  0.00    +0.000 HD
ENDROOT
BRANCH   2   5
ATOM      5  C   UNL     1       2.782   4.510  20.274  0.00  0.00    +0.000 A 
ATOM      6  C   UNL     1       2.532   3.310  20.973  0.00  0.00    +0.000 A 
ATOM      7  C   UNL     1       3.389   2.215  20.865  0.00  0.00    +0.000 A 
ATOM      8  C   UNL     1       4.532   2.269  20.059  0.00  0.00    +0.000 A 
ATOM      9  C   UNL     1       4.769   3.466  19.382  0.00  0.00    +0.000 A 
ATOM     10  N   UNL     1       5.771   3.855  18.528  0.00  0.00    +0.000 N 
ATOM     11  C   UNL     1       5.526   5.143  18.146  0.00  0.00    +0.000 A 
ATOM     12  N   UNL     1       4.423   5.610  18.684  0.00  0.00    +0.000 NA
ATOM     13  C   UNL     1       3.933   4.579  19.468  0.00  0.00    +0.000 A 
ATOM     14  H   UNL     1       6.551   3.285  18.235  0.00  0.00    +0.000 HD
ENDBRANCH   2   5
BRANCH   1  18
ATOM     15  C   UNL     1       0.233  10.559  20.578  0.00  0.00    +0.000 A 
ATOM     16  C   UNL     1       0.454   9.810  21.735  0.00  0.00    +0.000 A 
ATOM     17  C   UNL     1       1.155   8.605  21.666  0.00  0.00    +0.000 A 
ATOM     18  C   UNL     1       1.647   8.127  20.449  0.00  0.00    +0.000 A 
ATOM     19  C   UNL     1       1.437   8.888  19.293  0.00  0.00    +0.000 A 
ATOM     20  C   UNL     1       0.724  10.095  19.355  0.00  0.00    +0.000 A 
BRANCH  15  22
ATOM     21  N   UNL     1      -1.071  12.795  20.726  0.00  0.00    +0.000 NA
ATOM     22  C   UNL     1      -0.489  11.793  20.655  0.00  0.00    +0.000 C 
ENDBRANCH  15  22
ENDBRANCH   1  18
TORSDOF 3
ENDMDL
MODEL 7
REMARK VINA RESULT:      -6.9      1.737      1.766
REMARK  Name = 
REMARK  3 active torsions:
REMARK  status: ('A' for Active; 'I' for Inactive)
REMARK    1  A    between atoms: C_2  and  C_3
REMARK    2  A    between atoms: C_6  and  N_7
REMARK    3  A    between atoms: C_8  and  C_10
REMARK                            x       y       z     vdW  Elec       q    Type
REMARK                         _______ _______ _______ _____ _____    ______ ____
ROOT
ATOM      1  N   UNL     1       2.153   7.780  19.786  0.00  0.00    +0.000 N 
ATOM      2  C   UNL     1       2.188   6.398  19.872  0.00  0.00    +0.000 C 
ATOM      3  O   UNL     1       1.423   5.701  20.535  0.00  0.00    +0.000 OA
ATOM      4  H   UNL     1       2.790   8.207  19.114  0.00  0.00    +0.000 HD
ENDROOT
BRANCH   2   5
ATOM      5  C   UNL     1       3.220   5.705  19.062  0.00  0.00    +0.000 A 
ATOM      6  C   UNL     1       3.777   6.363  17.945  0.00  0.00    +0.000 A 
ATOM      7  C   UNL     1       4.764   5.760  17.165  0.00  0.00    +0.000 A 
ATOM      8  C   UNL     1       5.237   4.478  17.463  0.00  0.00    +0.000 A 
ATOM      9  C   UNL     1       4.668   3.838  18.566  0.00  0.00    +0.000 A 
ATOM     10  N   UNL     1       4.892   2.605  19.127  0.00  0.00    +0.000 N 
ATOM     11  C   UNL     1       4.058   2.471  20.201  0.00  0.00    +0.000 A 
ATOM     12  N   UNL     1       3.320   3.542  20.382  0.00  0.00    +0.000 NA
ATOM     13  C   UNL     1       3.680   4.411  19.365  0.00  0.00    +0.000 A 
ATOM     14  H   UNL     1       5.557   1.920  18.801  0.00  0.00    +0.000 HD
ENDBRANCH   2   5
BRANCH   1  18
ATOM     15  C   UNL     1      -0.404  10.326  21.984  0.00  0.00    +0.000 A 
ATOM     16  C   UNL     1      -0.436  10.358  20.589  0.00  0.00    +0.000 A 
ATOM     17  C   UNL     1       0.403   9.521  19.850  0.00  0.00    +0.000 A 
ATOM     18  C   UNL     1       1.283   8.642  20.484  0.00  0.00    +0.000 A 
ATOM     19  C   UNL     1       1.301   8.601  21.884  0.00  0.00    +0.000 A 
ATOM     20  C   UNL     1       0.468   9.447  22.632  0.00  0.00    +0.000 A 
BRANCH  15  22
ATOM     21  N   UNL     1      -1.959  11.886  23.354  0.00  0.00    +0.000 NA
ATOM     22  C   UNL     1      -1.266  11.188  22.736  0.00  0.00    +0.000 C 
ENDBRANCH  15  22
ENDBRANCH   1  18
TORSDOF 3
ENDMDL
MODEL 8
REMARK VINA RESULT:      -6.8      2.352      3.055
REMARK  Name = 
REMARK  3 active torsions:
REMARK  status: ('A' for Active; 'I' for Inactive)
REMARK    1  A    between atoms: C_2  and  C_3
REMARK    2  A    between atoms: C_6  and  N_7
REMARK    3  A    between atoms: C_8  and  C_10
REMARK                            x       y       z     vdW  Elec       q    Type
REMARK                         _______ _______ _______ _____ _____    ______ ____
ROOT
ATOM      1  N   UNL     1       2.354   6.961  20.246  0.00  0.00    +0.000 N 
ATOM      2  C   UNL     1       1.822   5.692  20.394  0.00  0.00    +0.000 C 
ATOM      3  O   UNL     1       0.637   5.428  20.590  0.00  0.00    +0.000 OA
ATOM      4  H   UNL     1       3.339   7.012  19.988  0.00  0.00    +0.000 HD
ENDROOT
BRANCH   2   5
ATOM      5  C   UNL     1       2.766   4.554  20.269  0.00  0.00    +0.000 A 
ATOM      6  C   UNL     1       2.494   3.353  20.959  0.00  0.00    +0.000 A 
ATOM      7  C   UNL     1       3.341   2.249  20.856  0.00  0.00    +0.000 A 
ATOM      8  C   UNL     1       4.493   2.294  20.064  0.00  0.00    +0.000 A 
ATOM      9  C   UNL     1       4.751   3.493  19.396  0.00  0.00    +0.000 A 
ATOM     10  N   UNL     1       5.768   3.875  18.557  0.00  0.00    +0.000 N 
ATOM     11  C   UNL     1       5.542   5.168  18.178  0.00  0.00    +0.000 A 
ATOM     12  N   UNL     1       4.437   5.644  18.705  0.00  0.00    +0.000 NA
ATOM     13  C   UNL     1       3.927   4.614  19.478  0.00  0.00    +0.000 A 
ATOM     14  H   UNL     1       6.546   3.298  18.270  0.00  0.00    +0.000 HD
ENDBRANCH   2   5
BRANCH   1  18
ATOM     15  C   UNL     1       0.259  10.604  20.688  0.00  0.00    +0.000 A 
ATOM     16  C   UNL     1       0.665  10.195  19.417  0.00  0.00    +0.000 A 
ATOM     17  C   UNL     1       1.357   8.993  19.256  0.00  0.00    +0.000 A 
ATOM     18  C   UNL     1       1.654   8.181  20.353  0.00  0.00    +0.000 A 
ATOM     19  C   UNL     1       1.232   8.587  21.624  0.00  0.00    +0.000 A 
ATOM     20  C   UNL     1       0.545   9.799  21.793  0.00  0.00    +0.000 A 
BRANCH  15  22
ATOM     21  N   UNL     1      -1.019  12.841  20.983  0.00  0.00    +0.000 NA
ATOM     22  C   UNL     1      -0.449  11.839  20.846  0.00  0.00    +0.000 C 
ENDBRANCH  15  22
ENDBRANCH   1  18
TORSDOF 3
ENDMDL
MODEL 9
REMARK VINA RESULT:      -6.8      2.007      2.601
REMARK  Name = 
REMARK  3 active torsions:
REMARK  status: ('A' for Active; 'I' for Inactive)
REMARK    1  A    between atoms: C_2  and  C_3
REMARK    2  A    between atoms: C_6  and  N_7
REMARK    3  A    between atoms: C_8  and  C_10
REMARK                            x       y       z     vdW  Elec       q    Type
REMARK                         _______ _______ _______ _____ _____    ______ ____
ROOT
ATOM      1  N   UNL     1       2.178   7.011  19.451  0.00  0.00    +0.000 N 
ATOM      2  C   UNL     1       1.898   5.710  19.831  0.00  0.00    +0.000 C 
ATOM      3  O   UNL     1       1.080   5.371  20.684  0.00  0.00    +0.000 OA
ATOM      4  H   UNL     1       2.809   7.126  18.658  0.00  0.00    +0.000 HD
ENDROOT
BRANCH   2   5
ATOM      5  C   UNL     1       2.628   4.634  19.115  0.00  0.00    +0.000 A 
ATOM      6  C   UNL     1       1.900   3.572  18.538  0.00  0.00    +0.000 A 
ATOM      7  C   UNL     1       2.541   2.549  17.838  0.00  0.00    +0.000 A 
ATOM      8  C   UNL     1       3.931   2.540  17.685  0.00  0.00    +0.000 A 
ATOM      9  C   UNL     1       4.636   3.593  18.270  0.00  0.00    +0.000 A 
ATOM     10  N   UNL     1       5.976   3.888  18.313  0.00  0.00    +0.000 N 
ATOM     11  C   UNL     1       6.133   5.044  19.025  0.00  0.00    +0.000 A 
ATOM     12  N   UNL     1       4.981   5.526  19.432  0.00  0.00    +0.000 NA
ATOM     13  C   UNL     1       4.028   4.629  18.977  0.00  0.00    +0.000 A 
ATOM     14  H   UNL     1       6.715   3.344  17.891  0.00  0.00    +0.000 HD
ENDBRANCH   2   5
BRANCH   1  18
ATOM     15  C   UNL     1       0.553  10.480  21.235  0.00  0.00    +0.000 A 
ATOM     16  C   UNL     1       0.688  10.420  19.847  0.00  0.00    +0.000 A 
ATOM     17  C   UNL     1       1.222   9.279  19.244  0.00  0.00    +0.000 A 
ATOM     18  C   UNL     1       1.629   8.184  20.009  0.00  0.00    +0.000 A 
ATOM     19  C   UNL     1       1.478   8.241  21.400  0.00  0.00    +0.000 A 
ATOM     20  C   UNL     1       0.951   9.389  22.012  0.00  0.00    +0.000 A 
BRANCH  15  22
ATOM     21  N   UNL     1      -0.432  12.610  22.338  0.00  0.00    +0.000 NA
ATOM     22  C   UNL     1       0.007  11.653  21.847  0.00  0.00    +0.000 C 
ENDBRANCH  15  22
ENDBRANCH   1  18
TORSDOF 3
ENDMDL
