MODEL 1
REMARK VINA RESULT:      -7.6      0.000      0.000
REMARK  Name = 
REMARK  14 active torsions:
REMARK  status: ('A' for Active; 'I' for Inactive)
REMARK    1  A    between atoms: C_1  and  C_2
REMARK    2  A    between atoms: C_2  and  C_3
REMARK    3  A    between atoms: C_3  and  C_4
REMARK    4  A    between atoms: C_4  and  C_5
REMARK    5  A    between atoms: C_5  and  C_6
REMARK    6  A    between atoms: C_6  and  C_7
REMARK    7  A    between atoms: C_7  and  C_8
REMARK    8  A    between atoms: C_7  and  C_22
REMARK    9  A    between atoms: C_9  and  C_10
REMARK   10  A    between atoms: N_11  and  C_12
REMARK   11  A    between atoms: N_13  and  C_14
REMARK   12  A    between atoms: C_23  and  C_24
REMARK   13  A    between atoms: N_25  and  C_26
REMARK   14  A    between atoms: N_27  and  C_28
REMARK                            x       y       z     vdW  Elec       q    Type
REMARK                         _______ _______ _______ _____ _____    ______ ____
ROOT
ATOM      1  C   UNL     1       0.575  10.384  18.774  0.00  0.00    +0.000 C 
ENDROOT
BRANCH   1   2
ATOM      2  C   UNL     1       1.099  11.610  19.464  0.00  0.00    +0.000 A 
ATOM      3  C   UNL     1       0.825  12.242  20.638  0.00  0.00    +0.000 A 
ATOM      4  C   UNL     1      -0.186  11.846  21.670  0.00  0.00    +0.000 C 
ATOM      5  N   UNL     1       1.603  13.391  20.818  0.00  0.00    +0.000 N 
ATOM      6  C   UNL     1       1.180  14.564  21.581  0.00  0.00    +0.000 C 
ATOM      7  N   UNL     1       2.239  13.607  19.586  0.00  0.00    +0.000 N 
ATOM      8  C   UNL     1       2.114  12.477  18.804  0.00  0.00    +0.000 A 
ATOM      9  O   UNL     1       2.718  12.173  17.790  0.00  0.00    +0.000 OA
BRANCH   7  10
ATOM     10  C   UNL     1       3.198  14.606  19.346  0.00  0.00    +0.000 A 
ATOM     11  C   UNL     1       2.921  15.579  18.374  0.00  0.00    +0.000 A 
ATOM     12  C   UNL     1       3.831  16.593  18.118  0.00  0.00    +0.000 A 
ATOM     13  C   UNL     1       5.043  16.628  18.808  0.00  0.00    +0.000 A 
ATOM     14  C   UNL     1       5.335  15.653  19.758  0.00  0.00    +0.000 A 
ATOM     15  C   UNL     1       4.409  14.647  20.037  0.00  0.00    +0.000 A 
ENDBRANCH   7  10
ENDBRANCH   1   2
BRANCH   1  16
ATOM     16  C   UNL     1       1.251   9.109  19.250  0.00  0.00    +0.000 A 
ATOM     17  C   UNL     1       1.200   8.339  20.362  0.00  0.00    +0.000 A 
ATOM     18  C   UNL     1       0.628   8.662  21.709  0.00  0.00    +0.000 C 
ATOM     19  N   UNL     1       1.786   7.086  20.154  0.00  0.00    +0.000 N 
ATOM     20  C   UNL     1       2.287   6.192  21.192  0.00  0.00    +0.000 C 
ATOM     21  N   UNL     1       2.524   7.173  18.966  0.00  0.00    +0.000 N 
ATOM     22  C   UNL     1       2.185   8.377  18.333  0.00  0.00    +0.000 A 
ATOM     23  O   UNL     1       2.528   8.797  17.238  0.00  0.00    +0.000 OA
BRANCH  21  24
ATOM     24  C   UNL     1       2.919   6.032  18.242  0.00  0.00    +0.000 A 
ATOM     25  C   UNL     1       4.251   5.937  17.824  0.00  0.00    +0.000 A 
ATOM     26  C   UNL     1       4.694   4.811  17.129  0.00  0.00    +0.000 A 
ATOM     27  C   UNL     1       3.800   3.790  16.816  0.00  0.00    +0.000 A 
ATOM     28  C   UNL     1       2.466   3.883  17.215  0.00  0.00    +0.000 A 
ATOM     29  C   UNL     1       2.029   4.993  17.944  0.00  0.00    +0.000 A 
ENDBRANCH  21  24
ENDBRANCH   1  16
BRANCH   1  30
ATOM     30  C   UNL     1      -0.976  10.238  18.800  0.00  0.00    +0.000 C 
BRANCH  30  31
ATOM     31  C   UNL     1      -1.772  11.445  18.302  0.00  0.00    +0.000 C 
BRANCH  31  32
ATOM     32  C   UNL     1      -3.245  11.068  18.056  0.00  0.00    +0.000 C 
BRANCH  32  33
ATOM     33  C   UNL     1      -3.379  10.182  16.816  0.00  0.00    +0.000 C 
BRANCH  33  35
ATOM     34  C   UNL     1      -3.138  10.043  14.318  0.00  0.00    +0.000 C 
ATOM     35  C   UNL     1      -2.746  10.809  15.574  0.00  0.00    +0.000 C 
ENDBRANCH  33  35
ENDBRANCH  32  33
ENDBRANCH  31  32
ENDBRANCH  30  31
ENDBRANCH   1  30
TORSDOF 9
ENDMDL
MODEL 2
REMARK VINA RESULT:      -7.4      0.648      1.094
REMARK  Name = 
REMARK  14 active torsions:
REMARK  status: ('A' for Active; 'I' for Inactive)
REMARK    1  A    between atoms: C_1  and  C_2
REMARK    2  A    between atoms: C_2  and  C_3
REMARK    3  A    between atoms: C_3  and  C_4
REMARK    4  A    between atoms: C_4  and  C_5
REMARK    5  A    between atoms: C_5  and  C_6
REMARK    6  A    between atoms: C_6  and  C_7
REMARK    7  A    between atoms: C_7  and  C_8
REMARK    8  A    between atoms: C_7  and  C_22
REMARK    9  A    between atoms: C_9  and  C_10
REMARK   10  A    between atoms: N_11  and  C_12
REMARK   11  A    between atoms: N_13  and  C_14
REMARK   12  A    between atoms: C_23  and  C_24
REMARK   13  A    between atoms: N_25  and  C_26
REMARK   14  A    between atoms: N_27  and  C_28
REMARK                            x       y       z     vdW  Elec       q    Type
REMARK                         _______ _______ _______ _____ _____    ______ ____
ROOT
ATOM      1  C   UNL     1       0.497  10.393  18.760  0.00  0.00    +0.000 C 
ENDROOT
BRANCH   1   2
ATOM      2  C   UNL     1       0.998  11.629  19.451  0.00  0.00    +0.000 A 
ATOM      3  C   UNL     1       0.668  12.292  20.593  0.00  0.00    +0.000 A 
ATOM      4  C   UNL     1      -0.404  11.933  21.575  0.00  0.00    +0.000 C 
ATOM      5  N   UNL     1       1.449  13.435  20.790  0.00  0.00    +0.000 N 
ATOM      6  C   UNL     1       1.001  14.631  21.501  0.00  0.00    +0.000 C 
ATOM      7  N   UNL     1       2.156  13.615  19.591  0.00  0.00    +0.000 N 
ATOM      8  C   UNL     1       2.060  12.468  18.828  0.00  0.00    +0.000 A 
ATOM      9  O   UNL     1       2.715  12.133  17.857  0.00  0.00    +0.000 OA
BRANCH   7  10
ATOM     10  C   UNL     1       3.140  14.596  19.382  0.00  0.00    +0.000 A 
ATOM     11  C   UNL     1       2.930  15.550  18.375  0.00  0.00    +0.000 A 
ATOM     12  C   UNL     1       3.866  16.547  18.147  0.00  0.00    +0.000 A 
ATOM     13  C   UNL     1       5.039  16.582  18.901  0.00  0.00    +0.000 A 
ATOM     14  C   UNL     1       5.265  15.626  19.887  0.00  0.00    +0.000 A 
ATOM     15  C   UNL     1       4.312  14.638  20.137  0.00  0.00    +0.000 A 
ENDBRANCH   7  10
ENDBRANCH   1   2
BRANCH   1  16
ATOM     16  C   UNL     1       1.192   9.131  19.241  0.00  0.00    +0.000 A 
ATOM     17  C   UNL     1       1.156   8.366  20.356  0.00  0.00    +0.000 A 
ATOM     18  C   UNL     1       0.584   8.687  21.704  0.00  0.00    +0.000 C 
ATOM     19  N   UNL     1       1.759   7.120  20.153  0.00  0.00    +0.000 N 
ATOM     20  C   UNL     1       2.276   6.239  21.193  0.00  0.00    +0.000 C 
ATOM     21  N   UNL     1       2.492   7.212  18.962  0.00  0.00    +0.000 N 
ATOM     22  C   UNL     1       2.134   8.407  18.325  0.00  0.00    +0.000 A 
ATOM     23  O   UNL     1       2.467   8.827  17.226  0.00  0.00    +0.000 OA
BRANCH  21  24
ATOM     24  C   UNL     1       2.901   6.073  18.243  0.00  0.00    +0.000 A 
ATOM     25  C   UNL     1       4.224   6.009  17.793  0.00  0.00    +0.000 A 
ATOM     26  C   UNL     1       4.682   4.887  17.102  0.00  0.00    +0.000 A 
ATOM     27  C   UNL     1       3.809   3.837  16.822  0.00  0.00    +0.000 A 
ATOM     28  C   UNL     1       2.482   3.899  17.253  0.00  0.00    +0.000 A 
ATOM     29  C   UNL     1       2.033   5.006  17.979  0.00  0.00    +0.000 A 
ENDBRANCH  21  24
ENDBRANCH   1  16
BRANCH   1  30
ATOM     30  C   UNL     1      -1.052  10.222  18.782  0.00  0.00    +0.000 C 
BRANCH  30  31
ATOM     31  C   UNL     1      -1.727  10.054  17.420  0.00  0.00    +0.000 C 
BRANCH  31  32
ATOM     32  C   UNL     1      -2.458  11.346  17.007  0.00  0.00    +0.000 C 
BRANCH  32  33
ATOM     33  C   UNL     1      -3.910  11.051  16.629  0.00  0.00    +0.000 C 
BRANCH  33  35
ATOM     34  C   UNL     1      -4.543  11.983  18.876  0.00  0.00    +0.000 C 
ATOM     35  C   UNL     1      -4.815  10.890  17.851  0.00  0.00    +0.000 C 
ENDBRANCH  33  35
ENDBRANCH  32  33
ENDBRANCH  31  32
ENDBRANCH  30  31
ENDBRANCH   1  30
TORSDOF 9
ENDMDL
MODEL 3
REMARK VINA RESULT:      -7.4      0.590      1.499
REMARK  Name = 
REMARK  14 active torsions:
REMARK  status: ('A' for Active; 'I' for Inactive)
REMARK    1  A    between atoms: C_1  and  C_2
REMARK    2  A    between atoms: C_2  and  C_3
REMARK    3  A    between atoms: C_3  and  C_4
REMARK    4  A    between atoms: C_4  and  C_5
REMARK    5  A    between atoms: C_5  and  C_6
REMARK    6  A    between atoms: C_6  and  C_7
REMARK    7  A    between atoms: C_7  and  C_8
REMARK    8  A    between atoms: C_7  and  C_22
REMARK    9  A    between atoms: C_9  and  C_10
REMARK   10  A    between atoms: N_11  and  C_12
REMARK   11  A    between atoms: N_13  and  C_14
REMARK   12  A    between atoms: C_23  and  C_24
REMARK   13  A    between atoms: N_25  and  C_26
REMARK   14  A    between atoms: N_27  and  C_28
REMARK                            x       y       z     vdW  Elec       q    Type
REMARK                         _______ _______ _______ _____ _____    ______ ____
ROOT
ATOM      1  C   UNL     1       0.459  10.382  18.667  0.00  0.00    +0.000 C 
ENDROOT
BRANCH   1   2
ATOM      2  C   UNL     1       0.918  11.633  19.360  0.00  0.00    +0.000 A 
ATOM      3  C   UNL     1       0.528  12.313  20.473  0.00  0.00    +0.000 A 
ATOM      4  C   UNL     1      -0.589  11.962  21.408  0.00  0.00    +0.000 C 
ATOM      5  N   UNL     1       1.290  13.466  20.688  0.00  0.00    +0.000 N 
ATOM      6  C   UNL     1       0.799  14.670  21.357  0.00  0.00    +0.000 C 
ATOM      7  N   UNL     1       2.053  13.630  19.522  0.00  0.00    +0.000 N 
ATOM      8  C   UNL     1       2.002  12.470  18.776  0.00  0.00    +0.000 A 
ATOM      9  O   UNL     1       2.707  12.124  17.844  0.00  0.00    +0.000 OA
BRANCH   7  10
ATOM     10  C   UNL     1       3.040  14.616  19.345  0.00  0.00    +0.000 A 
ATOM     11  C   UNL     1       4.153  14.609  20.199  0.00  0.00    +0.000 A 
ATOM     12  C   UNL     1       5.159  15.551  20.048  0.00  0.00    +0.000 A 
ATOM     13  C   UNL     1       5.048  16.531  19.061  0.00  0.00    +0.000 A 
ATOM     14  C   UNL     1       3.935  16.558  18.224  0.00  0.00    +0.000 A 
ATOM     15  C   UNL     1       2.935  15.594  18.356  0.00  0.00    +0.000 A 
ENDBRANCH   7  10
ENDBRANCH   1   2
BRANCH   1  16
ATOM     16  C   UNL     1       1.158   9.137  19.185  0.00  0.00    +0.000 A 
ATOM     17  C   UNL     1       1.096   8.382  20.307  0.00  0.00    +0.000 A 
ATOM     18  C   UNL     1       0.472   8.708  21.631  0.00  0.00    +0.000 C 
ATOM     19  N   UNL     1       1.726   7.145  20.138  0.00  0.00    +0.000 N 
ATOM     20  C   UNL     1       2.221   6.283  21.205  0.00  0.00    +0.000 C 
ATOM     21  N   UNL     1       2.498   7.237  18.972  0.00  0.00    +0.000 N 
ATOM     22  C   UNL     1       2.143   8.420  18.310  0.00  0.00    +0.000 A 
ATOM     23  O   UNL     1       2.507   8.834  17.219  0.00  0.00    +0.000 OA
BRANCH  21  24
ATOM     24  C   UNL     1       2.950   6.097  18.280  0.00  0.00    +0.000 A 
ATOM     25  C   UNL     1       2.029   5.087  17.985  0.00  0.00    +0.000 A 
ATOM     26  C   UNL     1       2.425   3.953  17.276  0.00  0.00    +0.000 A 
ATOM     27  C   UNL     1       3.756   3.805  16.889  0.00  0.00    +0.000 A 
ATOM     28  C   UNL     1       4.686   4.800  17.193  0.00  0.00    +0.000 A 
ATOM     29  C   UNL     1       4.281   5.954  17.870  0.00  0.00    +0.000 A 
ENDBRANCH  21  24
ENDBRANCH   1  16
BRANCH   1  30
ATOM     30  C   UNL     1      -1.086  10.186  18.640  0.00  0.00    +0.000 C 
BRANCH  30  31
ATOM     31  C   UNL     1      -1.850  11.018  17.608  0.00  0.00    +0.000 C 
BRANCH  31  32
ATOM     32  C   UNL     1      -2.522  10.111  16.560  0.00  0.00    +0.000 C 
BRANCH  32  33
ATOM     33  C   UNL     1      -3.836  10.725  16.074  0.00  0.00    +0.000 C 
BRANCH  33  35
ATOM     34  C   UNL     1      -5.590  11.036  17.848  0.00  0.00    +0.000 C 
ATOM     35  C   UNL     1      -4.444  11.693  17.089  0.00  0.00    +0.000 C 
ENDBRANCH  33  35
ENDBRANCH  32  33
ENDBRANCH  31  32
ENDBRANCH  30  31
ENDBRANCH   1  30
TORSDOF 9
ENDMDL
MODEL 4
REMARK VINA RESULT:      -7.0      0.850      1.388
REMARK  Name = 
REMARK  14 active torsions:
REMARK  status: ('A' for Active; 'I' for Inactive)
REMARK    1  A    between atoms: C_1  and  C_2
REMARK    2  A    between atoms: C_2  and  C_3
REMARK    3  A    between atoms: C_3  and  C_4
REMARK    4  A    between atoms: C_4  and  C_5
REMARK    5  A    between atoms: C_5  and  C_6
REMARK    6  A    between atoms: C_6  and  C_7
REMARK    7  A    between atoms: C_7  and  C_8
REMARK    8  A    between atoms: C_7  and  C_22
REMARK    9  A    between atoms: C_9  and  C_10
REMARK   10  A    between atoms: N_11  and  C_12
REMARK   11  A    between atoms: N_13  and  C_14
REMARK   12  A    between atoms: C_23  and  C_24
REMARK   13  A    between atoms: N_25  and  C_26
REMARK   14  A    between atoms: N_27  and  C_28
REMARK                            x       y       z     vdW  Elec       q    Type
REMARK                         _______ _______ _______ _____ _____    ______ ____
ROOT
ATOM      1  C   UNL     1       0.465  10.296  18.535  0.00  0.00    +0.000 C 
ENDROOT
BRANCH   1   2
ATOM      2  C   UNL     1       0.854  11.549  19.266  0.00  0.00    +0.000 A 
ATOM      3  C   UNL     1       0.403  12.190  20.379  0.00  0.00    +0.000 A 
ATOM      4  C   UNL     1      -0.728  11.779  21.270  0.00  0.00    +0.000 C 
ATOM      5  N   UNL     1       1.115  13.366  20.641  0.00  0.00    +0.000 N 
ATOM      6  C   UNL     1       0.558  14.537  21.317  0.00  0.00    +0.000 C 
ATOM      7  N   UNL     1       1.908  13.582  19.505  0.00  0.00    +0.000 N 
ATOM      8  C   UNL     1       1.925  12.437  18.735  0.00  0.00    +0.000 A 
ATOM      9  O   UNL     1       2.672  12.136  17.820  0.00  0.00    +0.000 OA
BRANCH   7  10
ATOM     10  C   UNL     1       2.863  14.607  19.379  0.00  0.00    +0.000 A 
ATOM     11  C   UNL     1       2.659  15.593  18.401  0.00  0.00    +0.000 A 
ATOM     12  C   UNL     1       3.566  16.632  18.255  0.00  0.00    +0.000 A 
ATOM     13  C   UNL     1       4.702  16.679  19.062  0.00  0.00    +0.000 A 
ATOM     14  C   UNL     1       4.922  15.692  20.018  0.00  0.00    +0.000 A 
ATOM     15  C   UNL     1       3.998  14.661  20.187  0.00  0.00    +0.000 A 
ENDBRANCH   7  10
ENDBRANCH   1   2
BRANCH   1  16
ATOM     16  C   UNL     1       1.153   9.059  19.086  0.00  0.00    +0.000 A 
ATOM     17  C   UNL     1       1.016   8.277  20.182  0.00  0.00    +0.000 A 
ATOM     18  C   UNL     1       0.270   8.554  21.452  0.00  0.00    +0.000 C 
ATOM     19  N   UNL     1       1.695   7.062  20.043  0.00  0.00    +0.000 N 
ATOM     20  C   UNL     1       2.121   6.190  21.131  0.00  0.00    +0.000 C 
ATOM     21  N   UNL     1       2.562   7.203  18.952  0.00  0.00    +0.000 N 
ATOM     22  C   UNL     1       2.231   8.390  18.285  0.00  0.00    +0.000 A 
ATOM     23  O   UNL     1       2.676   8.839  17.239  0.00  0.00    +0.000 OA
BRANCH  21  24
ATOM     24  C   UNL     1       3.107   6.092  18.278  0.00  0.00    +0.000 A 
ATOM     25  C   UNL     1       2.258   5.031  17.947  0.00  0.00    +0.000 A 
ATOM     26  C   UNL     1       2.747   3.924  17.254  0.00  0.00    +0.000 A 
ATOM     27  C   UNL     1       4.098   3.853  16.921  0.00  0.00    +0.000 A 
ATOM     28  C   UNL     1       4.957   4.900  17.261  0.00  0.00    +0.000 A 
ATOM     29  C   UNL     1       4.459   6.027  17.921  0.00  0.00    +0.000 A 
ENDBRANCH  21  24
ENDBRANCH   1  16
BRANCH   1  30
ATOM     30  C   UNL     1      -1.071  10.071  18.406  0.00  0.00    +0.000 C 
BRANCH  30  31
ATOM     31  C   UNL     1      -1.833  11.103  17.572  0.00  0.00    +0.000 C 
BRANCH  31  32
ATOM     32  C   UNL     1      -3.127  11.539  18.285  0.00  0.00    +0.000 C 
BRANCH  32  33
ATOM     33  C   UNL     1      -4.258  10.548  18.010  0.00  0.00    +0.000 C 
BRANCH  33  35
ATOM     34  C   UNL     1      -5.778  12.434  17.338  0.00  0.00    +0.000 C 
ATOM     35  C   UNL     1      -5.643  11.174  18.182  0.00  0.00    +0.000 C 
ENDBRANCH  33  35
ENDBRANCH  32  33
ENDBRANCH  31  32
ENDBRANCH  30  31
ENDBRANCH   1  30
TORSDOF 9
ENDMDL
MODEL 5
REMARK VINA RESULT:      -6.7      1.890      3.357
REMARK  Name = 
REMARK  14 active torsions:
REMARK  status: ('A' for Active; 'I' for Inactive)
REMARK    1  A    between atoms: C_1  and  C_2
REMARK    2  A    between atoms: C_2  and  C_3
REMARK    3  A    between atoms: C_3  and  C_4
REMARK    4  A    between atoms: C_4  and  C_5
REMARK    5  A    between atoms: C_5  and  C_6
REMARK    6  A    between atoms: C_6  and  C_7
REMARK    7  A    between atoms: C_7  and  C_8
REMARK    8  A    between atoms: C_7  and  C_22
REMARK    9  A    between atoms: C_9  and  C_10
REMARK   10  A    between atoms: N_11  and  C_12
REMARK   11  A    between atoms: N_13  and  C_14
REMARK   12  A    between atoms: C_23  and  C_24
REMARK   13  A    between atoms: N_25  and  C_26
REMARK   14  A    between atoms: N_27  and  C_28
REMARK                            x       y       z     vdW  Elec       q    Type
REMARK                         _______ _______ _______ _____ _____    ______ ____
ROOT
ATOM      1  C   UNL     1      -0.062  10.753  18.580  0.00  0.00    +0.000 C 
ENDROOT
BRANCH   1   2
ATOM      2  C   UNL     1       0.170  12.024  19.345  0.00  0.00    +0.000 A 
ATOM      3  C   UNL     1       1.176  12.939  19.405  0.00  0.00    +0.000 A 
ATOM      4  C   UNL     1       2.467  12.922  18.647  0.00  0.00    +0.000 C 
ATOM      5  N   UNL     1       0.906  13.968  20.314  0.00  0.00    +0.000 N 
ATOM      6  C   UNL     1       1.928  14.712  21.048  0.00  0.00    +0.000 C 
ATOM      7  N   UNL     1      -0.233  13.552  21.019  0.00  0.00    +0.000 N 
ATOM      8  C   UNL     1      -0.815  12.488  20.361  0.00  0.00    +0.000 A 
ATOM      9  O   UNL     1      -1.926  12.009  20.506  0.00  0.00    +0.000 OA
BRANCH   7  10
ATOM     10  C   UNL     1      -0.913  14.333  21.970  0.00  0.00    +0.000 A 
ATOM     11  C   UNL     1      -1.552  15.505  21.539  0.00  0.00    +0.000 A 
ATOM     12  C   UNL     1      -2.251  16.295  22.440  0.00  0.00    +0.000 A 
ATOM     13  C   UNL     1      -2.290  15.939  23.788  0.00  0.00    +0.000 A 
ATOM     14  C   UNL     1      -1.639  14.790  24.227  0.00  0.00    +0.000 A 
ATOM     15  C   UNL     1      -0.960  13.978  23.318  0.00  0.00    +0.000 A 
ENDBRANCH   7  10
ENDBRANCH   1   2
BRANCH   1  16
ATOM     16  C   UNL     1       0.740   9.585  19.129  0.00  0.00    +0.000 A 
ATOM     17  C   UNL     1       0.730   8.846  20.263  0.00  0.00    +0.000 A 
ATOM     18  C   UNL     1       0.058   9.135  21.572  0.00  0.00    +0.000 C 
ATOM     19  N   UNL     1       1.472   7.669  20.125  0.00  0.00    +0.000 N 
ATOM     20  C   UNL     1       2.027   6.874  21.214  0.00  0.00    +0.000 C 
ATOM     21  N   UNL     1       2.250   7.812  18.969  0.00  0.00    +0.000 N 
ATOM     22  C   UNL     1       1.799   8.946  18.281  0.00  0.00    +0.000 A 
ATOM     23  O   UNL     1       2.141   9.374  17.187  0.00  0.00    +0.000 OA
BRANCH  21  24
ATOM     24  C   UNL     1       2.815   6.707  18.303  0.00  0.00    +0.000 A 
ATOM     25  C   UNL     1       4.097   6.841  17.760  0.00  0.00    +0.000 A 
ATOM     26  C   UNL     1       4.708   5.765  17.117  0.00  0.00    +0.000 A 
ATOM     27  C   UNL     1       4.026   4.557  16.979  0.00  0.00    +0.000 A 
ATOM     28  C   UNL     1       2.739   4.419  17.504  0.00  0.00    +0.000 A 
ATOM     29  C   UNL     1       2.142   5.485  18.182  0.00  0.00    +0.000 A 
ENDBRANCH  21  24
ENDBRANCH   1  16
BRANCH   1  30
ATOM     30  C   UNL     1      -1.560  10.368  18.401  0.00  0.00    +0.000 C 
BRANCH  30  31
ATOM     31  C   UNL     1      -1.973   9.911  17.000  0.00  0.00    +0.000 C 
BRANCH  31  32
ATOM     32  C   UNL     1      -2.647  11.059  16.225  0.00  0.00    +0.000 C 
BRANCH  32  33
ATOM     33  C   UNL     1      -3.676  10.514  15.233  0.00  0.00    +0.000 C 
BRANCH  33  35
ATOM     34  C   UNL     1      -4.006   9.822  12.838  0.00  0.00    +0.000 C 
ATOM     35  C   UNL     1      -3.027   9.876  14.004  0.00  0.00    +0.000 C 
ENDBRANCH  33  35
ENDBRANCH  32  33
ENDBRANCH  31  32
ENDBRANCH  30  31
ENDBRANCH   1  30
TORSDOF 9
ENDMDL
MODEL 6
REMARK VINA RESULT:      -6.7      1.973      3.574
REMARK  Name = 
REMARK  14 active torsions:
REMARK  status: ('A' for Active; 'I' for Inactive)
REMARK    1  A    between atoms: C_1  and  C_2
REMARK    2  A    between atoms: C_2  and  C_3
REMARK    3  A    between atoms: C_3  and  C_4
REMARK    4  A    between atoms: C_4  and  C_5
REMARK    5  A    between atoms: C_5  and  C_6
REMARK    6  A    between atoms: C_6  and  C_7
REMARK    7  A    between atoms: C_7  and  C_8
REMARK    8  A    between atoms: C_7  and  C_22
REMARK    9  A    between atoms: C_9  and  C_10
REMARK   10  A    between atoms: N_11  and  C_12
REMARK   11  A    between atoms: N_13  and  C_14
REMARK   12  A    between atoms: C_23  and  C_24
REMARK   13  A    between atoms: N_25  and  C_26
REMARK   14  A    between atoms: N_27  and  C_28
REMARK                            x       y       z     vdW  Elec       q    Type
REMARK                         _______ _______ _______ _____ _____    ______ ____
ROOT
ATOM      1  C   UNL     1      -0.074  10.728  18.488  0.00  0.00    +0.000 C 
ENDROOT
BRANCH   1   2
ATOM      2  C   UNL     1       0.135  12.016  19.231  0.00  0.00    +0.000 A 
ATOM      3  C   UNL     1       1.111  12.964  19.254  0.00  0.00    +0.000 A 
ATOM      4  C   UNL     1       2.383  12.979  18.464  0.00  0.00    +0.000 C 
ATOM      5  N   UNL     1       0.830  13.995  20.157  0.00  0.00    +0.000 N 
ATOM      6  C   UNL     1       1.846  14.782  20.856  0.00  0.00    +0.000 C 
ATOM      7  N   UNL     1      -0.276  13.552  20.897  0.00  0.00    +0.000 N 
ATOM      8  C   UNL     1      -0.839  12.461  20.266  0.00  0.00    +0.000 A 
ATOM      9  O   UNL     1      -1.930  11.947  20.445  0.00  0.00    +0.000 OA
BRANCH   7  10
ATOM     10  C   UNL     1      -0.958  14.322  21.855  0.00  0.00    +0.000 A 
ATOM     11  C   UNL     1      -0.927  13.903  23.194  0.00  0.00    +0.000 A 
ATOM     12  C   UNL     1      -1.570  14.643  24.175  0.00  0.00    +0.000 A 
ATOM     13  C   UNL     1      -2.279  15.792  23.824  0.00  0.00    +0.000 A 
ATOM     14  C   UNL     1      -2.334  16.200  22.494  0.00  0.00    +0.000 A 
ATOM     15  C   UNL     1      -1.664  15.474  21.509  0.00  0.00    +0.000 A 
ENDBRANCH   7  10
ENDBRANCH   1   2
BRANCH   1  16
ATOM     16  C   UNL     1       0.732   9.579  19.071  0.00  0.00    +0.000 A 
ATOM     17  C   UNL     1       0.714   8.863  20.219  0.00  0.00    +0.000 A 
ATOM     18  C   UNL     1       0.024   9.172  21.514  0.00  0.00    +0.000 C 
ATOM     19  N   UNL     1       1.469   7.691  20.114  0.00  0.00    +0.000 N 
ATOM     20  C   UNL     1       2.017   6.923  21.226  0.00  0.00    +0.000 C 
ATOM     21  N   UNL     1       2.260   7.818  18.965  0.00  0.00    +0.000 N 
ATOM     22  C   UNL     1       1.807   8.933  18.248  0.00  0.00    +0.000 A 
ATOM     23  O   UNL     1       2.159   9.342  17.151  0.00  0.00    +0.000 OA
BRANCH  21  24
ATOM     24  C   UNL     1       2.844   6.705  18.328  0.00  0.00    +0.000 A 
ATOM     25  C   UNL     1       4.151   6.824  17.845  0.00  0.00    +0.000 A 
ATOM     26  C   UNL     1       4.780   5.739  17.233  0.00  0.00    +0.000 A 
ATOM     27  C   UNL     1       4.091   4.539  17.067  0.00  0.00    +0.000 A 
ATOM     28  C   UNL     1       2.781   4.416  17.532  0.00  0.00    +0.000 A 
ATOM     29  C   UNL     1       2.164   5.490  18.179  0.00  0.00    +0.000 A 
ENDBRANCH  21  24
ENDBRANCH   1  16
BRANCH   1  30
ATOM     30  C   UNL     1      -1.566  10.324  18.296  0.00  0.00    +0.000 C 
BRANCH  30  31
ATOM     31  C   UNL     1      -1.960   9.857  16.893  0.00  0.00    +0.000 C 
BRANCH  31  32
ATOM     32  C   UNL     1      -3.384  10.325  16.539  0.00  0.00    +0.000 C 
BRANCH  32  33
ATOM     33  C   UNL     1      -3.877  11.370  17.541  0.00  0.00    +0.000 C 
BRANCH  33  35
ATOM     34  C   UNL     1      -6.290  11.116  18.199  0.00  0.00    +0.000 C 
ATOM     35  C   UNL     1      -5.313  11.817  17.265  0.00  0.00    +0.000 C 
ENDBRANCH  33  35
ENDBRANCH  32  33
ENDBRANCH  31  32
ENDBRANCH  30  31
ENDBRANCH   1  30
TORSDOF 9
ENDMDL
MODEL 7
REMARK VINA RESULT:      -6.6      1.610      2.062
REMARK  Name = 
REMARK  14 active torsions:
REMARK  status: ('A' for Active; 'I' for Inactive)
REMARK    1  A    between atoms: C_1  and  C_2
REMARK    2  A    between atoms: C_2  and  C_3
REMARK    3  A    between atoms: C_3  and  C_4
REMARK    4  A    between atoms: C_4  and  C_5
REMARK    5  A    between atoms: C_5  and  C_6
REMARK    6  A    between atoms: C_6  and  C_7
REMARK    7  A    between atoms: C_7  and  C_8
REMARK    8  A    between atoms: C_7  and  C_22
REMARK    9  A    between atoms: C_9  and  C_10
REMARK   10  A    between atoms: N_11  and  C_12
REMARK   11  A    between atoms: N_13  and  C_14
REMARK   12  A    between atoms: C_23  and  C_24
REMARK   13  A    between atoms: N_25  and  C_26
REMARK   14  A    between atoms: N_27  and  C_28
REMARK                            x       y       z     vdW  Elec       q    Type
REMARK                         _______ _______ _______ _____ _____    ______ ____
ROOT
ATOM      1  C   UNL     1      -0.323  10.820  18.347  0.00  0.00    +0.000 C 
ENDROOT
BRANCH   1   2
ATOM      2  C   UNL     1      -0.286  12.118  19.100  0.00  0.00    +0.000 A 
ATOM      3  C   UNL     1      -1.155  12.784  19.910  0.00  0.00    +0.000 A 
ATOM      4  C   UNL     1      -2.534  12.358  20.310  0.00  0.00    +0.000 C 
ATOM      5  N   UNL     1      -0.634  14.001  20.362  0.00  0.00    +0.000 N 
ATOM      6  C   UNL     1      -1.442  15.173  20.699  0.00  0.00    +0.000 C 
ATOM      7  N   UNL     1       0.535  14.207  19.615  0.00  0.00    +0.000 N 
ATOM      8  C   UNL     1       0.883  13.033  18.979  0.00  0.00    +0.000 A 
ATOM      9  O   UNL     1       1.937  12.729  18.447  0.00  0.00    +0.000 OA
BRANCH   7  10
ATOM     10  C   UNL     1       1.435  15.269  19.814  0.00  0.00    +0.000 A 
ATOM     11  C   UNL     1       1.515  16.269  18.833  0.00  0.00    +0.000 A 
ATOM     12  C   UNL     1       2.375  17.345  18.998  0.00  0.00    +0.000 A 
ATOM     13  C   UNL     1       3.188  17.415  20.128  0.00  0.00    +0.000 A 
ATOM     14  C   UNL     1       3.131  16.415  21.095  0.00  0.00    +0.000 A 
ATOM     15  C   UNL     1       2.246  15.346  20.945  0.00  0.00    +0.000 A 
ENDBRANCH   7  10
ENDBRANCH   1   2
BRANCH   1  16
ATOM     16  C   UNL     1       0.534   9.745  18.992  0.00  0.00    +0.000 A 
ATOM     17  C   UNL     1       0.559   9.107  20.186  0.00  0.00    +0.000 A 
ATOM     18  C   UNL     1      -0.126   9.475  21.468  0.00  0.00    +0.000 C 
ATOM     19  N   UNL     1       1.357   7.960  20.147  0.00  0.00    +0.000 N 
ATOM     20  C   UNL     1       1.950   7.290  21.299  0.00  0.00    +0.000 C 
ATOM     21  N   UNL     1       2.128   8.040  18.980  0.00  0.00    +0.000 N 
ATOM     22  C   UNL     1       1.623   9.087  18.198  0.00  0.00    +0.000 A 
ATOM     23  O   UNL     1       1.944   9.434  17.071  0.00  0.00    +0.000 OA
BRANCH  21  24
ATOM     24  C   UNL     1       2.747   6.910  18.410  0.00  0.00    +0.000 A 
ATOM     25  C   UNL     1       2.014   5.721  18.325  0.00  0.00    +0.000 A 
ATOM     26  C   UNL     1       2.576   4.585  17.743  0.00  0.00    +0.000 A 
ATOM     27  C   UNL     1       3.888   4.619  17.275  0.00  0.00    +0.000 A 
ATOM     28  C   UNL     1       4.633   5.797  17.370  0.00  0.00    +0.000 A 
ATOM     29  C   UNL     1       4.057   6.946  17.919  0.00  0.00    +0.000 A 
ENDBRANCH  21  24
ENDBRANCH   1  16
BRANCH   1  30
ATOM     30  C   UNL     1      -1.755  10.287  18.044  0.00  0.00    +0.000 C 
BRANCH  30  31
ATOM     31  C   UNL     1      -2.265  10.504  16.618  0.00  0.00    +0.000 C 
BRANCH  31  32
ATOM     32  C   UNL     1      -3.682  11.107  16.627  0.00  0.00    +0.000 C 
BRANCH  32  33
ATOM     33  C   UNL     1      -4.473  10.617  17.841  0.00  0.00    +0.000 C 
BRANCH  33  35
ATOM     34  C   UNL     1      -5.930  12.558  17.186  0.00  0.00    +0.000 C 
ATOM     35  C   UNL     1      -5.877  11.219  17.911  0.00  0.00    +0.000 C 
ENDBRANCH  33  35
ENDBRANCH  32  33
ENDBRANCH  31  32
ENDBRANCH  30  31
ENDBRANCH   1  30
TORSDOF 9
ENDMDL
MODEL 8
REMARK VINA RESULT:      -6.4      3.755      7.040
REMARK  Name = 
REMARK  14 active torsions:
REMARK  status: ('A' for Active; 'I' for Inactive)
REMARK    1  A    between atoms: C_1  and  C_2
REMARK    2  A    between atoms: C_2  and  C_3
REMARK    3  A    between atoms: C_3  and  C_4
REMARK    4  A    between atoms: C_4  and  C_5
REMARK    5  A    between atoms: C_5  and  C_6
REMARK    6  A    between atoms: C_6  and  C_7
REMARK    7  A    between atoms: C_7  and  C_8
REMARK    8  A    between atoms: C_7  and  C_22
REMARK    9  A    between atoms: C_9  and  C_10
REMARK   10  A    between atoms: N_11  and  C_12
REMARK   11  A    between atoms: N_13  and  C_14
REMARK   12  A    between atoms: C_23  and  C_24
REMARK   13  A    between atoms: N_25  and  C_26
REMARK   14  A    between atoms: N_27  and  C_28
REMARK                            x       y       z     vdW  Elec       q    Type
REMARK                         _______ _______ _______ _____ _____    ______ ____
ROOT
ATOM      1  C   UNL     1       4.284  15.263  18.217  0.00  0.00    +0.000 C 
ENDROOT
BRANCH   1   2
ATOM      2  C   UNL     1       5.669  15.122  18.779  0.00  0.00    +0.000 A 
ATOM      3  C   UNL     1       6.380  15.755  19.752  0.00  0.00    +0.000 A 
ATOM      4  C   UNL     1       5.927  16.892  20.615  0.00  0.00    +0.000 C 
ATOM      5  N   UNL     1       7.676  15.243  19.883  0.00  0.00    +0.000 N 
ATOM      6  C   UNL     1       8.829  16.018  20.338  0.00  0.00    +0.000 C 
ATOM      7  N   UNL     1       7.853  14.392  18.783  0.00  0.00    +0.000 N 
ATOM      8  C   UNL     1       6.630  14.145  18.194  0.00  0.00    +0.000 A 
ATOM      9  O   UNL     1       6.325  13.285  17.386  0.00  0.00    +0.000 OA
BRANCH   7  10
ATOM     10  C   UNL     1       8.985  13.585  18.570  0.00  0.00    +0.000 A 
ATOM     11  C   UNL     1       9.874  13.938  17.544  0.00  0.00    +0.000 A 
ATOM     12  C   UNL     1      11.013  13.181  17.312  0.00  0.00    +0.000 A 
ATOM     13  C   UNL     1      11.258  12.044  18.082  0.00  0.00    +0.000 A 
ATOM     14  C   UNL     1      10.368  11.674  19.087  0.00  0.00    +0.000 A 
ATOM     15  C   UNL     1       9.237  12.450  19.341  0.00  0.00    +0.000 A 
ENDBRANCH   7  10
ENDBRANCH   1   2
BRANCH   1  16
ATOM     16  C   UNL     1       3.226  14.624  19.100  0.00  0.00    +0.000 A 
ATOM     17  C   UNL     1       2.553  14.975  20.220  0.00  0.00    +0.000 A 
ATOM     18  C   UNL     1       2.851  16.073  21.196  0.00  0.00    +0.000 C 
ATOM     19  N   UNL     1       1.443  14.153  20.439  0.00  0.00    +0.000 N 
ATOM     20  C   UNL     1       0.762  13.955  21.714  0.00  0.00    +0.000 C 
ATOM     21  N   UNL     1       1.592  13.036  19.607  0.00  0.00    +0.000 N 
ATOM     22  C   UNL     1       2.641  13.297  18.716  0.00  0.00    +0.000 A 
ATOM     23  O   UNL     1       3.037  12.629  17.771  0.00  0.00    +0.000 OA
BRANCH  21  24
ATOM     24  C   UNL     1       0.508  12.204  19.266  0.00  0.00    +0.000 A 
ATOM     25  C   UNL     1      -0.499  12.724  18.447  0.00  0.00    +0.000 A 
ATOM     26  C   UNL     1      -1.577  11.928  18.060  0.00  0.00    +0.000 A 
ATOM     27  C   UNL     1      -1.674  10.616  18.520  0.00  0.00    +0.000 A 
ATOM     28  C   UNL     1      -0.681  10.093  19.351  0.00  0.00    +0.000 A 
ATOM     29  C   UNL     1       0.418  10.878  19.708  0.00  0.00    +0.000 A 
ENDBRANCH  21  24
ENDBRANCH   1  16
BRANCH   1  30
ATOM     30  C   UNL     1       3.886  16.719  17.832  0.00  0.00    +0.000 C 
BRANCH  30  31
ATOM     31  C   UNL     1       2.704  16.860  16.871  0.00  0.00    +0.000 C 
BRANCH  31  32
ATOM     32  C   UNL     1       1.820  18.059  17.261  0.00  0.00    +0.000 C 
BRANCH  32  33
ATOM     33  C   UNL     1       0.976  17.733  18.494  0.00  0.00    +0.000 C 
BRANCH  33  35
ATOM     34  C   UNL     1      -1.008  16.503  19.428  0.00  0.00    +0.000 C 
ATOM     35  C   UNL     1      -0.173  16.773  18.183  0.00  0.00    +0.000 C 
ENDBRANCH  33  35
ENDBRANCH  32  33
ENDBRANCH  31  32
ENDBRANCH  30  31
ENDBRANCH   1  30
TORSDOF 9
ENDMDL
MODEL 9
REMARK VINA RESULT:      -6.4      1.626      2.078
REMARK  Name = 
REMARK  14 active torsions:
REMARK  status: ('A' for Active; 'I' for Inactive)
REMARK    1  A    between atoms: C_1  and  C_2
REMARK    2  A    between atoms: C_2  and  C_3
REMARK    3  A    between atoms: C_3  and  C_4
REMARK    4  A    between atoms: C_4  and  C_5
REMARK    5  A    between atoms: C_5  and  C_6
REMARK    6  A    between atoms: C_6  and  C_7
REMARK    7  A    between atoms: C_7  and  C_8
REMARK    8  A    between atoms: C_7  and  C_22
REMARK    9  A    between atoms: C_9  and  C_10
REMARK   10  A    between atoms: N_11  and  C_12
REMARK   11  A    between atoms: N_13  and  C_14
REMARK   12  A    between atoms: C_23  and  C_24
REMARK   13  A    between atoms: N_25  and  C_26
REMARK   14  A    between atoms: N_27  and  C_28
REMARK                            x       y       z     vdW  Elec       q    Type
REMARK                         _______ _______ _______ _____ _____    ______ ____
ROOT
ATOM      1  C   UNL     1      -0.284  10.986  18.266  0.00  0.00    +0.000 C 
ENDROOT
BRANCH   1   2
ATOM      2  C   UNL     1      -0.330  12.255  19.066  0.00  0.00    +0.000 A 
ATOM      3  C   UNL     1      -1.241  12.836  19.894  0.00  0.00    +0.000 A 
ATOM      4  C   UNL     1      -2.594  12.313  20.268  0.00  0.00    +0.000 C 
ATOM      5  N   UNL     1      -0.798  14.065  20.395  0.00  0.00    +0.000 N 
ATOM      6  C   UNL     1      -1.677  15.172  20.769  0.00  0.00    +0.000 C 
ATOM      7  N   UNL     1       0.361  14.369  19.665  0.00  0.00    +0.000 N 
ATOM      8  C   UNL     1       0.783  13.242  18.988  0.00  0.00    +0.000 A 
ATOM      9  O   UNL     1       1.856  13.023  18.453  0.00  0.00    +0.000 OA
BRANCH   7  10
ATOM     10  C   UNL     1       1.193  15.475  19.910  0.00  0.00    +0.000 A 
ATOM     11  C   UNL     1       1.221  16.512  18.965  0.00  0.00    +0.000 A 
ATOM     12  C   UNL     1       2.014  17.631  19.175  0.00  0.00    +0.000 A 
ATOM     13  C   UNL     1       2.812  17.710  20.316  0.00  0.00    +0.000 A 
ATOM     14  C   UNL     1       2.807  16.674  21.247  0.00  0.00    +0.000 A 
ATOM     15  C   UNL     1       1.989  15.561  21.051  0.00  0.00    +0.000 A 
ENDBRANCH   7  10
ENDBRANCH   1   2
BRANCH   1  16
ATOM     16  C   UNL     1       0.540   9.900  18.937  0.00  0.00    +0.000 A 
ATOM     17  C   UNL     1       0.515   9.256  20.127  0.00  0.00    +0.000 A 
ATOM     18  C   UNL     1      -0.214   9.624  21.384  0.00  0.00    +0.000 C 
ATOM     19  N   UNL     1       1.305   8.102  20.112  0.00  0.00    +0.000 N 
ATOM     20  C   UNL     1       1.849   7.422  21.281  0.00  0.00    +0.000 C 
ATOM     21  N   UNL     1       2.119   8.181  18.974  0.00  0.00    +0.000 N 
ATOM     22  C   UNL     1       1.652   9.237  18.180  0.00  0.00    +0.000 A 
ATOM     23  O   UNL     1       2.017   9.587  17.067  0.00  0.00    +0.000 OA
BRANCH  21  24
ATOM     24  C   UNL     1       2.749   7.049  18.422  0.00  0.00    +0.000 A 
ATOM     25  C   UNL     1       2.048   5.839  18.406  0.00  0.00    +0.000 A 
ATOM     26  C   UNL     1       2.621   4.698  17.843  0.00  0.00    +0.000 A 
ATOM     27  C   UNL     1       3.914   4.751  17.326  0.00  0.00    +0.000 A 
ATOM     28  C   UNL     1       4.627   5.951  17.352  0.00  0.00    +0.000 A 
ATOM     29  C   UNL     1       4.039   7.103  17.881  0.00  0.00    +0.000 A 
ENDBRANCH  21  24
ENDBRANCH   1  16
BRANCH   1  30
ATOM     30  C   UNL     1      -1.678  10.443  17.831  0.00  0.00    +0.000 C 
BRANCH  30  31
ATOM     31  C   UNL     1      -2.299  11.099  16.597  0.00  0.00    +0.000 C 
BRANCH  31  32
ATOM     32  C   UNL     1      -3.301  10.148  15.915  0.00  0.00    +0.000 C 
BRANCH  32  33
ATOM     33  C   UNL     1      -3.057  10.093  14.407  0.00  0.00    +0.000 C 
BRANCH  33  35
ATOM     34  C   UNL     1      -4.080   9.851  12.123  0.00  0.00    +0.000 C 
ATOM     35  C   UNL     1      -4.311   9.708  13.622  0.00  0.00    +0.000 C 
ENDBRANCH  33  35
ENDBRANCH  32  33
ENDBRANCH  31  32
ENDBRANCH  30  31
ENDBRANCH   1  30
TORSDOF 9
ENDMDL
