MODEL 1
REMARK VINA RESULT:      -4.7      0.000      0.000
REMARK  Name = 
REMARK  5 active torsions:
REMARK  status: ('A' for Active; 'I' for Inactive)
REMARK    1  A    between atoms: C_1  and  S_2
REMARK    2  A    between atoms: S_2  and  C_3
REMARK    3  A    between atoms: C_4  and  N_5
REMARK    4  A    between atoms: C_7  and  O_8
REMARK    5  A    between atoms: C_9  and  O_10
REMARK                            x       y       z     vdW  Elec       q    Type
REMARK                         _______ _______ _______ _____ _____    ______ ____
ROOT
ATOM      1  C   UNL     1       3.275   3.559  19.590  0.00  0.00    +0.000 C 
ATOM      2  C   UNL     1       2.584   2.713  18.489  0.00  0.00    +0.000 C 
ATOM      3  C   UNL     1       1.076   2.754  18.792  0.00  0.00    +0.000 C 
ATOM      4  C   UNL     1       0.925   3.644  20.020  0.00  0.00    +0.000 C 
ATOM      5  C   UNL     1       2.173   4.537  20.020  0.00  0.00    +0.000 C 
ENDROOT
BRANCH   2   6
ATOM      6  N   UNL     1       3.082   1.337  18.405  0.00  0.00    +0.000 NA
ATOM      7  H   UNL     1       2.553   0.720  19.019  0.00  0.00    +0.000 HD
ATOM      8  H   UNL     1       4.039   1.320  18.768  0.00  0.00    +0.000 HD
ENDBRANCH   2   6
BRANCH   1  10
ATOM      9  C   UNL     1       4.105   5.201  17.494  0.00  0.00    +0.000 C 
ATOM     10  S   UNL     1       4.798   4.339  18.927  0.00  0.00    +0.000 S 
ENDBRANCH   1  10
BRANCH   4  11
ATOM     11  O   UNL     1       0.924   2.877  21.234  0.00  0.00    +0.000 OA
ATOM     12  H   UNL     1       1.805   2.928  21.644  0.00  0.00    +0.000 HD
ENDBRANCH   4  11
BRANCH   5  13
ATOM     13  O   UNL     1       2.392   5.060  21.328  0.00  0.00    +0.000 OA
ATOM     14  H   UNL     1       3.118   5.710  21.233  0.00  0.00    +0.000 HD
ENDBRANCH   5  13
TORSDOF 4
ENDMDL
MODEL 2
REMARK VINA RESULT:      -4.6      2.922      3.978
REMARK  Name = 
REMARK  5 active torsions:
REMARK  status: ('A' for Active; 'I' for Inactive)
REMARK    1  A    between atoms: C_1  and  S_2
REMARK    2  A    between atoms: S_2  and  C_3
REMARK    3  A    between atoms: C_4  and  N_5
REMARK    4  A    between atoms: C_7  and  O_8
REMARK    5  A    between atoms: C_9  and  O_10
REMARK                            x       y       z     vdW  Elec       q    Type
REMARK                         _______ _______ _______ _____ _____    ______ ____
ROOT
ATOM      1  C   UNL     1       3.243   3.749  20.073  0.00  0.00    +0.000 C 
ATOM      2  C   UNL     1       2.874   5.032  19.285  0.00  0.00    +0.000 C 
ATOM      3  C   UNL     1       4.012   5.265  18.275  0.00  0.00    +0.000 C 
ATOM      4  C   UNL     1       4.980   4.104  18.471  0.00  0.00    +0.000 C 
ATOM      5  C   UNL     1       4.137   2.982  19.090  0.00  0.00    +0.000 C 
ENDROOT
BRANCH   2   6
ATOM      6  N   UNL     1       2.659   6.205  20.138  0.00  0.00    +0.000 NA
ATOM      7  H   UNL     1       1.746   6.620  19.963  0.00  0.00    +0.000 HD
ATOM      8  H   UNL     1       3.336   6.924  19.871  0.00  0.00    +0.000 HD
ENDBRANCH   2   6
BRANCH   1  10
ATOM      9  C   UNL     1       0.963   2.572  18.981  0.00  0.00    +0.000 C 
ATOM     10  S   UNL     1       1.721   2.868  20.598  0.00  0.00    +0.000 S 
ENDBRANCH   1  10
BRANCH   4  11
ATOM     11  O   UNL     1       6.029   4.437  19.393  0.00  0.00    +0.000 OA
ATOM     12  H   UNL     1       5.739   5.182  19.951  0.00  0.00    +0.000 HD
ENDBRANCH   4  11
BRANCH   5  13
ATOM     13  O   UNL     1       4.988   2.046  19.747  0.00  0.00    +0.000 OA
ATOM     14  H   UNL     1       4.589   1.903  20.629  0.00  0.00    +0.000 HD
ENDBRANCH   5  13
TORSDOF 4
ENDMDL
MODEL 3
REMARK VINA RESULT:      -4.6      3.034      4.165
REMARK  Name = 
REMARK  5 active torsions:
REMARK  status: ('A' for Active; 'I' for Inactive)
REMARK    1  A    between atoms: C_1  and  S_2
REMARK    2  A    between atoms: S_2  and  C_3
REMARK    3  A    between atoms: C_4  and  N_5
REMARK    4  A    between atoms: C_7  and  O_8
REMARK    5  A    between atoms: C_9  and  O_10
REMARK                            x       y       z     vdW  Elec       q    Type
REMARK                         _______ _______ _______ _____ _____    ______ ____
ROOT
ATOM      1  C   UNL     1       2.951   3.477  19.325  0.00  0.00    +0.000 C 
ATOM      2  C   UNL     1       2.925   4.988  18.976  0.00  0.00    +0.000 C 
ATOM      3  C   UNL     1       4.033   5.213  17.932  0.00  0.00    +0.000 C 
ATOM      4  C   UNL     1       4.641   3.839  17.674  0.00  0.00    +0.000 C 
ATOM      5  C   UNL     1       3.545   2.839  18.061  0.00  0.00    +0.000 C 
ENDROOT
BRANCH   2   6
ATOM      6  N   UNL     1       3.092   5.863  20.140  0.00  0.00    +0.000 NA
ATOM      7  H   UNL     1       2.190   6.196  20.477  0.00  0.00    +0.000 HD
ATOM      8  H   UNL     1       3.593   6.703  19.840  0.00  0.00    +0.000 HD
ENDBRANCH   2   6
BRANCH   1  10
ATOM      9  C   UNL     1       1.475   2.717  21.566  0.00  0.00    +0.000 C 
ATOM     10  S   UNL     1       1.269   2.902  19.776  0.00  0.00    +0.000 S 
ENDBRANCH   1  10
BRANCH   4  11
ATOM     11  O   UNL     1       5.783   3.598  18.510  0.00  0.00    +0.000 OA
ATOM     12  H   UNL     1       6.365   4.378  18.488  0.00  0.00    +0.000 HD
ENDBRANCH   4  11
BRANCH   5  13
ATOM     13  O   UNL     1       4.125   1.563  18.319  0.00  0.00    +0.000 OA
ATOM     14  H   UNL     1       3.595   1.175  19.046  0.00  0.00    +0.000 HD
ENDBRANCH   5  13
TORSDOF 4
ENDMDL
MODEL 4
REMARK VINA RESULT:      -4.6      2.764      3.550
REMARK  Name = 
REMARK  5 active torsions:
REMARK  status: ('A' for Active; 'I' for Inactive)
REMARK    1  A    between atoms: C_1  and  S_2
REMARK    2  A    between atoms: S_2  and  C_3
REMARK    3  A    between atoms: C_4  and  N_5
REMARK    4  A    between atoms: C_7  and  O_8
REMARK    5  A    between atoms: C_9  and  O_10
REMARK                            x       y       z     vdW  Elec       q    Type
REMARK                         _______ _______ _______ _____ _____    ______ ____
ROOT
ATOM      1  C   UNL     1       2.924   3.684  19.368  0.00  0.00    +0.000 C 
ATOM      2  C   UNL     1       1.798   3.229  18.405  0.00  0.00    +0.000 C 
ATOM      3  C   UNL     1       2.394   2.106  17.537  0.00  0.00    +0.000 C 
ATOM      4  C   UNL     1       3.820   1.911  18.038  0.00  0.00    +0.000 C 
ATOM      5  C   UNL     1       3.811   2.436  19.479  0.00  0.00    +0.000 C 
ENDROOT
BRANCH   2   6
ATOM      6  N   UNL     1       1.251   4.314  17.585  0.00  0.00    +0.000 NA
ATOM      7  H   UNL     1       1.043   5.132  18.155  0.00  0.00    +0.000 HD
ATOM      8  H   UNL     1       0.348   4.011  17.212  0.00  0.00    +0.000 HD
ENDBRANCH   2   6
BRANCH   1  10
ATOM      9  C   UNL     1       1.591   2.711  21.616  0.00  0.00    +0.000 C 
ATOM     10  S   UNL     1       2.206   4.278  20.948  0.00  0.00    +0.000 S 
ENDBRANCH   1  10
BRANCH   4  11
ATOM     11  O   UNL     1       4.759   2.692  17.283  0.00  0.00    +0.000 OA
ATOM     12  H   UNL     1       4.734   3.613  17.598  0.00  0.00    +0.000 HD
ENDBRANCH   4  11
BRANCH   5  13
ATOM     13  O   UNL     1       5.140   2.750  19.886  0.00  0.00    +0.000 OA
ATOM     14  H   UNL     1       5.334   2.152  20.638  0.00  0.00    +0.000 HD
ENDBRANCH   5  13
TORSDOF 4
ENDMDL
MODEL 5
REMARK VINA RESULT:      -4.6      2.609      2.822
REMARK  Name = 
REMARK  5 active torsions:
REMARK  status: ('A' for Active; 'I' for Inactive)
REMARK    1  A    between atoms: C_1  and  S_2
REMARK    2  A    between atoms: S_2  and  C_3
REMARK    3  A    between atoms: C_4  and  N_5
REMARK    4  A    between atoms: C_7  and  O_8
REMARK    5  A    between atoms: C_9  and  O_10
REMARK                            x       y       z     vdW  Elec       q    Type
REMARK                         _______ _______ _______ _____ _____    ______ ____
ROOT
ATOM      1  C   UNL     1       3.343   4.246  18.543  0.00  0.00    +0.000 C 
ATOM      2  C   UNL     1       1.887   3.715  18.583  0.00  0.00    +0.000 C 
ATOM      3  C   UNL     1       1.980   2.214  18.912  0.00  0.00    +0.000 C 
ATOM      4  C   UNL     1       3.465   1.923  19.092  0.00  0.00    +0.000 C 
ATOM      5  C   UNL     1       4.093   3.272  19.462  0.00  0.00    +0.000 C 
ENDROOT
BRANCH   2   6
ATOM      6  N   UNL     1       1.140   3.952  17.345  0.00  0.00    +0.000 NA
ATOM      7  H   UNL     1       1.288   3.197  16.679  0.00  0.00    +0.000 HD
ATOM      8  H   UNL     1       1.524   4.787  16.894  0.00  0.00    +0.000 HD
ENDBRANCH   2   6
BRANCH   1  10
ATOM      9  C   UNL     1       4.069   6.752  17.558  0.00  0.00    +0.000 C 
ATOM     10  S   UNL     1       3.390   6.005  19.061  0.00  0.00    +0.000 S 
ENDBRANCH   1  10
BRANCH   4  11
ATOM     11  O   UNL     1       4.069   1.467  17.872  0.00  0.00    +0.000 OA
ATOM     12  H   UNL     1       4.563   2.202  17.467  0.00  0.00    +0.000 HD
ENDBRANCH   4  11
BRANCH   5  13
ATOM     13  O   UNL     1       5.493   3.242  19.194  0.00  0.00    +0.000 OA
ATOM     14  H   UNL     1       5.904   2.835  19.984  0.00  0.00    +0.000 HD
ENDBRANCH   5  13
TORSDOF 4
ENDMDL
MODEL 6
REMARK VINA RESULT:      -4.6      3.134      4.248
REMARK  Name = 
REMARK  5 active torsions:
REMARK  status: ('A' for Active; 'I' for Inactive)
REMARK    1  A    between atoms: C_1  and  S_2
REMARK    2  A    between atoms: S_2  and  C_3
REMARK    3  A    between atoms: C_4  and  N_5
REMARK    4  A    between atoms: C_7  and  O_8
REMARK    5  A    between atoms: C_9  and  O_10
REMARK                            x       y       z     vdW  Elec       q    Type
REMARK                         _______ _______ _______ _____ _____    ______ ____
ROOT
ATOM      1  C   UNL     1       3.347   4.103  19.770  0.00  0.00    +0.000 C 
ATOM      2  C   UNL     1       3.086   5.468  19.083  0.00  0.00    +0.000 C 
ATOM      3  C   UNL     1       4.390   5.849  18.361  0.00  0.00    +0.000 C 
ATOM      4  C   UNL     1       5.352   4.693  18.610  0.00  0.00    +0.000 C 
ATOM      5  C   UNL     1       4.454   3.485  18.905  0.00  0.00    +0.000 C 
ENDROOT
BRANCH   2   6
ATOM      6  N   UNL     1       2.652   6.519  20.007  0.00  0.00    +0.000 NA
ATOM      7  H   UNL     1       3.031   6.363  20.940  0.00  0.00    +0.000 HD
ATOM      8  H   UNL     1       1.636   6.452  20.116  0.00  0.00    +0.000 HD
ENDBRANCH   2   6
BRANCH   1  10
ATOM      9  C   UNL     1       1.744   2.801  21.644  0.00  0.00    +0.000 C 
ATOM     10  S   UNL     1       1.793   3.133  19.865  0.00  0.00    +0.000 S 
ENDBRANCH   1  10
BRANCH   4  11
ATOM     11  O   UNL     1       6.179   4.928  19.760  0.00  0.00    +0.000 OA
ATOM     12  H   UNL     1       6.159   4.141  20.333  0.00  0.00    +0.000 HD
ENDBRANCH   4  11
BRANCH   5  13
ATOM     13  O   UNL     1       5.198   2.491  19.605  0.00  0.00    +0.000 OA
ATOM     14  H   UNL     1       5.430   2.894  20.467  0.00  0.00    +0.000 HD
ENDBRANCH   5  13
TORSDOF 4
ENDMDL
MODEL 7
REMARK VINA RESULT:      -4.5      2.877      3.223
REMARK  Name = 
REMARK  5 active torsions:
REMARK  status: ('A' for Active; 'I' for Inactive)
REMARK    1  A    between atoms: C_1  and  S_2
REMARK    2  A    between atoms: S_2  and  C_3
REMARK    3  A    between atoms: C_4  and  N_5
REMARK    4  A    between atoms: C_7  and  O_8
REMARK    5  A    between atoms: C_9  and  O_10
REMARK                            x       y       z     vdW  Elec       q    Type
REMARK                         _______ _______ _______ _____ _____    ______ ____
ROOT
ATOM      1  C   UNL     1       5.094   3.645  18.526  0.00  0.00    +0.000 C 
ATOM      2  C   UNL     1       4.013   3.983  17.467  0.00  0.00    +0.000 C 
ATOM      3  C   UNL     1       2.955   2.868  17.554  0.00  0.00    +0.000 C 
ATOM      4  C   UNL     1       3.421   1.944  18.673  0.00  0.00    +0.000 C 
ATOM      5  C   UNL     1       4.321   2.814  19.560  0.00  0.00    +0.000 C 
ENDROOT
BRANCH   2   6
ATOM      6  N   UNL     1       4.544   4.121  16.108  0.00  0.00    +0.000 NA
ATOM      7  H   UNL     1       4.349   5.048  15.734  0.00  0.00    +0.000 HD
ATOM      8  H   UNL     1       4.037   3.474  15.499  0.00  0.00    +0.000 HD
ENDBRANCH   2   6
BRANCH   1  10
ATOM      9  C   UNL     1       7.402   5.183  18.229  0.00  0.00    +0.000 C 
ATOM     10  S   UNL     1       5.855   5.185  19.170  0.00  0.00    +0.000 S 
ENDBRANCH   1  10
BRANCH   4  11
ATOM     11  O   UNL     1       4.208   0.854  18.169  0.00  0.00    +0.000 OA
ATOM     12  H   UNL     1       4.099   0.085  18.756  0.00  0.00    +0.000 HD
ENDBRANCH   4  11
BRANCH   5  13
ATOM     13  O   UNL     1       5.177   1.984  20.339  0.00  0.00    +0.000 OA
ATOM     14  H   UNL     1       5.737   2.598  20.859  0.00  0.00    +0.000 HD
ENDBRANCH   5  13
TORSDOF 4
ENDMDL
MODEL 8
REMARK VINA RESULT:      -4.5      2.547      2.945
REMARK  Name = 
REMARK  5 active torsions:
REMARK  status: ('A' for Active; 'I' for Inactive)
REMARK    1  A    between atoms: C_1  and  S_2
REMARK    2  A    between atoms: S_2  and  C_3
REMARK    3  A    between atoms: C_4  and  N_5
REMARK    4  A    between atoms: C_7  and  O_8
REMARK    5  A    between atoms: C_9  and  O_10
REMARK                            x       y       z     vdW  Elec       q    Type
REMARK                         _______ _______ _______ _____ _____    ______ ____
ROOT
ATOM      1  C   UNL     1       3.230   4.026  18.760  0.00  0.00    +0.000 C 
ATOM      2  C   UNL     1       1.734   3.655  18.591  0.00  0.00    +0.000 C 
ATOM      3  C   UNL     1       1.641   2.130  18.780  0.00  0.00    +0.000 C 
ATOM      4  C   UNL     1       3.058   1.665  19.090  0.00  0.00    +0.000 C 
ATOM      5  C   UNL     1       3.769   2.902  19.656  0.00  0.00    +0.000 C 
ENDROOT
BRANCH   2   6
ATOM      6  N   UNL     1       1.165   4.077  17.308  0.00  0.00    +0.000 NA
ATOM      7  H   UNL     1       0.212   3.733  17.201  0.00  0.00    +0.000 HD
ATOM      8  H   UNL     1       1.698   3.630  16.558  0.00  0.00    +0.000 HD
ENDBRANCH   2   6
BRANCH   1  10
ATOM      9  C   UNL     1       1.923   5.759  20.512  0.00  0.00    +0.000 C 
ATOM     10  S   UNL     1       3.389   5.719  19.449  0.00  0.00    +0.000 S 
ENDBRANCH   1  10
BRANCH   4  11
ATOM     11  O   UNL     1       3.754   1.253  17.903  0.00  0.00    +0.000 OA
ATOM     12  H   UNL     1       3.861   2.021  17.314  0.00  0.00    +0.000 HD
ENDBRANCH   4  11
BRANCH   5  13
ATOM     13  O   UNL     1       5.180   2.744  19.538  0.00  0.00    +0.000 OA
ATOM     14  H   UNL     1       5.443   2.166  20.284  0.00  0.00    +0.000 HD
ENDBRANCH   5  13
TORSDOF 4
ENDMDL
MODEL 9
REMARK VINA RESULT:      -4.5      4.173      5.649
REMARK  Name = 
REMARK  5 active torsions:
REMARK  status: ('A' for Active; 'I' for Inactive)
REMARK    1  A    between atoms: C_1  and  S_2
REMARK    2  A    between atoms: S_2  and  C_3
REMARK    3  A    between atoms: C_4  and  N_5
REMARK    4  A    between atoms: C_7  and  O_8
REMARK    5  A    between atoms: C_9  and  O_10
REMARK                            x       y       z     vdW  Elec       q    Type
REMARK                         _______ _______ _______ _____ _____    ______ ____
ROOT
ATOM      1  C   UNL     1       5.885   4.533  18.436  0.00  0.00    +0.000 C 
ATOM      2  C   UNL     1       6.674   5.743  18.997  0.00  0.00    +0.000 C 
ATOM      3  C   UNL     1       7.394   6.386  17.798  0.00  0.00    +0.000 C 
ATOM      4  C   UNL     1       6.979   5.569  16.581  0.00  0.00    +0.000 C 
ATOM      5  C   UNL     1       5.644   4.923  16.971  0.00  0.00    +0.000 C 
ENDROOT
BRANCH   2   6
ATOM      6  N   UNL     1       7.612   5.390  20.066  0.00  0.00    +0.000 NA
ATOM      7  H   UNL     1       7.176   4.765  20.742  0.00  0.00    +0.000 HD
ATOM      8  H   UNL     1       7.835   6.239  20.591  0.00  0.00    +0.000 HD
ENDBRANCH   2   6
BRANCH   1  10
ATOM      9  C   UNL     1       3.321   5.576  18.782  0.00  0.00    +0.000 C 
ATOM     10  S   UNL     1       4.369   4.249  19.430  0.00  0.00    +0.000 S 
ENDBRANCH   1  10
BRANCH   4  11
ATOM     11  O   UNL     1       7.919   4.520  16.300  0.00  0.00    +0.000 OA
ATOM     12  H   UNL     1       8.595   4.502  17.000  0.00  0.00    +0.000 HD
ENDBRANCH   4  11
BRANCH   5  13
ATOM     13  O   UNL     1       5.395   3.791  16.142  0.00  0.00    +0.000 OA
ATOM     14  H   UNL     1       4.495   3.486  16.378  0.00  0.00    +0.000 HD
ENDBRANCH   5  13
TORSDOF 4
ENDMDL
