MODEL 1
REMARK VINA RESULT:      -6.7      0.000      0.000
REMARK  Name = 
REMARK  5 active torsions:
REMARK  status: ('A' for Active; 'I' for Inactive)
REMARK    1  A    between atoms: C_1  and  O_2
REMARK    2  A    between atoms: O_2  and  C_3
REMARK    3  A    between atoms: C_3  and  C_4
REMARK    4  A    between atoms: C_4  and  N_5
REMARK    5  A    between atoms: N_5  and  C_6
REMARK                            x       y       z     vdW  Elec       q    Type
REMARK                         _______ _______ _______ _____ _____    ______ ____
ROOT
ATOM      1  C   UNL     1       3.276   5.909  18.194  0.00  0.00    +0.000 A 
ATOM      2  C   UNL     1       4.184   5.560  17.151  0.00  0.00    +0.000 A 
ATOM      3  C   UNL     1       4.424   4.242  16.847  0.00  0.00    +0.000 A 
ATOM      4  N   UNL     1       3.812   3.232  17.501  0.00  0.00    +0.000 NA
ATOM      5  C   UNL     1       2.931   3.484  18.501  0.00  0.00    +0.000 A 
ATOM      6  C   UNL     1       2.318   2.407  19.147  0.00  0.00    +0.000 A 
ATOM      7  C   UNL     1       1.405   2.629  20.176  0.00  0.00    +0.000 A 
ATOM      8  C   UNL     1       1.096   3.929  20.564  0.00  0.00    +0.000 A 
ATOM      9  C   UNL     1       1.699   5.020  19.931  0.00  0.00    +0.000 A 
ATOM     10  C   UNL     1       2.638   4.826  18.887  0.00  0.00    +0.000 A 
ATOM     11  C   UNL     1       5.399   4.047  15.754  0.00  0.00    +0.000 C 
ATOM     12  C   UNL     1       5.835   5.471  15.399  0.00  0.00    +0.000 C 
ATOM     13  C   UNL     1       5.013   6.434  16.272  0.00  0.00    +0.000 C 
ENDROOT
BRANCH   1  14
ATOM     14  N   UNL     1       3.006   7.272  18.570  0.00  0.00    +0.000 N 
ATOM     15  H   UNL     1       3.375   7.614  19.464  0.00  0.00    +0.000 HD
BRANCH  14  16
ATOM     16  C   UNL     1       2.170   8.208  17.835  0.00  0.00    +0.000 C 
BRANCH  16  17
ATOM     17  C   UNL     1       1.444   9.156  18.790  0.00  0.00    +0.000 C 
BRANCH  17  19
ATOM     18  C   UNL     1      -0.514  10.358  18.981  0.00  0.00    +0.000 C 
ATOM     19  O   UNL     1       0.400   9.786  18.078  0.00  0.00    +0.000 OA
ENDBRANCH  17  19
ENDBRANCH  16  17
ENDBRANCH  14  16
ENDBRANCH   1  14
TORSDOF 4
ENDMDL
MODEL 2
REMARK VINA RESULT:      -6.7      1.440      1.452
REMARK  Name = 
REMARK  5 active torsions:
REMARK  status: ('A' for Active; 'I' for Inactive)
REMARK    1  A    between atoms: C_1  and  O_2
REMARK    2  A    between atoms: O_2  and  C_3
REMARK    3  A    between atoms: C_3  and  C_4
REMARK    4  A    between atoms: C_4  and  N_5
REMARK    5  A    between atoms: N_5  and  C_6
REMARK                            x       y       z     vdW  Elec       q    Type
REMARK                         _______ _______ _______ _____ _____    ______ ____
ROOT
ATOM      1  C   UNL     1       3.353   5.755  18.478  0.00  0.00    +0.000 A 
ATOM      2  C   UNL     1       4.715   5.707  18.060  0.00  0.00    +0.000 A 
ATOM      3  C   UNL     1       5.541   4.696  18.486  0.00  0.00    +0.000 A 
ATOM      4  N   UNL     1       5.105   3.709  19.299  0.00  0.00    +0.000 NA
ATOM      5  C   UNL     1       3.822   3.683  19.735  0.00  0.00    +0.000 A 
ATOM      6  C   UNL     1       3.414   2.639  20.571  0.00  0.00    +0.000 A 
ATOM      7  C   UNL     1       2.102   2.579  21.034  0.00  0.00    +0.000 A 
ATOM      8  C   UNL     1       1.186   3.559  20.663  0.00  0.00    +0.000 A 
ATOM      9  C   UNL     1       1.574   4.611  19.829  0.00  0.00    +0.000 A 
ATOM     10  C   UNL     1       2.904   4.705  19.348  0.00  0.00    +0.000 A 
ATOM     11  C   UNL     1       6.924   4.796  17.977  0.00  0.00    +0.000 C 
ATOM     12  C   UNL     1       6.919   6.095  17.168  0.00  0.00    +0.000 C 
ATOM     13  C   UNL     1       5.483   6.645  17.191  0.00  0.00    +0.000 C 
ENDROOT
BRANCH   1  14
ATOM     14  N   UNL     1       2.451   6.804  18.081  0.00  0.00    +0.000 N 
ATOM     15  H   UNL     1       1.939   6.701  17.198  0.00  0.00    +0.000 HD
BRANCH  14  16
ATOM     16  C   UNL     1       2.254   8.066  18.778  0.00  0.00    +0.000 C 
BRANCH  16  17
ATOM     17  C   UNL     1       1.874   9.176  17.797  0.00  0.00    +0.000 C 
BRANCH  17  19
ATOM     18  C   UNL     1       0.798   9.643  19.782  0.00  0.00    +0.000 C 
ATOM     19  O   UNL     1       0.992  10.063  18.454  0.00  0.00    +0.000 OA
ENDBRANCH  17  19
ENDBRANCH  16  17
ENDBRANCH  14  16
ENDBRANCH   1  14
TORSDOF 4
ENDMDL
MODEL 3
REMARK VINA RESULT:      -6.6      1.218      4.046
REMARK  Name = 
REMARK  5 active torsions:
REMARK  status: ('A' for Active; 'I' for Inactive)
REMARK    1  A    between atoms: C_1  and  O_2
REMARK    2  A    between atoms: O_2  and  C_3
REMARK    3  A    between atoms: C_3  and  C_4
REMARK    4  A    between atoms: C_4  and  N_5
REMARK    5  A    between atoms: N_5  and  C_6
REMARK                            x       y       z     vdW  Elec       q    Type
REMARK                         _______ _______ _______ _____ _____    ______ ____
ROOT
ATOM      1  C   UNL     1       3.048   5.686  19.176  0.00  0.00    +0.000 A 
ATOM      2  C   UNL     1       2.414   4.488  19.619  0.00  0.00    +0.000 A 
ATOM      3  C   UNL     1       2.560   3.319  18.913  0.00  0.00    +0.000 A 
ATOM      4  N   UNL     1       3.310   3.247  17.792  0.00  0.00    +0.000 NA
ATOM      5  C   UNL     1       3.949   4.341  17.312  0.00  0.00    +0.000 A 
ATOM      6  C   UNL     1       4.718   4.219  16.151  0.00  0.00    +0.000 A 
ATOM      7  C   UNL     1       5.391   5.322  15.631  0.00  0.00    +0.000 A 
ATOM      8  C   UNL     1       5.304   6.556  16.269  0.00  0.00    +0.000 A 
ATOM      9  C   UNL     1       4.540   6.700  17.431  0.00  0.00    +0.000 A 
ATOM     10  C   UNL     1       3.836   5.598  17.979  0.00  0.00    +0.000 A 
ATOM     11  C   UNL     1       1.829   2.173  19.493  0.00  0.00    +0.000 C 
ATOM     12  C   UNL     1       1.102   2.778  20.696  0.00  0.00    +0.000 C 
ATOM     13  C   UNL     1       1.523   4.255  20.792  0.00  0.00    +0.000 C 
ENDROOT
BRANCH   1  14
ATOM     14  N   UNL     1       2.909   6.943  19.864  0.00  0.00    +0.000 N 
ATOM     15  H   UNL     1       3.592   7.180  20.592  0.00  0.00    +0.000 HD
BRANCH  14  16
ATOM     16  C   UNL     1       1.823   7.894  19.686  0.00  0.00    +0.000 C 
BRANCH  16  17
ATOM     17  C   UNL     1       1.204   8.272  21.032  0.00  0.00    +0.000 C 
BRANCH  17  19
ATOM     18  C   UNL     1       0.655   9.967  19.570  0.00  0.00    +0.000 C 
ATOM     19  O   UNL     1       0.418   9.431  20.847  0.00  0.00    +0.000 OA
ENDBRANCH  17  19
ENDBRANCH  16  17
ENDBRANCH  14  16
ENDBRANCH   1  14
TORSDOF 4
ENDMDL
MODEL 4
REMARK VINA RESULT:      -6.6      2.593      4.956
REMARK  Name = 
REMARK  5 active torsions:
REMARK  status: ('A' for Active; 'I' for Inactive)
REMARK    1  A    between atoms: C_1  and  O_2
REMARK    2  A    between atoms: O_2  and  C_3
REMARK    3  A    between atoms: C_3  and  C_4
REMARK    4  A    between atoms: C_4  and  N_5
REMARK    5  A    between atoms: N_5  and  C_6
REMARK                            x       y       z     vdW  Elec       q    Type
REMARK                         _______ _______ _______ _____ _____    ______ ____
ROOT
ATOM      1  C   UNL     1       3.316   5.788  18.249  0.00  0.00    +0.000 A 
ATOM      2  C   UNL     1       2.706   7.048  18.520  0.00  0.00    +0.000 A 
ATOM      3  C   UNL     1       1.967   7.234  19.663  0.00  0.00    +0.000 A 
ATOM      4  N   UNL     1       1.797   6.252  20.575  0.00  0.00    +0.000 NA
ATOM      5  C   UNL     1       2.350   5.028  20.390  0.00  0.00    +0.000 A 
ATOM      6  C   UNL     1       2.151   4.043  21.361  0.00  0.00    +0.000 A 
ATOM      7  C   UNL     1       2.708   2.776  21.206  0.00  0.00    +0.000 A 
ATOM      8  C   UNL     1       3.471   2.484  20.080  0.00  0.00    +0.000 A 
ATOM      9  C   UNL     1       3.682   3.455  19.096  0.00  0.00    +0.000 A 
ATOM     10  C   UNL     1       3.120   4.750  19.221  0.00  0.00    +0.000 A 
ATOM     11  C   UNL     1       1.390   8.588  19.791  0.00  0.00    +0.000 C 
ATOM     12  C   UNL     1       1.816   9.287  18.498  0.00  0.00    +0.000 C 
ATOM     13  C   UNL     1       2.699   8.302  17.713  0.00  0.00    +0.000 C 
ENDROOT
BRANCH   1  14
ATOM     14  N   UNL     1       4.080   5.532  17.056  0.00  0.00    +0.000 N 
ATOM     15  H   UNL     1       3.613   5.076  16.265  0.00  0.00    +0.000 HD
BRANCH  14  16
ATOM     16  C   UNL     1       5.504   5.781  16.888  0.00  0.00    +0.000 C 
BRANCH  16  17
ATOM     17  C   UNL     1       6.161   4.659  16.084  0.00  0.00    +0.000 C 
BRANCH  17  19
ATOM     18  C   UNL     1       7.621   4.705  17.868  0.00  0.00    +0.000 C 
ATOM     19  O   UNL     1       7.517   4.574  16.472  0.00  0.00    +0.000 OA
ENDBRANCH  17  19
ENDBRANCH  16  17
ENDBRANCH  14  16
ENDBRANCH   1  14
TORSDOF 4
ENDMDL
MODEL 5
REMARK VINA RESULT:      -6.5      2.506      4.567
REMARK  Name = 
REMARK  5 active torsions:
REMARK  status: ('A' for Active; 'I' for Inactive)
REMARK    1  A    between atoms: C_1  and  O_2
REMARK    2  A    between atoms: O_2  and  C_3
REMARK    3  A    between atoms: C_3  and  C_4
REMARK    4  A    between atoms: C_4  and  N_5
REMARK    5  A    between atoms: N_5  and  C_6
REMARK                            x       y       z     vdW  Elec       q    Type
REMARK                         _______ _______ _______ _____ _____    ______ ____
ROOT
ATOM      1  C   UNL     1       3.835   5.148  18.367  0.00  0.00    +0.000 A 
ATOM      2  C   UNL     1       3.274   6.458  18.340  0.00  0.00    +0.000 A 
ATOM      3  C   UNL     1       2.373   6.852  19.300  0.00  0.00    +0.000 A 
ATOM      4  N   UNL     1       1.992   6.034  20.304  0.00  0.00    +0.000 NA
ATOM      5  C   UNL     1       2.486   4.775  20.400  0.00  0.00    +0.000 A 
ATOM      6  C   UNL     1       2.067   3.964  21.460  0.00  0.00    +0.000 A 
ATOM      7  C   UNL     1       2.557   2.667  21.592  0.00  0.00    +0.000 A 
ATOM      8  C   UNL     1       3.472   2.171  20.669  0.00  0.00    +0.000 A 
ATOM      9  C   UNL     1       3.903   2.964  19.601  0.00  0.00    +0.000 A 
ATOM     10  C   UNL     1       3.416   4.285  19.434  0.00  0.00    +0.000 A 
ATOM     11  C   UNL     1       1.873   8.231  19.124  0.00  0.00    +0.000 C 
ATOM     12  C   UNL     1       2.549   8.700  17.832  0.00  0.00    +0.000 C 
ATOM     13  C   UNL     1       3.480   7.568  17.366  0.00  0.00    +0.000 C 
ENDROOT
BRANCH   1  14
ATOM     14  N   UNL     1       4.763   4.676  17.373  0.00  0.00    +0.000 N 
ATOM     15  H   UNL     1       4.411   4.072  16.622  0.00  0.00    +0.000 HD
BRANCH  14  16
ATOM     16  C   UNL     1       6.201   4.903  17.376  0.00  0.00    +0.000 C 
BRANCH  16  17
ATOM     17  C   UNL     1       6.657   5.522  16.054  0.00  0.00    +0.000 C 
BRANCH  17  19
ATOM     18  C   UNL     1       7.301   7.210  17.486  0.00  0.00    +0.000 C 
ATOM     19  O   UNL     1       7.654   6.481  16.337  0.00  0.00    +0.000 OA
ENDBRANCH  17  19
ENDBRANCH  16  17
ENDBRANCH  14  16
ENDBRANCH   1  14
TORSDOF 4
ENDMDL
MODEL 6
REMARK VINA RESULT:      -6.5      0.805      3.952
REMARK  Name = 
REMARK  5 active torsions:
REMARK  status: ('A' for Active; 'I' for Inactive)
REMARK    1  A    between atoms: C_1  and  O_2
REMARK    2  A    between atoms: O_2  and  C_3
REMARK    3  A    between atoms: C_3  and  C_4
REMARK    4  A    between atoms: C_4  and  N_5
REMARK    5  A    between atoms: N_5  and  C_6
REMARK                            x       y       z     vdW  Elec       q    Type
REMARK                         _______ _______ _______ _____ _____    ______ ____
ROOT
ATOM      1  C   UNL     1       3.055   5.762  18.931  0.00  0.00    +0.000 A 
ATOM      2  C   UNL     1       2.316   4.624  19.371  0.00  0.00    +0.000 A 
ATOM      3  C   UNL     1       2.430   3.422  18.715  0.00  0.00    +0.000 A 
ATOM      4  N   UNL     1       3.242   3.261  17.648  0.00  0.00    +0.000 NA
ATOM      5  C   UNL     1       3.980   4.295  17.174  0.00  0.00    +0.000 A 
ATOM      6  C   UNL     1       4.810   4.082  16.069  0.00  0.00    +0.000 A 
ATOM      7  C   UNL     1       5.585   5.120  15.559  0.00  0.00    +0.000 A 
ATOM      8  C   UNL     1       5.540   6.379  16.149  0.00  0.00    +0.000 A 
ATOM      9  C   UNL     1       4.715   6.614  17.254  0.00  0.00    +0.000 A 
ATOM     10  C   UNL     1       3.908   5.580  17.791  0.00  0.00    +0.000 A 
ATOM     11  C   UNL     1       1.590   2.347  19.283  0.00  0.00    +0.000 C 
ATOM     12  C   UNL     1       0.830   3.041  20.416  0.00  0.00    +0.000 C 
ATOM     13  C   UNL     1       1.341   4.490  20.490  0.00  0.00    +0.000 C 
ENDROOT
BRANCH   1  14
ATOM     14  N   UNL     1       2.956   7.050  19.566  0.00  0.00    +0.000 N 
ATOM     15  H   UNL     1       3.660   7.305  20.267  0.00  0.00    +0.000 HD
BRANCH  14  16
ATOM     16  C   UNL     1       1.882   8.013  19.375  0.00  0.00    +0.000 C 
BRANCH  16  17
ATOM     17  C   UNL     1       1.949   8.631  17.978  0.00  0.00    +0.000 C 
BRANCH  17  19
ATOM     18  C   UNL     1       0.520  10.136  18.982  0.00  0.00    +0.000 C 
ATOM     19  O   UNL     1       1.589   9.993  18.081  0.00  0.00    +0.000 OA
ENDBRANCH  17  19
ENDBRANCH  16  17
ENDBRANCH  14  16
ENDBRANCH   1  14
TORSDOF 4
ENDMDL
MODEL 7
REMARK VINA RESULT:      -6.5      2.665      4.891
REMARK  Name = 
REMARK  5 active torsions:
REMARK  status: ('A' for Active; 'I' for Inactive)
REMARK    1  A    between atoms: C_1  and  O_2
REMARK    2  A    between atoms: O_2  and  C_3
REMARK    3  A    between atoms: C_3  and  C_4
REMARK    4  A    between atoms: C_4  and  N_5
REMARK    5  A    between atoms: N_5  and  C_6
REMARK                            x       y       z     vdW  Elec       q    Type
REMARK                         _______ _______ _______ _____ _____    ______ ____
ROOT
ATOM      1  C   UNL     1       3.990   5.256  18.464  0.00  0.00    +0.000 A 
ATOM      2  C   UNL     1       3.351   6.529  18.403  0.00  0.00    +0.000 A 
ATOM      3  C   UNL     1       2.354   6.853  19.291  0.00  0.00    +0.000 A 
ATOM      4  N   UNL     1       1.947   6.000  20.255  0.00  0.00    +0.000 NA
ATOM      5  C   UNL     1       2.510   4.773  20.380  0.00  0.00    +0.000 A 
ATOM      6  C   UNL     1       2.060   3.924  21.396  0.00  0.00    +0.000 A 
ATOM      7  C   UNL     1       2.619   2.659  21.557  0.00  0.00    +0.000 A 
ATOM      8  C   UNL     1       3.634   2.232  20.706  0.00  0.00    +0.000 A 
ATOM      9  C   UNL     1       4.098   3.065  19.683  0.00  0.00    +0.000 A 
ATOM     10  C   UNL     1       3.543   4.355  19.488  0.00  0.00    +0.000 A 
ATOM     11  C   UNL     1       1.784   8.201  19.087  0.00  0.00    +0.000 C 
ATOM     12  C   UNL     1       2.529   8.727  17.858  0.00  0.00    +0.000 C 
ATOM     13  C   UNL     1       3.564   7.662  17.458  0.00  0.00    +0.000 C 
ENDROOT
BRANCH   1  14
ATOM     14  N   UNL     1       5.023   4.856  17.545  0.00  0.00    +0.000 N 
ATOM     15  H   UNL     1       4.787   4.182  16.808  0.00  0.00    +0.000 HD
BRANCH  14  16
ATOM     16  C   UNL     1       6.421   5.253  17.611  0.00  0.00    +0.000 C 
BRANCH  16  17
ATOM     17  C   UNL     1       7.243   4.529  16.544  0.00  0.00    +0.000 C 
BRANCH  17  19
ATOM     18  C   UNL     1       6.850   4.826  14.292  0.00  0.00    +0.000 C 
ATOM     19  O   UNL     1       7.409   5.402  15.446  0.00  0.00    +0.000 OA
ENDBRANCH  17  19
ENDBRANCH  16  17
ENDBRANCH  14  16
ENDBRANCH   1  14
TORSDOF 4
ENDMDL
MODEL 8
REMARK VINA RESULT:      -6.5      2.587      5.696
REMARK  Name = 
REMARK  5 active torsions:
REMARK  status: ('A' for Active; 'I' for Inactive)
REMARK    1  A    between atoms: C_1  and  O_2
REMARK    2  A    between atoms: O_2  and  C_3
REMARK    3  A    between atoms: C_3  and  C_4
REMARK    4  A    between atoms: C_4  and  N_5
REMARK    5  A    between atoms: N_5  and  C_6
REMARK                            x       y       z     vdW  Elec       q    Type
REMARK                         _______ _______ _______ _____ _____    ______ ____
ROOT
ATOM      1  C   UNL     1       4.612   4.436  18.613  0.00  0.00    +0.000 A 
ATOM      2  C   UNL     1       3.646   5.364  19.100  0.00  0.00    +0.000 A 
ATOM      3  C   UNL     1       3.310   6.473  18.362  0.00  0.00    +0.000 A 
ATOM      4  N   UNL     1       3.861   6.726  17.155  0.00  0.00    +0.000 NA
ATOM      5  C   UNL     1       4.783   5.887  16.622  0.00  0.00    +0.000 A 
ATOM      6  C   UNL     1       5.323   6.185  15.368  0.00  0.00    +0.000 A 
ATOM      7  C   UNL     1       6.269   5.343  14.789  0.00  0.00    +0.000 A 
ATOM      8  C   UNL     1       6.681   4.194  15.457  0.00  0.00    +0.000 A 
ATOM      9  C   UNL     1       6.154   3.878  16.713  0.00  0.00    +0.000 A 
ATOM     10  C   UNL     1       5.197   4.720  17.332  0.00  0.00    +0.000 A 
ATOM     11  C   UNL     1       2.307   7.343  19.010  0.00  0.00    +0.000 C 
ATOM     12  C   UNL     1       2.054   6.664  20.358  0.00  0.00    +0.000 C 
ATOM     13  C   UNL     1       2.886   5.370  20.382  0.00  0.00    +0.000 C 
ENDROOT
BRANCH   1  14
ATOM     14  N   UNL     1       5.019   3.271  19.354  0.00  0.00    +0.000 N 
ATOM     15  H   UNL     1       6.013   3.160  19.584  0.00  0.00    +0.000 HD
BRANCH  14  16
ATOM     16  C   UNL     1       4.156   2.167  19.745  0.00  0.00    +0.000 C 
BRANCH  16  17
ATOM     17  C   UNL     1       3.212   1.785  18.604  0.00  0.00    +0.000 C 
BRANCH  17  19
ATOM     18  C   UNL     1       1.092   2.691  18.577  0.00  0.00    +0.000 C 
ATOM     19  O   UNL     1       1.904   1.685  19.129  0.00  0.00    +0.000 OA
ENDBRANCH  17  19
ENDBRANCH  16  17
ENDBRANCH  14  16
ENDBRANCH   1  14
TORSDOF 4
ENDMDL
MODEL 9
REMARK VINA RESULT:      -6.5      4.081      5.169
REMARK  Name = 
REMARK  5 active torsions:
REMARK  status: ('A' for Active; 'I' for Inactive)
REMARK    1  A    between atoms: C_1  and  O_2
REMARK    2  A    between atoms: O_2  and  C_3
REMARK    3  A    between atoms: C_3  and  C_4
REMARK    4  A    between atoms: C_4  and  N_5
REMARK    5  A    between atoms: N_5  and  C_6
REMARK                            x       y       z     vdW  Elec       q    Type
REMARK                         _______ _______ _______ _____ _____    ______ ____
ROOT
ATOM      1  C   UNL     1       5.195   4.939  16.874  0.00  0.00    +0.000 A 
ATOM      2  C   UNL     1       6.261   5.505  17.633  0.00  0.00    +0.000 A 
ATOM      3  C   UNL     1       6.453   5.142  18.944  0.00  0.00    +0.000 A 
ATOM      4  N   UNL     1       5.663   4.238  19.562  0.00  0.00    +0.000 NA
ATOM      5  C   UNL     1       4.632   3.652  18.905  0.00  0.00    +0.000 A 
ATOM      6  C   UNL     1       3.843   2.718  19.582  0.00  0.00    +0.000 A 
ATOM      7  C   UNL     1       2.778   2.094  18.937  0.00  0.00    +0.000 A 
ATOM      8  C   UNL     1       2.496   2.395  17.608  0.00  0.00    +0.000 A 
ATOM      9  C   UNL     1       3.273   3.326  16.912  0.00  0.00    +0.000 A 
ATOM     10  C   UNL     1       4.357   3.986  17.544  0.00  0.00    +0.000 A 
ATOM     11  C   UNL     1       7.589   5.828  19.596  0.00  0.00    +0.000 C 
ATOM     12  C   UNL     1       8.110   6.776  18.513  0.00  0.00    +0.000 C 
ATOM     13  C   UNL     1       7.277   6.524  17.244  0.00  0.00    +0.000 C 
ENDROOT
BRANCH   1  14
ATOM     14  N   UNL     1       4.934   5.301  15.506  0.00  0.00    +0.000 N 
ATOM     15  H   UNL     1       4.404   6.160  15.320  0.00  0.00    +0.000 HD
BRANCH  14  16
ATOM     16  C   UNL     1       5.277   4.508  14.335  0.00  0.00    +0.000 C 
BRANCH  16  17
ATOM     17  C   UNL     1       6.767   4.626  14.015  0.00  0.00    +0.000 C 
BRANCH  17  19
ATOM     18  C   UNL     1       5.834   3.354  12.334  0.00  0.00    +0.000 C 
ATOM     19  O   UNL     1       7.039   3.833  12.879  0.00  0.00    +0.000 OA
ENDBRANCH  17  19
ENDBRANCH  16  17
ENDBRANCH  14  16
ENDBRANCH   1  14
TORSDOF 4
ENDMDL
