MODEL 1
REMARK VINA RESULT:      -7.3      0.000      0.000
REMARK  Name = 
REMARK  7 active torsions:
REMARK  status: ('A' for Active; 'I' for Inactive)
REMARK    1  A    between atoms: C_1  and  C_2
REMARK    2  A    between atoms: C_2  and  O_3
REMARK    3  A    between atoms: C_2  and  C_4
REMARK    4  A    between atoms: C_8  and  C_9
REMARK    5  A    between atoms: C_9  and  O_11
REMARK    6  A    between atoms: C_12  and  S_13
REMARK    7  A    between atoms: S_13  and  C_14
REMARK                            x       y       z     vdW  Elec       q    Type
REMARK                         _______ _______ _______ _____ _____    ______ ____
ROOT
ATOM      1  C   UNL     1       6.031   3.654  13.840  0.00  0.00    +0.000 C 
ATOM      2  C   UNL     1       6.893   4.813  14.363  0.00  0.00    +0.000 C 
ATOM      3  O   UNL     1       8.040   5.185  14.320  0.00  0.00    +0.000 OA
ATOM      4  N   UNL     1       5.850   5.365  15.055  0.00  0.00    +0.000 N 
ATOM      5  C   UNL     1       5.949   5.428  16.436  0.00  0.00    +0.000 C 
ATOM      6  C   UNL     1       5.178   4.510  17.042  0.00  0.00    +0.000 C 
ATOM      7  C   UNL     1       4.409   3.703  16.030  0.00  0.00    +0.000 C 
ATOM      8  C   UNL     1       4.884   4.289  14.694  0.00  0.00    +0.000 C 
ENDROOT
BRANCH   1  10
ATOM      9  C   UNL     1       4.558   3.332  11.771  0.00  0.00    +0.000 C 
ATOM     10  C   UNL     1       5.958   3.572  12.322  0.00  0.00    +0.000 C 
BRANCH  10  11
ATOM     11  O   UNL     1       6.838   2.540  11.881  0.00  0.00    +0.000 OA
ATOM     12  H   UNL     1       6.322   1.834  11.458  0.00  0.00    +0.000 HD
ENDBRANCH  10  11
ENDBRANCH   1  10
BRANCH   5  13
ATOM     13  C   UNL     1       6.848   6.433  17.086  0.00  0.00    +0.000 C 
ATOM     14  O   UNL     1       7.876   6.163  17.692  0.00  0.00    +0.000 OA
BRANCH  13  15
ATOM     15  O   UNL     1       6.381   7.701  17.015  0.00  0.00    +0.000 OA
ATOM     16  H   UNL     1       6.039   8.030  17.875  0.00  0.00    +0.000 HD
ENDBRANCH  13  15
ENDBRANCH   5  13
BRANCH   6  17
ATOM     17  S   UNL     1       4.927   4.277  18.728  0.00  0.00    +0.000 S 
BRANCH  17  18
ATOM     18  C   UNL     1       3.779   5.565  19.071  0.00  0.00    +0.000 A 
ATOM     19  N   UNL     1       3.603   6.617  18.302  0.00  0.00    +0.000 NA
ATOM     20  C   UNL     1       2.632   7.446  18.857  0.00  0.00    +0.000 A 
ATOM     21  C   UNL     1       2.167   8.661  18.310  0.00  0.00    +0.000 A 
ATOM     22  C   UNL     1       1.221   9.415  19.012  0.00  0.00    +0.000 A 
ATOM     23 CL   UNL     1       0.682  10.915  18.362  0.00  0.00    +0.000 Cl
ATOM     24  C   UNL     1       0.717   8.979  20.233  0.00  0.00    +0.000 A 
ATOM     25  C   UNL     1       1.142   7.766  20.782  0.00  0.00    +0.000 A 
ATOM     26  C   UNL     1       2.101   7.016  20.076  0.00  0.00    +0.000 A 
ATOM     27  S   UNL     1       2.813   5.507  20.490  0.00  0.00    +0.000 S 
ENDBRANCH  17  18
ENDBRANCH   6  17
TORSDOF 6
ENDMDL
MODEL 2
REMARK VINA RESULT:      -7.2      2.732      4.008
REMARK  Name = 
REMARK  7 active torsions:
REMARK  status: ('A' for Active; 'I' for Inactive)
REMARK    1  A    between atoms: C_1  and  C_2
REMARK    2  A    between atoms: C_2  and  O_3
REMARK    3  A    between atoms: C_2  and  C_4
REMARK    4  A    between atoms: C_8  and  C_9
REMARK    5  A    between atoms: C_9  and  O_11
REMARK    6  A    between atoms: C_12  and  S_13
REMARK    7  A    between atoms: S_13  and  C_14
REMARK                            x       y       z     vdW  Elec       q    Type
REMARK                         _______ _______ _______ _____ _____    ______ ____
ROOT
ATOM      1  C   UNL     1       5.968   5.233  17.184  0.00  0.00    +0.000 C 
ATOM      2  C   UNL     1       4.852   4.364  16.582  0.00  0.00    +0.000 C 
ATOM      3  O   UNL     1       4.251   4.247  15.543  0.00  0.00    +0.000 OA
ATOM      4  N   UNL     1       4.652   3.690  17.757  0.00  0.00    +0.000 N 
ATOM      5  C   UNL     1       3.422   3.826  18.379  0.00  0.00    +0.000 C 
ATOM      6  C   UNL     1       3.484   4.624  19.458  0.00  0.00    +0.000 C 
ATOM      7  C   UNL     1       4.891   5.111  19.684  0.00  0.00    +0.000 C 
ATOM      8  C   UNL     1       5.663   4.478  18.519  0.00  0.00    +0.000 C 
ENDROOT
BRANCH   1  10
ATOM      9  C   UNL     1       7.197   4.837  14.973  0.00  0.00    +0.000 C 
ATOM     10  C   UNL     1       7.306   5.104  16.470  0.00  0.00    +0.000 C 
BRANCH  10  11
ATOM     11  O   UNL     1       8.057   4.067  17.096  0.00  0.00    +0.000 OA
ATOM     12  H   UNL     1       8.707   4.460  17.701  0.00  0.00    +0.000 HD
ENDBRANCH  10  11
ENDBRANCH   1  10
BRANCH   5  13
ATOM     13  C   UNL     1       2.215   3.131  17.832  0.00  0.00    +0.000 C 
ATOM     14  O   UNL     1       1.306   3.680  17.224  0.00  0.00    +0.000 OA
BRANCH  13  15
ATOM     15  O   UNL     1       2.166   1.813  18.136  0.00  0.00    +0.000 OA
ATOM     16  H   UNL     1       2.918   1.524  18.700  0.00  0.00    +0.000 HD
ENDBRANCH  13  15
ENDBRANCH   5  13
BRANCH   6  17
ATOM     17  S   UNL     1       2.231   5.009  20.571  0.00  0.00    +0.000 S 
BRANCH  17  18
ATOM     18  C   UNL     1       1.917   6.687  20.148  0.00  0.00    +0.000 A 
ATOM     19  N   UNL     1       1.363   7.559  20.962  0.00  0.00    +0.000 NA
ATOM     20  C   UNL     1       1.249   8.791  20.322  0.00  0.00    +0.000 A 
ATOM     21  C   UNL     1       0.715   9.971  20.882  0.00  0.00    +0.000 A 
ATOM     22  C   UNL     1       0.617  11.123  20.096  0.00  0.00    +0.000 A 
ATOM     23 CL   UNL     1      -0.069  12.552  20.770  0.00  0.00    +0.000 Cl
ATOM     24  C   UNL     1       1.053  11.132  18.775  0.00  0.00    +0.000 A 
ATOM     25  C   UNL     1       1.610   9.983  18.206  0.00  0.00    +0.000 A 
ATOM     26  C   UNL     1       1.698   8.824  18.999  0.00  0.00    +0.000 A 
ATOM     27  S   UNL     1       2.322   7.275  18.586  0.00  0.00    +0.000 S 
ENDBRANCH  17  18
ENDBRANCH   6  17
TORSDOF 6
ENDMDL
MODEL 3
REMARK VINA RESULT:      -7.1      1.224      1.676
REMARK  Name = 
REMARK  7 active torsions:
REMARK  status: ('A' for Active; 'I' for Inactive)
REMARK    1  A    between atoms: C_1  and  C_2
REMARK    2  A    between atoms: C_2  and  O_3
REMARK    3  A    between atoms: C_2  and  C_4
REMARK    4  A    between atoms: C_8  and  C_9
REMARK    5  A    between atoms: C_9  and  O_11
REMARK    6  A    between atoms: C_12  and  S_13
REMARK    7  A    between atoms: S_13  and  C_14
REMARK                            x       y       z     vdW  Elec       q    Type
REMARK                         _______ _______ _______ _____ _____    ______ ____
ROOT
ATOM      1  C   UNL     1       6.019   3.809  13.871  0.00  0.00    +0.000 C 
ATOM      2  C   UNL     1       6.958   4.893  14.424  0.00  0.00    +0.000 C 
ATOM      3  O   UNL     1       8.134   5.160  14.432  0.00  0.00    +0.000 OA
ATOM      4  N   UNL     1       5.937   5.545  15.062  0.00  0.00    +0.000 N 
ATOM      5  C   UNL     1       5.979   5.616  16.445  0.00  0.00    +0.000 C 
ATOM      6  C   UNL     1       5.101   4.778  17.022  0.00  0.00    +0.000 C 
ATOM      7  C   UNL     1       4.310   4.030  15.982  0.00  0.00    +0.000 C 
ATOM      8  C   UNL     1       4.897   4.554  14.665  0.00  0.00    +0.000 C 
ENDROOT
BRANCH   1  10
ATOM      9  C   UNL     1       5.767   2.311  11.811  0.00  0.00    +0.000 C 
ATOM     10  C   UNL     1       6.010   3.715  12.352  0.00  0.00    +0.000 C 
BRANCH  10  11
ATOM     11  O   UNL     1       7.248   4.219  11.858  0.00  0.00    +0.000 OA
ATOM     12  H   UNL     1       7.473   5.040  12.326  0.00  0.00    +0.000 HD
ENDBRANCH  10  11
ENDBRANCH   1  10
BRANCH   5  13
ATOM     13  C   UNL     1       6.934   6.544  17.128  0.00  0.00    +0.000 C 
ATOM     14  O   UNL     1       6.924   7.763  17.018  0.00  0.00    +0.000 OA
BRANCH  13  15
ATOM     15  O   UNL     1       7.889   5.906  17.843  0.00  0.00    +0.000 OA
ATOM     16  H   UNL     1       7.951   4.949  17.628  0.00  0.00    +0.000 HD
ENDBRANCH  13  15
ENDBRANCH   5  13
BRANCH   6  17
ATOM     17  S   UNL     1       4.753   4.590  18.696  0.00  0.00    +0.000 S 
BRANCH  17  18
ATOM     18  C   UNL     1       3.668   5.948  18.962  0.00  0.00    +0.000 A 
ATOM     19  N   UNL     1       2.996   6.145  20.076  0.00  0.00    +0.000 NA
ATOM     20  C   UNL     1       2.227   7.300  19.961  0.00  0.00    +0.000 A 
ATOM     21  C   UNL     1       1.385   7.838  20.957  0.00  0.00    +0.000 A 
ATOM     22  C   UNL     1       0.630   8.981  20.676  0.00  0.00    +0.000 A 
ATOM     23 CL   UNL     1      -0.426   9.615  21.880  0.00  0.00    +0.000 Cl
ATOM     24  C   UNL     1       0.708   9.608  19.437  0.00  0.00    +0.000 A 
ATOM     25  C   UNL     1       1.556   9.110  18.444  0.00  0.00    +0.000 A 
ATOM     26  C   UNL     1       2.306   7.954  18.729  0.00  0.00    +0.000 A 
ATOM     27  S   UNL     1       3.418   7.112  17.724  0.00  0.00    +0.000 S 
ENDBRANCH  17  18
ENDBRANCH   6  17
TORSDOF 6
ENDMDL
MODEL 4
REMARK VINA RESULT:      -7.0      5.833      9.006
REMARK  Name = 
REMARK  7 active torsions:
REMARK  status: ('A' for Active; 'I' for Inactive)
REMARK    1  A    between atoms: C_1  and  C_2
REMARK    2  A    between atoms: C_2  and  O_3
REMARK    3  A    between atoms: C_2  and  C_4
REMARK    4  A    between atoms: C_8  and  C_9
REMARK    5  A    between atoms: C_9  and  O_11
REMARK    6  A    between atoms: C_12  and  S_13
REMARK    7  A    between atoms: S_13  and  C_14
REMARK                            x       y       z     vdW  Elec       q    Type
REMARK                         _______ _______ _______ _____ _____    ______ ____
ROOT
ATOM      1  C   UNL     1      -2.642  11.554  18.133  0.00  0.00    +0.000 C 
ATOM      2  C   UNL     1      -1.912  12.142  19.350  0.00  0.00    +0.000 C 
ATOM      3  O   UNL     1      -1.770  13.207  19.898  0.00  0.00    +0.000 OA
ATOM      4  N   UNL     1      -1.321  10.946  19.657  0.00  0.00    +0.000 N 
ATOM      5  C   UNL     1       0.061  10.871  19.589  0.00  0.00    +0.000 C 
ATOM      6  C   UNL     1       0.478  10.198  18.503  0.00  0.00    +0.000 C 
ATOM      7  C   UNL     1      -0.692   9.701  17.697  0.00  0.00    +0.000 C 
ATOM      8  C   UNL     1      -1.898  10.225  18.487  0.00  0.00    +0.000 C 
ENDROOT
BRANCH   1  10
ATOM      9  C   UNL     1      -4.847  11.709  16.842  0.00  0.00    +0.000 C 
ATOM     10  C   UNL     1      -4.157  11.676  18.200  0.00  0.00    +0.000 C 
BRANCH  10  11
ATOM     11  O   UNL     1      -4.486  12.848  18.942  0.00  0.00    +0.000 OA
ATOM     12  H   UNL     1      -3.935  12.890  19.741  0.00  0.00    +0.000 HD
ENDBRANCH  10  11
ENDBRANCH   1  10
BRANCH   5  13
ATOM     13  C   UNL     1       0.908  11.505  20.647  0.00  0.00    +0.000 C 
ATOM     14  O   UNL     1       1.161  11.003  21.734  0.00  0.00    +0.000 OA
BRANCH  13  15
ATOM     15  O   UNL     1       1.325  12.752  20.329  0.00  0.00    +0.000 OA
ATOM     16  H   UNL     1       2.293  12.871  20.444  0.00  0.00    +0.000 HD
ENDBRANCH  13  15
ENDBRANCH   5  13
BRANCH   6  17
ATOM     17  S   UNL     1       2.090   9.793  18.058  0.00  0.00    +0.000 S 
BRANCH  17  18
ATOM     18  C   UNL     1       2.170   8.120  18.594  0.00  0.00    +0.000 A 
ATOM     19  N   UNL     1       2.468   7.109  17.808  0.00  0.00    +0.000 NA
ATOM     20  C   UNL     1       2.439   5.923  18.537  0.00  0.00    +0.000 A 
ATOM     21  C   UNL     1       2.716   4.634  18.035  0.00  0.00    +0.000 A 
ATOM     22  C   UNL     1       2.594   3.526  18.879  0.00  0.00    +0.000 A 
ATOM     23 CL   UNL     1       2.898   1.949  18.257  0.00  0.00    +0.000 Cl
ATOM     24  C   UNL     1       2.219   3.674  20.211  0.00  0.00    +0.000 A 
ATOM     25  C   UNL     1       1.966   4.943  20.738  0.00  0.00    +0.000 A 
ATOM     26  C   UNL     1       2.081   6.054  19.882  0.00  0.00    +0.000 A 
ATOM     27  S   UNL     1       1.832   7.719  20.230  0.00  0.00    +0.000 S 
ENDBRANCH  17  18
ENDBRANCH   6  17
TORSDOF 6
ENDMDL
MODEL 5
REMARK VINA RESULT:      -6.9      1.745      2.233
REMARK  Name = 
REMARK  7 active torsions:
REMARK  status: ('A' for Active; 'I' for Inactive)
REMARK    1  A    between atoms: C_1  and  C_2
REMARK    2  A    between atoms: C_2  and  O_3
REMARK    3  A    between atoms: C_2  and  C_4
REMARK    4  A    between atoms: C_8  and  C_9
REMARK    5  A    between atoms: C_9  and  O_11
REMARK    6  A    between atoms: C_12  and  S_13
REMARK    7  A    between atoms: S_13  and  C_14
REMARK                            x       y       z     vdW  Elec       q    Type
REMARK                         _______ _______ _______ _____ _____    ______ ____
ROOT
ATOM      1  C   UNL     1       5.907   4.328  14.932  0.00  0.00    +0.000 C 
ATOM      2  C   UNL     1       6.982   4.728  15.955  0.00  0.00    +0.000 C 
ATOM      3  O   UNL     1       8.105   4.413  16.264  0.00  0.00    +0.000 OA
ATOM      4  N   UNL     1       6.164   5.645  16.556  0.00  0.00    +0.000 N 
ATOM      5  C   UNL     1       5.808   5.427  17.877  0.00  0.00    +0.000 C 
ATOM      6  C   UNL     1       4.540   4.999  17.996  0.00  0.00    +0.000 C 
ATOM      7  C   UNL     1       3.874   4.914  16.648  0.00  0.00    +0.000 C 
ATOM      8  C   UNL     1       4.990   5.344  15.688  0.00  0.00    +0.000 C 
ENDROOT
BRANCH   1  10
ATOM      9  C   UNL     1       6.342   3.265  12.644  0.00  0.00    +0.000 C 
ATOM     10  C   UNL     1       6.323   4.537  13.483  0.00  0.00    +0.000 C 
BRANCH  10  11
ATOM     11  O   UNL     1       7.609   5.151  13.463  0.00  0.00    +0.000 OA
ATOM     12  H   UNL     1       7.904   5.315  14.375  0.00  0.00    +0.000 HD
ENDBRANCH  10  11
ENDBRANCH   1  10
BRANCH   5  13
ATOM     13  C   UNL     1       6.795   5.660  18.977  0.00  0.00    +0.000 C 
ATOM     14  O   UNL     1       6.724   5.172  20.097  0.00  0.00    +0.000 OA
BRANCH  13  15
ATOM     15  O   UNL     1       7.767   6.544  18.652  0.00  0.00    +0.000 OA
ATOM     16  H   UNL     1       8.148   6.998  19.436  0.00  0.00    +0.000 HD
ENDBRANCH  13  15
ENDBRANCH   5  13
BRANCH   6  17
ATOM     17  S   UNL     1       3.655   4.682  19.437  0.00  0.00    +0.000 S 
BRANCH  17  18
ATOM     18  C   UNL     1       2.789   6.201  19.634  0.00  0.00    +0.000 A 
ATOM     19  N   UNL     1       2.151   6.546  20.731  0.00  0.00    +0.000 NA
ATOM     20  C   UNL     1       1.569   7.800  20.559  0.00  0.00    +0.000 A 
ATOM     21  C   UNL     1       0.814   8.502  21.522  0.00  0.00    +0.000 A 
ATOM     22  C   UNL     1       0.245   9.734  21.185  0.00  0.00    +0.000 A 
ATOM     23 CL   UNL     1      -0.707  10.574  22.349  0.00  0.00    +0.000 Cl
ATOM     24  C   UNL     1       0.424  10.288  19.922  0.00  0.00    +0.000 A 
ATOM     25  C   UNL     1       1.191   9.624  18.960  0.00  0.00    +0.000 A 
ATOM     26  C   UNL     1       1.753   8.380  19.301  0.00  0.00    +0.000 A 
ATOM     27  S   UNL     1       2.727   7.334  18.345  0.00  0.00    +0.000 S 
ENDBRANCH  17  18
ENDBRANCH   6  17
TORSDOF 6
ENDMDL
MODEL 6
REMARK VINA RESULT:      -6.9      5.863      9.037
REMARK  Name = 
REMARK  7 active torsions:
REMARK  status: ('A' for Active; 'I' for Inactive)
REMARK    1  A    between atoms: C_1  and  C_2
REMARK    2  A    between atoms: C_2  and  O_3
REMARK    3  A    between atoms: C_2  and  C_4
REMARK    4  A    between atoms: C_8  and  C_9
REMARK    5  A    between atoms: C_9  and  O_11
REMARK    6  A    between atoms: C_12  and  S_13
REMARK    7  A    between atoms: S_13  and  C_14
REMARK                            x       y       z     vdW  Elec       q    Type
REMARK                         _______ _______ _______ _____ _____    ______ ____
ROOT
ATOM      1  C   UNL     1      -2.619  11.513  18.202  0.00  0.00    +0.000 C 
ATOM      2  C   UNL     1      -1.981  11.987  19.516  0.00  0.00    +0.000 C 
ATOM      3  O   UNL     1      -1.931  12.983  20.195  0.00  0.00    +0.000 OA
ATOM      4  N   UNL     1      -1.330  10.799  19.707  0.00  0.00    +0.000 N 
ATOM      5  C   UNL     1       0.055  10.812  19.700  0.00  0.00    +0.000 C 
ATOM      6  C   UNL     1       0.561  10.303  18.564  0.00  0.00    +0.000 C 
ATOM      7  C   UNL     1      -0.540   9.842  17.646  0.00  0.00    +0.000 C 
ATOM      8  C   UNL     1      -1.809  10.195  18.431  0.00  0.00    +0.000 C 
ENDROOT
BRANCH   1  10
ATOM      9  C   UNL     1      -4.776  11.524  16.821  0.00  0.00    +0.000 C 
ATOM     10  C   UNL     1      -4.141  11.538  18.207  0.00  0.00    +0.000 C 
BRANCH  10  11
ATOM     11  O   UNL     1      -4.573  12.689  18.929  0.00  0.00    +0.000 OA
ATOM     12  H   UNL     1      -4.665  12.466  19.870  0.00  0.00    +0.000 HD
ENDBRANCH  10  11
ENDBRANCH   1  10
BRANCH   5  13
ATOM     13  C   UNL     1       0.815  11.358  20.868  0.00  0.00    +0.000 C 
ATOM     14  O   UNL     1       1.460  12.398  20.858  0.00  0.00    +0.000 OA
BRANCH  13  15
ATOM     15  O   UNL     1       0.794  10.548  21.952  0.00  0.00    +0.000 OA
ATOM     16  H   UNL     1       1.559  10.694  22.551  0.00  0.00    +0.000 HD
ENDBRANCH  13  15
ENDBRANCH   5  13
BRANCH   6  17
ATOM     17  S   UNL     1       2.213  10.049  18.154  0.00  0.00    +0.000 S 
BRANCH  17  18
ATOM     18  C   UNL     1       2.393   8.345  18.553  0.00  0.00    +0.000 A 
ATOM     19  N   UNL     1       1.900   7.788  19.638  0.00  0.00    +0.000 NA
ATOM     20  C   UNL     1       2.223   6.434  19.658  0.00  0.00    +0.000 A 
ATOM     21  C   UNL     1       1.857   5.508  20.658  0.00  0.00    +0.000 A 
ATOM     22  C   UNL     1       2.302   4.185  20.568  0.00  0.00    +0.000 A 
ATOM     23 CL   UNL     1       1.885   3.065  21.808  0.00  0.00    +0.000 Cl
ATOM     24  C   UNL     1       3.086   3.761  19.500  0.00  0.00    +0.000 A 
ATOM     25  C   UNL     1       3.439   4.653  18.483  0.00  0.00    +0.000 A 
ATOM     26  C   UNL     1       2.997   5.985  18.584  0.00  0.00    +0.000 A 
ATOM     27  S   UNL     1       3.268   7.300  17.509  0.00  0.00    +0.000 S 
ENDBRANCH  17  18
ENDBRANCH   6  17
TORSDOF 6
ENDMDL
MODEL 7
REMARK VINA RESULT:      -6.8      1.163      1.271
REMARK  Name = 
REMARK  7 active torsions:
REMARK  status: ('A' for Active; 'I' for Inactive)
REMARK    1  A    between atoms: C_1  and  C_2
REMARK    2  A    between atoms: C_2  and  O_3
REMARK    3  A    between atoms: C_2  and  C_4
REMARK    4  A    between atoms: C_8  and  C_9
REMARK    5  A    between atoms: C_9  and  O_11
REMARK    6  A    between atoms: C_12  and  S_13
REMARK    7  A    between atoms: S_13  and  C_14
REMARK                            x       y       z     vdW  Elec       q    Type
REMARK                         _______ _______ _______ _____ _____    ______ ____
ROOT
ATOM      1  C   UNL     1       6.008   4.010  14.615  0.00  0.00    +0.000 C 
ATOM      2  C   UNL     1       7.002   4.696  15.565  0.00  0.00    +0.000 C 
ATOM      3  O   UNL     1       8.179   4.663  15.829  0.00  0.00    +0.000 OA
ATOM      4  N   UNL     1       6.019   5.428  16.173  0.00  0.00    +0.000 N 
ATOM      5  C   UNL     1       5.777   5.197  17.518  0.00  0.00    +0.000 C 
ATOM      6  C   UNL     1       4.649   4.496  17.717  0.00  0.00    +0.000 C 
ATOM      7  C   UNL     1       3.967   4.195  16.410  0.00  0.00    +0.000 C 
ATOM      8  C   UNL     1       4.912   4.823  15.378  0.00  0.00    +0.000 C 
ENDROOT
BRANCH   1  10
ATOM      9  C   UNL     1       6.302   2.971  12.293  0.00  0.00    +0.000 C 
ATOM     10  C   UNL     1       6.304   4.239  13.140  0.00  0.00    +0.000 C 
BRANCH  10  11
ATOM     11  O   UNL     1       7.564   4.897  13.026  0.00  0.00    +0.000 OA
ATOM     12  H   UNL     1       8.091   4.727  13.824  0.00  0.00    +0.000 HD
ENDBRANCH  10  11
ENDBRANCH   1  10
BRANCH   5  13
ATOM     13  C   UNL     1       6.728   5.705  18.556  0.00  0.00    +0.000 C 
ATOM     14  O   UNL     1       6.800   5.286  19.704  0.00  0.00    +0.000 OA
BRANCH  13  15
ATOM     15  O   UNL     1       7.478   6.750  18.137  0.00  0.00    +0.000 OA
ATOM     16  H   UNL     1       8.339   6.815  18.607  0.00  0.00    +0.000 HD
ENDBRANCH  13  15
ENDBRANCH   5  13
BRANCH   6  17
ATOM     17  S   UNL     1       3.922   4.053  19.212  0.00  0.00    +0.000 S 
BRANCH  17  18
ATOM     18  C   UNL     1       2.974   5.495  19.557  0.00  0.00    +0.000 A 
ATOM     19  N   UNL     1       2.963   6.567  18.795  0.00  0.00    +0.000 NA
ATOM     20  C   UNL     1       2.120   7.526  19.350  0.00  0.00    +0.000 A 
ATOM     21  C   UNL     1       1.845   8.801  18.809  0.00  0.00    +0.000 A 
ATOM     22  C   UNL     1       1.015   9.681  19.510  0.00  0.00    +0.000 A 
ATOM     23 CL   UNL     1       0.710  11.250  18.867  0.00  0.00    +0.000 Cl
ATOM     24  C   UNL     1       0.441   9.317  20.723  0.00  0.00    +0.000 A 
ATOM     25  C   UNL     1       0.676   8.050  21.265  0.00  0.00    +0.000 A 
ATOM     26  C   UNL     1       1.520   7.171  20.561  0.00  0.00    +0.000 A 
ATOM     27  S   UNL     1       1.997   5.570  20.968  0.00  0.00    +0.000 S 
ENDBRANCH  17  18
ENDBRANCH   6  17
TORSDOF 6
ENDMDL
MODEL 8
REMARK VINA RESULT:      -6.8      3.227      4.824
REMARK  Name = 
REMARK  7 active torsions:
REMARK  status: ('A' for Active; 'I' for Inactive)
REMARK    1  A    between atoms: C_1  and  C_2
REMARK    2  A    between atoms: C_2  and  O_3
REMARK    3  A    between atoms: C_2  and  C_4
REMARK    4  A    between atoms: C_8  and  C_9
REMARK    5  A    between atoms: C_9  and  O_11
REMARK    6  A    between atoms: C_12  and  S_13
REMARK    7  A    between atoms: S_13  and  C_14
REMARK                            x       y       z     vdW  Elec       q    Type
REMARK                         _______ _______ _______ _____ _____    ______ ____
ROOT
ATOM      1  C   UNL     1       3.560   4.042  19.744  0.00  0.00    +0.000 C 
ATOM      2  C   UNL     1       4.780   4.430  18.894  0.00  0.00    +0.000 C 
ATOM      3  O   UNL     1       5.981   4.476  18.996  0.00  0.00    +0.000 OA
ATOM      4  N   UNL     1       4.003   4.831  17.841  0.00  0.00    +0.000 N 
ATOM      5  C   UNL     1       4.047   6.167  17.477  0.00  0.00    +0.000 C 
ATOM      6  C   UNL     1       2.946   6.833  17.862  0.00  0.00    +0.000 C 
ATOM      7  C   UNL     1       1.976   5.913  18.553  0.00  0.00    +0.000 C 
ATOM      8  C   UNL     1       2.713   4.567  18.538  0.00  0.00    +0.000 C 
ENDROOT
BRANCH   1  10
ATOM      9  C   UNL     1       2.859   2.326  21.509  0.00  0.00    +0.000 C 
ATOM     10  C   UNL     1       3.541   2.582  20.170  0.00  0.00    +0.000 C 
BRANCH  10  11
ATOM     11  O   UNL     1       4.883   2.102  20.209  0.00  0.00    +0.000 OA
ATOM     12  H   UNL     1       5.032   1.499  19.461  0.00  0.00    +0.000 HD
ENDBRANCH  10  11
ENDBRANCH   1  10
BRANCH   5  13
ATOM     13  C   UNL     1       5.233   6.715  16.746  0.00  0.00    +0.000 C 
ATOM     14  O   UNL     1       5.352   6.747  15.529  0.00  0.00    +0.000 OA
BRANCH  13  15
ATOM     15  O   UNL     1       6.233   7.117  17.565  0.00  0.00    +0.000 OA
ATOM     16  H   UNL     1       5.912   7.652  18.324  0.00  0.00    +0.000 HD
ENDBRANCH  13  15
ENDBRANCH   5  13
BRANCH   6  17
ATOM     17  S   UNL     1       2.536   8.476  17.556  0.00  0.00    +0.000 S 
BRANCH  17  18
ATOM     18  C   UNL     1       1.680   8.883  19.038  0.00  0.00    +0.000 A 
ATOM     19  N   UNL     1       0.879   9.919  19.163  0.00  0.00    +0.000 NA
ATOM     20  C   UNL     1       0.368   9.962  20.457  0.00  0.00    +0.000 A 
ATOM     21  C   UNL     1      -0.535  10.923  20.961  0.00  0.00    +0.000 A 
ATOM     22  C   UNL     1      -0.920  10.868  22.304  0.00  0.00    +0.000 A 
ATOM     23 CL   UNL     1      -1.992  12.063  22.927  0.00  0.00    +0.000 Cl
ATOM     24  C   UNL     1      -0.442   9.871  23.149  0.00  0.00    +0.000 A 
ATOM     25  C   UNL     1       0.431   8.893  22.666  0.00  0.00    +0.000 A 
ATOM     26  C   UNL     1       0.823   8.958  21.317  0.00  0.00    +0.000 A 
ATOM     27  S   UNL     1       1.875   7.916  20.443  0.00  0.00    +0.000 S 
ENDBRANCH  17  18
ENDBRANCH   6  17
TORSDOF 6
ENDMDL
MODEL 9
REMARK VINA RESULT:      -6.6      2.712      4.212
REMARK  Name = 
REMARK  7 active torsions:
REMARK  status: ('A' for Active; 'I' for Inactive)
REMARK    1  A    between atoms: C_1  and  C_2
REMARK    2  A    between atoms: C_2  and  O_3
REMARK    3  A    between atoms: C_2  and  C_4
REMARK    4  A    between atoms: C_8  and  C_9
REMARK    5  A    between atoms: C_9  and  O_11
REMARK    6  A    between atoms: C_12  and  S_13
REMARK    7  A    between atoms: S_13  and  C_14
REMARK                            x       y       z     vdW  Elec       q    Type
REMARK                         _______ _______ _______ _____ _____    ______ ____
ROOT
ATOM      1  C   UNL     1       5.953   5.872  17.448  0.00  0.00    +0.000 C 
ATOM      2  C   UNL     1       5.368   4.568  16.882  0.00  0.00    +0.000 C 
ATOM      3  O   UNL     1       5.072   4.093  15.814  0.00  0.00    +0.000 OA
ATOM      4  N   UNL     1       5.189   4.030  18.127  0.00  0.00    +0.000 N 
ATOM      5  C   UNL     1       3.893   3.759  18.535  0.00  0.00    +0.000 C 
ATOM      6  C   UNL     1       3.446   4.652  19.433  0.00  0.00    +0.000 C 
ATOM      7  C   UNL     1       4.509   5.671  19.750  0.00  0.00    +0.000 C 
ATOM      8  C   UNL     1       5.674   5.239  18.851  0.00  0.00    +0.000 C 
ENDROOT
BRANCH   1  10
ATOM      9  C   UNL     1       7.852   7.582  17.305  0.00  0.00    +0.000 C 
ATOM     10  C   UNL     1       7.362   6.180  16.964  0.00  0.00    +0.000 C 
BRANCH  10  11
ATOM     11  O   UNL     1       7.414   5.976  15.554  0.00  0.00    +0.000 OA
ATOM     12  H   UNL     1       6.652   5.440  15.277  0.00  0.00    +0.000 HD
ENDBRANCH  10  11
ENDBRANCH   1  10
BRANCH   5  13
ATOM     13  C   UNL     1       3.152   2.585  17.975  0.00  0.00    +0.000 C 
ATOM     14  O   UNL     1       3.367   1.417  18.270  0.00  0.00    +0.000 OA
BRANCH  13  15
ATOM     15  O   UNL     1       2.247   2.920  17.027  0.00  0.00    +0.000 OA
ATOM     16  H   UNL     1       2.472   3.757  16.564  0.00  0.00    +0.000 HD
ENDBRANCH  13  15
ENDBRANCH   5  13
BRANCH   6  17
ATOM     17  S   UNL     1       1.941   4.663  20.265  0.00  0.00    +0.000 S 
BRANCH  17  18
ATOM     18  C   UNL     1       1.595   6.388  20.299  0.00  0.00    +0.000 A 
ATOM     19  N   UNL     1       1.020   7.003  21.309  0.00  0.00    +0.000 NA
ATOM     20  C   UNL     1       0.884   8.357  21.018  0.00  0.00    +0.000 A 
ATOM     21  C   UNL     1       0.323   9.336  21.866  0.00  0.00    +0.000 A 
ATOM     22  C   UNL     1       0.206  10.654  21.412  0.00  0.00    +0.000 A 
ATOM     23 CL   UNL     1      -0.512  11.840  22.434  0.00  0.00    +0.000 Cl
ATOM     24  C   UNL     1       0.649  11.021  20.146  0.00  0.00    +0.000 A 
ATOM     25  C   UNL     1       1.232  10.075  19.298  0.00  0.00    +0.000 A 
ATOM     26  C   UNL     1       1.339   8.749  19.756  0.00  0.00    +0.000 A 
ATOM     27  S   UNL     1       1.997   7.377  18.953  0.00  0.00    +0.000 S 
ENDBRANCH  17  18
ENDBRANCH   6  17
TORSDOF 6
ENDMDL
