MODEL 1
REMARK VINA RESULT:      -6.5      0.000      0.000
REMARK  Name = 
REMARK  5 active torsions:
REMARK  status: ('A' for Active; 'I' for Inactive)
REMARK    1  A    between atoms: C_1  and  C_2
REMARK    2  A    between atoms: C_4  and  S_5
REMARK    3  A    between atoms: S_5  and  C_6
REMARK    4  A    between atoms: C_6  and  N_7
REMARK    5  A    between atoms: C_6  and  C_10
REMARK                            x       y       z     vdW  Elec       q    Type
REMARK                         _______ _______ _______ _____ _____    ______ ____
ROOT
ATOM      1  C   UNL     1       3.261   3.929  19.263  0.00  0.00    +0.000 C 
ENDROOT
BRANCH   1   2
ATOM      2  N   UNL     1       4.347   3.036  19.685  0.00  0.00    +0.000 N 
ATOM      3  C   UNL     1       4.406   1.734  19.284  0.00  0.00    +0.000 C 
ATOM      4  O   UNL     1       3.612   1.204  18.521  0.00  0.00    +0.000 OA
ATOM      5  H   UNL     1       4.936   3.346  20.446  0.00  0.00    +0.000 HD
ENDBRANCH   1   2
BRANCH   1   6
ATOM      6  C   UNL     1       1.996   3.923  20.243  0.00  0.00    +0.000 C 
ATOM      7 CL   UNL     1       2.263   3.102  21.842  0.00  0.00    +0.000 Cl
ATOM      8 CL   UNL     1       1.478   5.608  20.646  0.00  0.00    +0.000 Cl
ATOM      9 CL   UNL     1       0.557   3.081  19.514  0.00  0.00    +0.000 Cl
ENDBRANCH   1   6
BRANCH   1  10
ATOM     10  S   UNL     1       4.088   5.577  19.066  0.00  0.00    +0.000 S 
BRANCH  10  14
ATOM     11  C   UNL     1       6.396   4.636  14.503  0.00  0.00    +0.000 C 
ATOM     12  C   UNL     1       6.491   4.766  15.993  0.00  0.00    +0.000 A 
ATOM     13  C   UNL     1       5.391   5.142  16.734  0.00  0.00    +0.000 A 
ATOM     14  C   UNL     1       5.545   5.193  18.106  0.00  0.00    +0.000 A 
ATOM     15  N   UNL     1       6.705   4.915  18.719  0.00  0.00    +0.000 NA
ATOM     16  C   UNL     1       7.726   4.588  17.909  0.00  0.00    +0.000 A 
ATOM     17  N   UNL     1       7.680   4.496  16.567  0.00  0.00    +0.000 NA
ENDBRANCH  10  14
ENDBRANCH   1  10
TORSDOF 4
ENDMDL
MODEL 2
REMARK VINA RESULT:      -6.3      0.380      1.313
REMARK  Name = 
REMARK  5 active torsions:
REMARK  status: ('A' for Active; 'I' for Inactive)
REMARK    1  A    between atoms: C_1  and  C_2
REMARK    2  A    between atoms: C_4  and  S_5
REMARK    3  A    between atoms: S_5  and  C_6
REMARK    4  A    between atoms: C_6  and  N_7
REMARK    5  A    between atoms: C_6  and  C_10
REMARK                            x       y       z     vdW  Elec       q    Type
REMARK                         _______ _______ _______ _____ _____    ______ ____
ROOT
ATOM      1  C   UNL     1       3.187   4.065  19.164  0.00  0.00    +0.000 C 
ENDROOT
BRANCH   1   2
ATOM      2  N   UNL     1       4.131   2.945  19.258  0.00  0.00    +0.000 N 
ATOM      3  C   UNL     1       3.927   1.773  18.590  0.00  0.00    +0.000 C 
ATOM      4  O   UNL     1       2.992   1.557  17.834  0.00  0.00    +0.000 OA
ATOM      5  H   UNL     1       4.827   2.981  19.991  0.00  0.00    +0.000 HD
ENDBRANCH   1   2
BRANCH   1   6
ATOM      6  C   UNL     1       1.989   3.996  20.224  0.00  0.00    +0.000 C 
ATOM      7 CL   UNL     1       0.486   3.161  19.636  0.00  0.00    +0.000 Cl
ATOM      8 CL   UNL     1       2.489   3.101  21.713  0.00  0.00    +0.000 Cl
ATOM      9 CL   UNL     1       1.436   5.647  20.753  0.00  0.00    +0.000 Cl
ENDBRANCH   1   6
BRANCH   1  10
ATOM     10  S   UNL     1       4.262   5.569  19.301  0.00  0.00    +0.000 S 
BRANCH  10  14
ATOM     11  C   UNL     1       6.238   4.793  14.554  0.00  0.00    +0.000 C 
ATOM     12  C   UNL     1       6.433   4.841  16.040  0.00  0.00    +0.000 A 
ATOM     13  C   UNL     1       5.397   5.215  16.869  0.00  0.00    +0.000 A 
ATOM     14  C   UNL     1       5.640   5.187  18.229  0.00  0.00    +0.000 A 
ATOM     15  N   UNL     1       6.826   4.838  18.750  0.00  0.00    +0.000 NA
ATOM     16  C   UNL     1       7.779   4.519  17.859  0.00  0.00    +0.000 A 
ATOM     17  N   UNL     1       7.644   4.501  16.520  0.00  0.00    +0.000 NA
ENDBRANCH  10  14
ENDBRANCH   1  10
TORSDOF 4
ENDMDL
MODEL 3
REMARK VINA RESULT:      -6.3      1.859      2.196
REMARK  Name = 
REMARK  5 active torsions:
REMARK  status: ('A' for Active; 'I' for Inactive)
REMARK    1  A    between atoms: C_1  and  C_2
REMARK    2  A    between atoms: C_4  and  S_5
REMARK    3  A    between atoms: S_5  and  C_6
REMARK    4  A    between atoms: C_6  and  N_7
REMARK    5  A    between atoms: C_6  and  C_10
REMARK                            x       y       z     vdW  Elec       q    Type
REMARK                         _______ _______ _______ _____ _____    ______ ____
ROOT
ATOM      1  C   UNL     1       3.166   3.982  19.696  0.00  0.00    +0.000 C 
ENDROOT
BRANCH   1   2
ATOM      2  N   UNL     1       2.330   4.282  20.865  0.00  0.00    +0.000 N 
ATOM      3  C   UNL     1       2.220   3.416  21.913  0.00  0.00    +0.000 C 
ATOM      4  O   UNL     1       2.822   2.356  22.006  0.00  0.00    +0.000 OA
ATOM      5  H   UNL     1       1.674   5.047  20.786  0.00  0.00    +0.000 HD
ENDBRANCH   1   2
BRANCH   1   6
ATOM      6  C   UNL     1       2.408   3.162  18.549  0.00  0.00    +0.000 C 
ATOM      7 CL   UNL     1       0.962   2.214  19.105  0.00  0.00    +0.000 Cl
ATOM      8 CL   UNL     1       1.793   4.268  17.258  0.00  0.00    +0.000 Cl
ATOM      9 CL   UNL     1       3.490   1.943  17.739  0.00  0.00    +0.000 Cl
ENDBRANCH   1   6
BRANCH   1  10
ATOM     10  S   UNL     1       3.814   5.638  19.172  0.00  0.00    +0.000 S 
BRANCH  10  14
ATOM     11  C   UNL     1       6.406   4.258  14.880  0.00  0.00    +0.000 C 
ATOM     12  C   UNL     1       6.417   4.596  16.341  0.00  0.00    +0.000 A 
ATOM     13  C   UNL     1       5.259   4.988  16.977  0.00  0.00    +0.000 A 
ATOM     14  C   UNL     1       5.340   5.234  18.335  0.00  0.00    +0.000 A 
ATOM     15  N   UNL     1       6.484   5.128  19.027  0.00  0.00    +0.000 NA
ATOM     16  C   UNL     1       7.563   4.769  18.311  0.00  0.00    +0.000 A 
ATOM     17  N   UNL     1       7.590   4.493  16.995  0.00  0.00    +0.000 NA
ENDBRANCH  10  14
ENDBRANCH   1  10
TORSDOF 4
ENDMDL
MODEL 4
REMARK VINA RESULT:      -6.2      1.864      2.299
REMARK  Name = 
REMARK  5 active torsions:
REMARK  status: ('A' for Active; 'I' for Inactive)
REMARK    1  A    between atoms: C_1  and  C_2
REMARK    2  A    between atoms: C_4  and  S_5
REMARK    3  A    between atoms: S_5  and  C_6
REMARK    4  A    between atoms: C_6  and  N_7
REMARK    5  A    between atoms: C_6  and  C_10
REMARK                            x       y       z     vdW  Elec       q    Type
REMARK                         _______ _______ _______ _____ _____    ______ ____
ROOT
ATOM      1  C   UNL     1       2.983   3.984  19.666  0.00  0.00    +0.000 C 
ENDROOT
BRANCH   1   2
ATOM      2  N   UNL     1       2.168   4.231  20.862  0.00  0.00    +0.000 N 
ATOM      3  C   UNL     1       2.173   3.376  21.925  0.00  0.00    +0.000 C 
ATOM      4  O   UNL     1       2.865   2.373  22.008  0.00  0.00    +0.000 OA
ATOM      5  H   UNL     1       1.447   4.936  20.797  0.00  0.00    +0.000 HD
ENDBRANCH   1   2
BRANCH   1   6
ATOM      6  C   UNL     1       2.180   3.296  18.464  0.00  0.00    +0.000 C 
ATOM      7 CL   UNL     1       3.161   2.177  17.421  0.00  0.00    +0.000 Cl
ATOM      8 CL   UNL     1       0.807   2.298  19.085  0.00  0.00    +0.000 Cl
ATOM      9 CL   UNL     1       1.475   4.517  17.313  0.00  0.00    +0.000 Cl
ENDBRANCH   1   6
BRANCH   1  10
ATOM     10  S   UNL     1       3.710   5.642  19.268  0.00  0.00    +0.000 S 
BRANCH  10  14
ATOM     11  C   UNL     1       6.088   4.434  14.805  0.00  0.00    +0.000 C 
ATOM     12  C   UNL     1       6.165   4.678  16.282  0.00  0.00    +0.000 A 
ATOM     13  C   UNL     1       5.048   5.075  16.984  0.00  0.00    +0.000 A 
ATOM     14  C   UNL     1       5.187   5.233  18.350  0.00  0.00    +0.000 A 
ATOM     15  N   UNL     1       6.350   5.039  18.990  0.00  0.00    +0.000 NA
ATOM     16  C   UNL     1       7.387   4.683  18.214  0.00  0.00    +0.000 A 
ATOM     17  N   UNL     1       7.356   4.490  16.883  0.00  0.00    +0.000 NA
ENDBRANCH  10  14
ENDBRANCH   1  10
TORSDOF 4
ENDMDL
MODEL 5
REMARK VINA RESULT:      -6.1      0.548      1.363
REMARK  Name = 
REMARK  5 active torsions:
REMARK  status: ('A' for Active; 'I' for Inactive)
REMARK    1  A    between atoms: C_1  and  C_2
REMARK    2  A    between atoms: C_4  and  S_5
REMARK    3  A    between atoms: S_5  and  C_6
REMARK    4  A    between atoms: C_6  and  N_7
REMARK    5  A    between atoms: C_6  and  C_10
REMARK                            x       y       z     vdW  Elec       q    Type
REMARK                         _______ _______ _______ _____ _____    ______ ____
ROOT
ATOM      1  C   UNL     1       3.188   3.984  19.208  0.00  0.00    +0.000 C 
ENDROOT
BRANCH   1   2
ATOM      2  N   UNL     1       3.990   2.755  19.242  0.00  0.00    +0.000 N 
ATOM      3  C   UNL     1       3.712   1.691  18.436  0.00  0.00    +0.000 C 
ATOM      4  O   UNL     1       2.824   1.667  17.597  0.00  0.00    +0.000 OA
ATOM      5  H   UNL     1       4.623   2.633  20.021  0.00  0.00    +0.000 HD
ENDBRANCH   1   2
BRANCH   1   6
ATOM      6  C   UNL     1       1.960   3.987  20.235  0.00  0.00    +0.000 C 
ATOM      7 CL   UNL     1       1.382   5.634  20.742  0.00  0.00    +0.000 Cl
ATOM      8 CL   UNL     1       0.515   3.166  19.524  0.00  0.00    +0.000 Cl
ATOM      9 CL   UNL     1       2.354   3.126  21.789  0.00  0.00    +0.000 Cl
ENDBRANCH   1   6
BRANCH   1  10
ATOM     10  S   UNL     1       4.428   5.336  19.473  0.00  0.00    +0.000 S 
BRANCH  10  14
ATOM     11  C   UNL     1       5.825   4.285  14.575  0.00  0.00    +0.000 C 
ATOM     12  C   UNL     1       6.210   4.500  16.008  0.00  0.00    +0.000 A 
ATOM     13  C   UNL     1       5.260   4.853  16.942  0.00  0.00    +0.000 A 
ATOM     14  C   UNL     1       5.684   4.985  18.251  0.00  0.00    +0.000 A 
ATOM     15  N   UNL     1       6.960   4.808  18.624  0.00  0.00    +0.000 NA
ATOM     16  C   UNL     1       7.815   4.497  17.635  0.00  0.00    +0.000 A 
ATOM     17  N   UNL     1       7.505   4.331  16.337  0.00  0.00    +0.000 NA
ENDBRANCH  10  14
ENDBRANCH   1  10
TORSDOF 4
ENDMDL
MODEL 6
REMARK VINA RESULT:      -6.1      2.347      2.673
REMARK  Name = 
REMARK  5 active torsions:
REMARK  status: ('A' for Active; 'I' for Inactive)
REMARK    1  A    between atoms: C_1  and  C_2
REMARK    2  A    between atoms: C_4  and  S_5
REMARK    3  A    between atoms: S_5  and  C_6
REMARK    4  A    between atoms: C_6  and  N_7
REMARK    5  A    between atoms: C_6  and  C_10
REMARK                            x       y       z     vdW  Elec       q    Type
REMARK                         _______ _______ _______ _____ _____    ______ ____
ROOT
ATOM      1  C   UNL     1       3.357   4.654  19.308  0.00  0.00    +0.000 C 
ENDROOT
BRANCH   1   2
ATOM      2  N   UNL     1       3.487   5.811  18.414  0.00  0.00    +0.000 N 
ATOM      3  C   UNL     1       2.915   7.014  18.707  0.00  0.00    +0.000 C 
ATOM      4  O   UNL     1       2.295   7.260  19.731  0.00  0.00    +0.000 OA
ATOM      5  H   UNL     1       3.831   5.641  17.479  0.00  0.00    +0.000 HD
ENDBRANCH   1   2
BRANCH   1   6
ATOM      6  C   UNL     1       2.028   3.793  19.069  0.00  0.00    +0.000 C 
ATOM      7 CL   UNL     1       2.270   1.993  19.039  0.00  0.00    +0.000 Cl
ATOM      8 CL   UNL     1       0.814   4.096  20.374  0.00  0.00    +0.000 Cl
ATOM      9 CL   UNL     1       1.222   4.189  17.486  0.00  0.00    +0.000 Cl
ENDBRANCH   1   6
BRANCH   1  10
ATOM     10  S   UNL     1       4.942   3.722  19.068  0.00  0.00    +0.000 S 
BRANCH  10  14
ATOM     11  C   UNL     1       6.888   4.751  14.357  0.00  0.00    +0.000 C 
ATOM     12  C   UNL     1       6.719   5.138  15.795  0.00  0.00    +0.000 A 
ATOM     13  C   UNL     1       5.937   4.378  16.637  0.00  0.00    +0.000 A 
ATOM     14  C   UNL     1       5.871   4.773  17.960  0.00  0.00    +0.000 A 
ATOM     15  N   UNL     1       6.509   5.855  18.430  0.00  0.00    +0.000 NA
ATOM     16  C   UNL     1       7.221   6.546  17.525  0.00  0.00    +0.000 A 
ATOM     17  N   UNL     1       7.362   6.242  16.222  0.00  0.00    +0.000 NA
ENDBRANCH  10  14
ENDBRANCH   1  10
TORSDOF 4
ENDMDL
MODEL 7
REMARK VINA RESULT:      -6.1      2.370      2.740
REMARK  Name = 
REMARK  5 active torsions:
REMARK  status: ('A' for Active; 'I' for Inactive)
REMARK    1  A    between atoms: C_1  and  C_2
REMARK    2  A    between atoms: C_4  and  S_5
REMARK    3  A    between atoms: S_5  and  C_6
REMARK    4  A    between atoms: C_6  and  N_7
REMARK    5  A    between atoms: C_6  and  C_10
REMARK                            x       y       z     vdW  Elec       q    Type
REMARK                         _______ _______ _______ _____ _____    ______ ____
ROOT
ATOM      1  C   UNL     1       3.391   4.753  19.322  0.00  0.00    +0.000 C 
ENDROOT
BRANCH   1   2
ATOM      2  N   UNL     1       3.521   5.868  18.377  0.00  0.00    +0.000 N 
ATOM      3  C   UNL     1       2.927   7.075  18.602  0.00  0.00    +0.000 C 
ATOM      4  O   UNL     1       2.283   7.359  19.601  0.00  0.00    +0.000 OA
ATOM      5  H   UNL     1       3.886   5.660  17.457  0.00  0.00    +0.000 HD
ENDBRANCH   1   2
BRANCH   1   6
ATOM      6  C   UNL     1       2.077   3.865  19.103  0.00  0.00    +0.000 C 
ATOM      7 CL   UNL     1       0.772   4.101  20.344  0.00  0.00    +0.000 Cl
ATOM      8 CL   UNL     1       1.303   4.232  17.512  0.00  0.00    +0.000 Cl
ATOM      9 CL   UNL     1       2.435   2.080  19.126  0.00  0.00    +0.000 Cl
ENDBRANCH   1   6
BRANCH   1  10
ATOM     10  S   UNL     1       4.991   3.831  19.150  0.00  0.00    +0.000 S 
BRANCH  10  14
ATOM     11  C   UNL     1       6.557   4.338  14.217  0.00  0.00    +0.000 C 
ATOM     12  C   UNL     1       6.522   4.866  15.619  0.00  0.00    +0.000 A 
ATOM     13  C   UNL     1       5.794   4.218  16.593  0.00  0.00    +0.000 A 
ATOM     14  C   UNL     1       5.851   4.738  17.872  0.00  0.00    +0.000 A 
ATOM     15  N   UNL     1       6.556   5.837  18.180  0.00  0.00    +0.000 NA
ATOM     16  C   UNL     1       7.208   6.413  17.156  0.00  0.00    +0.000 A 
ATOM     17  N   UNL     1       7.229   5.982  15.882  0.00  0.00    +0.000 NA
ENDBRANCH  10  14
ENDBRANCH   1  10
TORSDOF 4
ENDMDL
MODEL 8
REMARK VINA RESULT:      -6.1      2.423      2.898
REMARK  Name = 
REMARK  5 active torsions:
REMARK  status: ('A' for Active; 'I' for Inactive)
REMARK    1  A    between atoms: C_1  and  C_2
REMARK    2  A    between atoms: C_4  and  S_5
REMARK    3  A    between atoms: S_5  and  C_6
REMARK    4  A    between atoms: C_6  and  N_7
REMARK    5  A    between atoms: C_6  and  C_10
REMARK                            x       y       z     vdW  Elec       q    Type
REMARK                         _______ _______ _______ _____ _____    ______ ____
ROOT
ATOM      1  C   UNL     1       3.201   4.368  19.578  0.00  0.00    +0.000 C 
ENDROOT
BRANCH   1   2
ATOM      2  N   UNL     1       3.119   5.801  19.270  0.00  0.00    +0.000 N 
ATOM      3  C   UNL     1       2.271   6.634  19.940  0.00  0.00    +0.000 C 
ATOM      4  O   UNL     1       1.548   6.294  20.865  0.00  0.00    +0.000 OA
ATOM      5  H   UNL     1       3.550   6.119  18.413  0.00  0.00    +0.000 HD
ENDBRANCH   1   2
BRANCH   1   6
ATOM      6  C   UNL     1       2.099   3.479  18.833  0.00  0.00    +0.000 C 
ATOM      7 CL   UNL     1       2.709   1.915  18.139  0.00  0.00    +0.000 Cl
ATOM      8 CL   UNL     1       0.763   3.017  19.961  0.00  0.00    +0.000 Cl
ATOM      9 CL   UNL     1       1.336   4.352  17.430  0.00  0.00    +0.000 Cl
ENDBRANCH   1   6
BRANCH   1  10
ATOM     10  S   UNL     1       4.957   3.925  19.182  0.00  0.00    +0.000 S 
BRANCH  10  14
ATOM     11  C   UNL     1       5.699   4.068  14.037  0.00  0.00    +0.000 C 
ATOM     12  C   UNL     1       5.617   4.789  15.349  0.00  0.00    +0.000 A 
ATOM     13  C   UNL     1       5.288   4.110  16.502  0.00  0.00    +0.000 A 
ATOM     14  C   UNL     1       5.280   4.834  17.678  0.00  0.00    +0.000 A 
ATOM     15  N   UNL     1       5.555   6.146  17.727  0.00  0.00    +0.000 NA
ATOM     16  C   UNL     1       5.835   6.724  16.546  0.00  0.00    +0.000 A 
ATOM     17  N   UNL     1       5.882   6.110  15.350  0.00  0.00    +0.000 NA
ENDBRANCH  10  14
ENDBRANCH   1  10
TORSDOF 4
ENDMDL
MODEL 9
REMARK VINA RESULT:      -6.0      2.379      2.946
REMARK  Name = 
REMARK  5 active torsions:
REMARK  status: ('A' for Active; 'I' for Inactive)
REMARK    1  A    between atoms: C_1  and  C_2
REMARK    2  A    between atoms: C_4  and  S_5
REMARK    3  A    between atoms: S_5  and  C_6
REMARK    4  A    between atoms: C_6  and  N_7
REMARK    5  A    between atoms: C_6  and  C_10
REMARK                            x       y       z     vdW  Elec       q    Type
REMARK                         _______ _______ _______ _____ _____    ______ ____
ROOT
ATOM      1  C   UNL     1       3.343   4.750  19.315  0.00  0.00    +0.000 C 
ENDROOT
BRANCH   1   2
ATOM      2  N   UNL     1       3.512   5.904  18.424  0.00  0.00    +0.000 N 
ATOM      3  C   UNL     1       2.896   7.097  18.666  0.00  0.00    +0.000 C 
ATOM      4  O   UNL     1       2.199   7.335  19.642  0.00  0.00    +0.000 OA
ATOM      5  H   UNL     1       3.925   5.736  17.516  0.00  0.00    +0.000 HD
ENDBRANCH   1   2
BRANCH   1   6
ATOM      6  C   UNL     1       2.078   3.835  18.961  0.00  0.00    +0.000 C 
ATOM      7 CL   UNL     1       1.218   4.270  17.421  0.00  0.00    +0.000 Cl
ATOM      8 CL   UNL     1       2.560   2.103  18.772  0.00  0.00    +0.000 Cl
ATOM      9 CL   UNL     1       0.796   3.896  20.251  0.00  0.00    +0.000 Cl
ENDBRANCH   1   6
BRANCH   1  10
ATOM     10  S   UNL     1       4.979   3.881  19.237  0.00  0.00    +0.000 S 
BRANCH  10  14
ATOM     11  C   UNL     1       6.441   4.134  14.253  0.00  0.00    +0.000 C 
ATOM     12  C   UNL     1       6.445   4.727  15.629  0.00  0.00    +0.000 A 
ATOM     13  C   UNL     1       5.729   4.136  16.648  0.00  0.00    +0.000 A 
ATOM     14  C   UNL     1       5.822   4.714  17.900  0.00  0.00    +0.000 A 
ATOM     15  N   UNL     1       6.550   5.815  18.141  0.00  0.00    +0.000 NA
ATOM     16  C   UNL     1       7.186   6.334  17.077  0.00  0.00    +0.000 A 
ATOM     17  N   UNL     1       7.173   5.844  15.824  0.00  0.00    +0.000 NA
ENDBRANCH  10  14
ENDBRANCH   1  10
TORSDOF 4
ENDMDL
