MODEL 1
REMARK VINA RESULT:      -8.4      0.000      0.000
REMARK  Name = 
REMARK  5 active torsions:
REMARK  status: ('A' for Active; 'I' for Inactive)
REMARK    1  A    between atoms: C_1  and  C_2
REMARK    2  A    between atoms: C_2  and  N_3
REMARK    3  A    between atoms: N_9  and  N_10
REMARK    4  A    between atoms: C_11  and  C_13
REMARK    5  A    between atoms: C_24  and  C_25
REMARK                            x       y       z     vdW  Elec       q    Type
REMARK                         _______ _______ _______ _____ _____    ______ ____
ROOT
ATOM      1  C   UNL     1       2.770   7.533  18.227  0.00  0.00    +0.000 A 
ATOM      2  C   UNL     1       2.269   6.724  19.241  0.00  0.00    +0.000 A 
ATOM      3  C   UNL     1       2.815   5.439  19.355  0.00  0.00    +0.000 A 
ATOM      4  C   UNL     1       3.798   5.053  18.440  0.00  0.00    +0.000 A 
ATOM      5  N   UNL     1       4.111   3.745  18.748  0.00  0.00    +0.000 N 
ATOM      6  C   UNL     1       3.447   3.311  19.866  0.00  0.00    +0.000 A 
ATOM      7  C   UNL     1       3.534   2.089  20.544  0.00  0.00    +0.000 A 
ATOM      8  C   UNL     1       2.684   1.894  21.635  0.00  0.00    +0.000 A 
ATOM      9  C   UNL     1       1.787   2.885  22.024  0.00  0.00    +0.000 A 
ATOM     10  C   UNL     1       1.730   4.110  21.345  0.00  0.00    +0.000 A 
ATOM     11  C   UNL     1       2.585   4.336  20.246  0.00  0.00    +0.000 A 
ATOM     12  C   UNL     1       4.273   5.904  17.419  0.00  0.00    +0.000 A 
ATOM     13  N   UNL     1       3.750   7.163  17.358  0.00  0.00    +0.000 NA
ATOM     14  H   UNL     1       4.757   3.169  18.232  0.00  0.00    +0.000 HD
ENDROOT
BRANCH  12  15
ATOM     15  C   UNL     1       5.269   5.489  16.408  0.00  0.00    +0.000 A 
ATOM     16  C   UNL     1       4.874   4.684  15.313  0.00  0.00    +0.000 A 
ATOM     17  C   UNL     1       5.734   4.384  14.251  0.00  0.00    +0.000 A 
ATOM     18  C   UNL     1       7.048   4.825  14.284  0.00  0.00    +0.000 A 
ATOM     19  C   UNL     1       7.497   5.555  15.381  0.00  0.00    +0.000 A 
ATOM     20  C   UNL     1       6.623   5.894  16.429  0.00  0.00    +0.000 A 
ATOM     21 CL   UNL     1       7.312   6.859  17.693  0.00  0.00    +0.000 Cl
ENDBRANCH  12  15
BRANCH   1  23
ATOM     22  N   UNL     1       1.193   9.247  18.957  0.00  0.00    +0.000 N 
ATOM     23  C   UNL     1       2.184   8.904  18.048  0.00  0.00    +0.000 C 
ATOM     24  O   UNL     1       2.592   9.635  17.149  0.00  0.00    +0.000 OA
ATOM     25  H   UNL     1       0.926   8.590  19.692  0.00  0.00    +0.000 HD
BRANCH  22  32
ATOM     26  N   UNL     1      -0.481  12.237  19.992  0.00  0.00    +0.000 N 
ATOM     27  C   UNL     1      -0.947  12.685  21.209  0.00  0.00    +0.000 C 
ATOM     28  O   UNL     1      -1.392  13.805  21.432  0.00  0.00    +0.000 OA
ATOM     29  C   UNL     1      -0.873  11.615  22.266  0.00  0.00    +0.000 C 
ATOM     30  S   UNL     1       0.035  10.236  21.532  0.00  0.00    +0.000 S 
ATOM     31  C   UNL     1       0.099  10.995  19.963  0.00  0.00    +0.000 C 
ATOM     32  N   UNL     1       0.614  10.488  18.892  0.00  0.00    +0.000 NA
BRANCH  26  34
ATOM     33  C   UNL     1       0.673  14.004  18.705  0.00  0.00    +0.000 C 
ATOM     34  C   UNL     1      -0.543  13.098  18.819  0.00  0.00    +0.000 C 
ENDBRANCH  26  34
ENDBRANCH  22  32
ENDBRANCH   1  23
TORSDOF 4
ENDMDL
MODEL 2
REMARK VINA RESULT:      -8.3      1.816      4.848
REMARK  Name = 
REMARK  5 active torsions:
REMARK  status: ('A' for Active; 'I' for Inactive)
REMARK    1  A    between atoms: C_1  and  C_2
REMARK    2  A    between atoms: C_2  and  N_3
REMARK    3  A    between atoms: N_9  and  N_10
REMARK    4  A    between atoms: C_11  and  C_13
REMARK    5  A    between atoms: C_24  and  C_25
REMARK                            x       y       z     vdW  Elec       q    Type
REMARK                         _______ _______ _______ _____ _____    ______ ____
ROOT
ATOM      1  C   UNL     1       2.640   7.699  18.146  0.00  0.00    +0.000 A 
ATOM      2  C   UNL     1       3.592   7.545  17.144  0.00  0.00    +0.000 A 
ATOM      3  C   UNL     1       4.132   6.264  16.972  0.00  0.00    +0.000 A 
ATOM      4  C   UNL     1       3.698   5.244  17.823  0.00  0.00    +0.000 A 
ATOM      5  N   UNL     1       4.421   4.123  17.471  0.00  0.00    +0.000 N 
ATOM      6  C   UNL     1       5.222   4.354  16.382  0.00  0.00    +0.000 A 
ATOM      7  C   UNL     1       6.051   3.474  15.674  0.00  0.00    +0.000 A 
ATOM      8  C   UNL     1       6.809   4.003  14.629  0.00  0.00    +0.000 A 
ATOM      9  C   UNL     1       6.738   5.357  14.311  0.00  0.00    +0.000 A 
ATOM     10  C   UNL     1       5.886   6.217  15.018  0.00  0.00    +0.000 A 
ATOM     11  C   UNL     1       5.101   5.705  16.073  0.00  0.00    +0.000 A 
ATOM     12  C   UNL     1       2.734   5.445  18.835  0.00  0.00    +0.000 A 
ATOM     13  N   UNL     1       2.199   6.694  18.952  0.00  0.00    +0.000 NA
ATOM     14  H   UNL     1       4.369   3.231  17.938  0.00  0.00    +0.000 HD
ENDROOT
BRANCH  12  15
ATOM     15  C   UNL     1       2.310   4.390  19.780  0.00  0.00    +0.000 A 
ATOM     16  C   UNL     1       2.670   4.477  21.146  0.00  0.00    +0.000 A 
ATOM     17  C   UNL     1       2.177   3.592  22.111  0.00  0.00    +0.000 A 
ATOM     18  C   UNL     1       1.358   2.541  21.727  0.00  0.00    +0.000 A 
ATOM     19  C   UNL     1       1.044   2.376  20.381  0.00  0.00    +0.000 A 
ATOM     20  C   UNL     1       1.503   3.288  19.415  0.00  0.00    +0.000 A 
ATOM     21 CL   UNL     1       0.977   2.985  17.792  0.00  0.00    +0.000 Cl
ENDBRANCH  12  15
BRANCH   1  23
ATOM     22  N   UNL     1       1.402   9.224  19.595  0.00  0.00    +0.000 N 
ATOM     23  C   UNL     1       2.066   9.066  18.387  0.00  0.00    +0.000 C 
ATOM     24  O   UNL     1       2.207   9.949  17.545  0.00  0.00    +0.000 OA
ATOM     25  H   UNL     1       1.347   8.445  20.253  0.00  0.00    +0.000 HD
BRANCH  22  32
ATOM     26  N   UNL     1      -0.328  11.755  21.442  0.00  0.00    +0.000 N 
ATOM     27  C   UNL     1      -0.944  11.770  22.676  0.00  0.00    +0.000 C 
ATOM     28  O   UNL     1      -1.389  12.764  23.237  0.00  0.00    +0.000 OA
ATOM     29  C   UNL     1      -1.037  10.390  23.272  0.00  0.00    +0.000 C 
ATOM     30  S   UNL     1      -0.070   9.306  22.198  0.00  0.00    +0.000 S 
ATOM     31  C   UNL     1       0.222  10.569  21.032  0.00  0.00    +0.000 C 
ATOM     32  N   UNL     1       0.865  10.444  19.918  0.00  0.00    +0.000 NA
BRANCH  26  34
ATOM     33  C   UNL     1      -1.404  13.191  19.742  0.00  0.00    +0.000 C 
ATOM     34  C   UNL     1      -0.213  12.981  20.664  0.00  0.00    +0.000 C 
ENDBRANCH  26  34
ENDBRANCH  22  32
ENDBRANCH   1  23
TORSDOF 4
ENDMDL
MODEL 3
REMARK VINA RESULT:      -8.3      4.979      7.687
REMARK  Name = 
REMARK  5 active torsions:
REMARK  status: ('A' for Active; 'I' for Inactive)
REMARK    1  A    between atoms: C_1  and  C_2
REMARK    2  A    between atoms: C_2  and  N_3
REMARK    3  A    between atoms: N_9  and  N_10
REMARK    4  A    between atoms: C_11  and  C_13
REMARK    5  A    between atoms: C_24  and  C_25
REMARK                            x       y       z     vdW  Elec       q    Type
REMARK                         _______ _______ _______ _____ _____    ______ ____
ROOT
ATOM      1  C   UNL     1       7.180   6.627  17.638  0.00  0.00    +0.000 A 
ATOM      2  C   UNL     1       7.550   6.288  16.341  0.00  0.00    +0.000 A 
ATOM      3  C   UNL     1       6.687   5.438  15.637  0.00  0.00    +0.000 A 
ATOM      4  C   UNL     1       5.539   4.975  16.285  0.00  0.00    +0.000 A 
ATOM      5  N   UNL     1       4.914   4.130  15.392  0.00  0.00    +0.000 N 
ATOM      6  C   UNL     1       5.554   4.103  14.180  0.00  0.00    +0.000 A 
ATOM      7  C   UNL     1       5.210   3.437  12.998  0.00  0.00    +0.000 A 
ATOM      8  C   UNL     1       6.090   3.541  11.919  0.00  0.00    +0.000 A 
ATOM      9  C   UNL     1       7.264   4.282  12.027  0.00  0.00    +0.000 A 
ATOM     10  C   UNL     1       7.581   4.959  13.213  0.00  0.00    +0.000 A 
ATOM     11  C   UNL     1       6.702   4.878  14.315  0.00  0.00    +0.000 A 
ATOM     12  C   UNL     1       5.205   5.338  17.608  0.00  0.00    +0.000 A 
ATOM     13  N   UNL     1       6.045   6.198  18.254  0.00  0.00    +0.000 NA
ATOM     14  H   UNL     1       4.080   3.598  15.587  0.00  0.00    +0.000 HD
ENDROOT
BRANCH  12  15
ATOM     15  C   UNL     1       4.026   4.809  18.327  0.00  0.00    +0.000 A 
ATOM     16  C   UNL     1       4.031   3.480  18.814  0.00  0.00    +0.000 A 
ATOM     17  C   UNL     1       3.010   2.974  19.626  0.00  0.00    +0.000 A 
ATOM     18  C   UNL     1       1.909   3.763  19.920  0.00  0.00    +0.000 A 
ATOM     19  C   UNL     1       1.831   5.050  19.396  0.00  0.00    +0.000 A 
ATOM     20  C   UNL     1       2.875   5.576  18.615  0.00  0.00    +0.000 A 
ATOM     21 CL   UNL     1       2.660   7.213  18.087  0.00  0.00    +0.000 Cl
ENDBRANCH  12  15
BRANCH   1  23
ATOM     22  N   UNL     1       8.203   8.815  17.991  0.00  0.00    +0.000 N 
ATOM     23  C   UNL     1       8.098   7.505  18.439  0.00  0.00    +0.000 C 
ATOM     24  O   UNL     1       8.687   7.051  19.417  0.00  0.00    +0.000 OA
ATOM     25  H   UNL     1       7.663   9.122  17.182  0.00  0.00    +0.000 HD
BRANCH  22  32
ATOM     26  N   UNL     1       9.584  11.922  19.109  0.00  0.00    +0.000 N 
ATOM     27  C   UNL     1       9.292  13.240  18.831  0.00  0.00    +0.000 C 
ATOM     28  O   UNL     1       9.776  14.212  19.399  0.00  0.00    +0.000 OA
ATOM     29  C   UNL     1       8.301  13.368  17.704  0.00  0.00    +0.000 C 
ATOM     30  S   UNL     1       7.723  11.695  17.341  0.00  0.00    +0.000 S 
ATOM     31  C   UNL     1       8.847  10.966  18.458  0.00  0.00    +0.000 C 
ATOM     32  N   UNL     1       8.998   9.702  18.672  0.00  0.00    +0.000 NA
BRANCH  26  34
ATOM     33  C   UNL     1      12.001  11.697  19.574  0.00  0.00    +0.000 C 
ATOM     34  C   UNL     1      10.584  11.588  20.114  0.00  0.00    +0.000 C 
ENDBRANCH  26  34
ENDBRANCH  22  32
ENDBRANCH   1  23
TORSDOF 4
ENDMDL
MODEL 4
REMARK VINA RESULT:      -8.2      3.515      9.956
REMARK  Name = 
REMARK  5 active torsions:
REMARK  status: ('A' for Active; 'I' for Inactive)
REMARK    1  A    between atoms: C_1  and  C_2
REMARK    2  A    between atoms: C_2  and  N_3
REMARK    3  A    between atoms: N_9  and  N_10
REMARK    4  A    between atoms: C_11  and  C_13
REMARK    5  A    between atoms: C_24  and  C_25
REMARK                            x       y       z     vdW  Elec       q    Type
REMARK                         _______ _______ _______ _____ _____    ______ ____
ROOT
ATOM      1  C   UNL     1      -0.035  10.160  20.227  0.00  0.00    +0.000 A 
ATOM      2  C   UNL     1       0.952  11.139  20.195  0.00  0.00    +0.000 A 
ATOM      3  C   UNL     1       0.597  12.381  19.655  0.00  0.00    +0.000 A 
ATOM      4  C   UNL     1      -0.702  12.545  19.169  0.00  0.00    +0.000 A 
ATOM      5  N   UNL     1      -0.757  13.823  18.654  0.00  0.00    +0.000 N 
ATOM      6  C   UNL     1       0.409  14.511  18.871  0.00  0.00    +0.000 A 
ATOM      7  C   UNL     1       0.736  15.840  18.573  0.00  0.00    +0.000 A 
ATOM      8  C   UNL     1       2.037  16.262  18.854  0.00  0.00    +0.000 A 
ATOM      9  C   UNL     1       2.966  15.386  19.410  0.00  0.00    +0.000 A 
ATOM     10  C   UNL     1       2.612  14.066  19.720  0.00  0.00    +0.000 A 
ATOM     11  C   UNL     1       1.301  13.617  19.455  0.00  0.00    +0.000 A 
ATOM     12  C   UNL     1      -1.673  11.521  19.213  0.00  0.00    +0.000 A 
ATOM     13  N   UNL     1      -1.309  10.335  19.781  0.00  0.00    +0.000 NA
ATOM     14  H   UNL     1      -1.555  14.224  18.185  0.00  0.00    +0.000 HD
ENDROOT
BRANCH  12  15
ATOM     15  C   UNL     1      -3.033  11.660  18.649  0.00  0.00    +0.000 A 
ATOM     16  C   UNL     1      -4.054  12.280  19.408  0.00  0.00    +0.000 A 
ATOM     17  C   UNL     1      -5.314  12.572  18.874  0.00  0.00    +0.000 A 
ATOM     18  C   UNL     1      -5.620  12.187  17.578  0.00  0.00    +0.000 A 
ATOM     19  C   UNL     1      -4.667  11.506  16.825  0.00  0.00    +0.000 A 
ATOM     20  C   UNL     1      -3.386  11.249  17.344  0.00  0.00    +0.000 A 
ATOM     21 CL   UNL     1      -2.291  10.449  16.265  0.00  0.00    +0.000 Cl
ENDBRANCH  12  15
BRANCH   1  23
ATOM     22  N   UNL     1       1.257   8.099  20.024  0.00  0.00    +0.000 N 
ATOM     23  C   UNL     1       0.317   8.803  20.765  0.00  0.00    +0.000 C 
ATOM     24  O   UNL     1      -0.211   8.393  21.795  0.00  0.00    +0.000 OA
ATOM     25  H   UNL     1       1.667   8.520  19.189  0.00  0.00    +0.000 HD
BRANCH  22  32
ATOM     26  N   UNL     1       2.950   4.946  20.064  0.00  0.00    +0.000 N 
ATOM     27  C   UNL     1       3.855   4.349  19.212  0.00  0.00    +0.000 C 
ATOM     28  O   UNL     1       4.453   3.302  19.430  0.00  0.00    +0.000 OA
ATOM     29  C   UNL     1       4.021   5.129  17.935  0.00  0.00    +0.000 C 
ATOM     30  S   UNL     1       3.118   6.677  18.163  0.00  0.00    +0.000 S 
ATOM     31  C   UNL     1       2.477   6.182  19.708  0.00  0.00    +0.000 C 
ATOM     32  N   UNL     1       1.663   6.860  20.447  0.00  0.00    +0.000 NA
BRANCH  26  34
ATOM     33  C   UNL     1       1.460   3.299  21.150  0.00  0.00    +0.000 C 
ATOM     34  C   UNL     1       2.590   4.303  21.320  0.00  0.00    +0.000 C 
ENDBRANCH  26  34
ENDBRANCH  22  32
ENDBRANCH   1  23
TORSDOF 4
ENDMDL
MODEL 5
REMARK VINA RESULT:      -8.2      3.785      9.927
REMARK  Name = 
REMARK  5 active torsions:
REMARK  status: ('A' for Active; 'I' for Inactive)
REMARK    1  A    between atoms: C_1  and  C_2
REMARK    2  A    between atoms: C_2  and  N_3
REMARK    3  A    between atoms: N_9  and  N_10
REMARK    4  A    between atoms: C_11  and  C_13
REMARK    5  A    between atoms: C_24  and  C_25
REMARK                            x       y       z     vdW  Elec       q    Type
REMARK                         _______ _______ _______ _____ _____    ______ ____
ROOT
ATOM      1  C   UNL     1       0.132  10.192  20.231  0.00  0.00    +0.000 A 
ATOM      2  C   UNL     1       1.090  11.199  20.285  0.00  0.00    +0.000 A 
ATOM      3  C   UNL     1       0.747  12.433  19.717  0.00  0.00    +0.000 A 
ATOM      4  C   UNL     1      -0.510  12.561  19.122  0.00  0.00    +0.000 A 
ATOM      5  N   UNL     1      -0.558  13.839  18.607  0.00  0.00    +0.000 N 
ATOM      6  C   UNL     1       0.565  14.560  18.923  0.00  0.00    +0.000 A 
ATOM      7  C   UNL     1       0.878  15.898  18.656  0.00  0.00    +0.000 A 
ATOM      8  C   UNL     1       2.137  16.356  19.049  0.00  0.00    +0.000 A 
ATOM      9  C   UNL     1       3.040  15.506  19.680  0.00  0.00    +0.000 A 
ATOM     10  C   UNL     1       2.699  14.174  19.958  0.00  0.00    +0.000 A 
ATOM     11  C   UNL     1       1.429  13.689  19.581  0.00  0.00    +0.000 A 
ATOM     12  C   UNL     1      -1.452  11.509  19.082  0.00  0.00    +0.000 A 
ATOM     13  N   UNL     1      -1.103  10.332  19.677  0.00  0.00    +0.000 NA
ATOM     14  H   UNL     1      -1.323  14.219  18.071  0.00  0.00    +0.000 HD
ENDROOT
BRANCH  12  15
ATOM     15  C   UNL     1      -2.762  11.612  18.403  0.00  0.00    +0.000 A 
ATOM     16  C   UNL     1      -2.897  11.195  17.058  0.00  0.00    +0.000 A 
ATOM     17  C   UNL     1      -4.137  11.130  16.413  0.00  0.00    +0.000 A 
ATOM     18  C   UNL     1      -5.280  11.549  17.074  0.00  0.00    +0.000 A 
ATOM     19  C   UNL     1      -5.178  12.038  18.373  0.00  0.00    +0.000 A 
ATOM     20  C   UNL     1      -3.940  12.065  19.039  0.00  0.00    +0.000 A 
ATOM     21 CL   UNL     1      -3.983  12.643  20.672  0.00  0.00    +0.000 Cl
ENDBRANCH  12  15
BRANCH   1  23
ATOM     22  N   UNL     1       1.300   8.061  19.996  0.00  0.00    +0.000 N 
ATOM     23  C   UNL     1       0.476   8.843  20.794  0.00  0.00    +0.000 C 
ATOM     24  O   UNL     1       0.041   8.506  21.892  0.00  0.00    +0.000 OA
ATOM     25  H   UNL     1       1.639   8.424  19.104  0.00  0.00    +0.000 HD
BRANCH  22  32
ATOM     26  N   UNL     1       2.978   4.901  20.092  0.00  0.00    +0.000 N 
ATOM     27  C   UNL     1       3.899   4.295  19.264  0.00  0.00    +0.000 C 
ATOM     28  O   UNL     1       4.487   3.247  19.501  0.00  0.00    +0.000 OA
ATOM     29  C   UNL     1       4.096   5.067  17.986  0.00  0.00    +0.000 C 
ATOM     30  S   UNL     1       3.196   6.621  18.185  0.00  0.00    +0.000 S 
ATOM     31  C   UNL     1       2.518   6.138  19.718  0.00  0.00    +0.000 C 
ATOM     32  N   UNL     1       1.691   6.823  20.436  0.00  0.00    +0.000 NA
BRANCH  26  34
ATOM     33  C   UNL     1       1.459   3.264  21.152  0.00  0.00    +0.000 C 
ATOM     34  C   UNL     1       2.586   4.267  21.343  0.00  0.00    +0.000 C 
ENDBRANCH  26  34
ENDBRANCH  22  32
ENDBRANCH   1  23
TORSDOF 4
ENDMDL
MODEL 6
REMARK VINA RESULT:      -8.0      3.575     10.479
REMARK  Name = 
REMARK  5 active torsions:
REMARK  status: ('A' for Active; 'I' for Inactive)
REMARK    1  A    between atoms: C_1  and  C_2
REMARK    2  A    between atoms: C_2  and  N_3
REMARK    3  A    between atoms: N_9  and  N_10
REMARK    4  A    between atoms: C_11  and  C_13
REMARK    5  A    between atoms: C_24  and  C_25
REMARK                            x       y       z     vdW  Elec       q    Type
REMARK                         _______ _______ _______ _____ _____    ______ ____
ROOT
ATOM      1  C   UNL     1       0.130  10.482  20.813  0.00  0.00    +0.000 A 
ATOM      2  C   UNL     1       1.088  11.167  20.074  0.00  0.00    +0.000 A 
ATOM      3  C   UNL     1       0.870  12.535  19.864  0.00  0.00    +0.000 A 
ATOM      4  C   UNL     1      -0.293  13.107  20.385  0.00  0.00    +0.000 A 
ATOM      5  N   UNL     1      -0.277  14.428  19.988  0.00  0.00    +0.000 N 
ATOM      6  C   UNL     1       0.879  14.747  19.323  0.00  0.00    +0.000 A 
ATOM      7  C   UNL     1       1.316  15.980  18.822  0.00  0.00    +0.000 A 
ATOM      8  C   UNL     1       2.525  16.001  18.125  0.00  0.00    +0.000 A 
ATOM      9  C   UNL     1       3.260  14.833  17.939  0.00  0.00    +0.000 A 
ATOM     10  C   UNL     1       2.816  13.612  18.466  0.00  0.00    +0.000 A 
ATOM     11  C   UNL     1       1.602  13.566  19.184  0.00  0.00    +0.000 A 
ATOM     12  C   UNL     1      -1.246  12.373  21.124  0.00  0.00    +0.000 A 
ATOM     13  N   UNL     1      -0.986  11.052  21.345  0.00  0.00    +0.000 NA
ATOM     14  H   UNL     1      -1.011  15.095  20.169  0.00  0.00    +0.000 HD
ENDROOT
BRANCH  12  15
ATOM     15  C   UNL     1      -2.510  12.951  21.629  0.00  0.00    +0.000 A 
ATOM     16  C   UNL     1      -3.722  12.717  20.939  0.00  0.00    +0.000 A 
ATOM     17  C   UNL     1      -4.965  13.112  21.447  0.00  0.00    +0.000 A 
ATOM     18  C   UNL     1      -5.029  13.820  22.636  0.00  0.00    +0.000 A 
ATOM     19  C   UNL     1      -3.851  14.138  23.307  0.00  0.00    +0.000 A 
ATOM     20  C   UNL     1      -2.604  13.705  22.821  0.00  0.00    +0.000 A 
ATOM     21 CL   UNL     1      -1.236  14.124  23.798  0.00  0.00    +0.000 Cl
ENDBRANCH  12  15
BRANCH   1  23
ATOM     22  N   UNL     1       1.462   8.464  20.476  0.00  0.00    +0.000 N 
ATOM     23  C   UNL     1       0.309   9.006  21.027  0.00  0.00    +0.000 C 
ATOM     24  O   UNL     1      -0.531   8.370  21.659  0.00  0.00    +0.000 OA
ATOM     25  H   UNL     1       2.123   9.066  19.983  0.00  0.00    +0.000 HD
BRANCH  22  32
ATOM     26  N   UNL     1       2.695   5.173  19.802  0.00  0.00    +0.000 N 
ATOM     27  C   UNL     1       3.427   4.632  18.767  0.00  0.00    +0.000 C 
ATOM     28  O   UNL     1       3.890   3.498  18.739  0.00  0.00    +0.000 OA
ATOM     29  C   UNL     1       3.585   5.602  17.625  0.00  0.00    +0.000 C 
ATOM     30  S   UNL     1       2.931   7.182  18.207  0.00  0.00    +0.000 S 
ATOM     31  C   UNL     1       2.369   6.501  19.711  0.00  0.00    +0.000 C 
ATOM     32  N   UNL     1       1.728   7.129  20.640  0.00  0.00    +0.000 NA
BRANCH  26  34
ATOM     33  C   UNL     1       1.118   3.519  20.745  0.00  0.00    +0.000 C 
ATOM     34  C   UNL     1       2.363   4.364  20.967  0.00  0.00    +0.000 C 
ENDBRANCH  26  34
ENDBRANCH  22  32
ENDBRANCH   1  23
TORSDOF 4
ENDMDL
MODEL 7
REMARK VINA RESULT:      -7.9      3.575     10.497
REMARK  Name = 
REMARK  5 active torsions:
REMARK  status: ('A' for Active; 'I' for Inactive)
REMARK    1  A    between atoms: C_1  and  C_2
REMARK    2  A    between atoms: C_2  and  N_3
REMARK    3  A    between atoms: N_9  and  N_10
REMARK    4  A    between atoms: C_11  and  C_13
REMARK    5  A    between atoms: C_24  and  C_25
REMARK                            x       y       z     vdW  Elec       q    Type
REMARK                         _______ _______ _______ _____ _____    ______ ____
ROOT
ATOM      1  C   UNL     1       0.187  10.274  20.937  0.00  0.00    +0.000 A 
ATOM      2  C   UNL     1       1.083  10.959  20.124  0.00  0.00    +0.000 A 
ATOM      3  C   UNL     1       0.887  12.340  19.985  0.00  0.00    +0.000 A 
ATOM      4  C   UNL     1      -0.196  12.924  20.646  0.00  0.00    +0.000 A 
ATOM      5  N   UNL     1      -0.180  14.258  20.296  0.00  0.00    +0.000 N 
ATOM      6  C   UNL     1       0.908  14.569  19.522  0.00  0.00    +0.000 A 
ATOM      7  C   UNL     1       1.328  15.808  19.021  0.00  0.00    +0.000 A 
ATOM      8  C   UNL     1       2.457  15.821  18.200  0.00  0.00    +0.000 A 
ATOM      9  C   UNL     1       3.132  14.642  17.896  0.00  0.00    +0.000 A 
ATOM     10  C   UNL     1       2.707  13.415  18.426  0.00  0.00    +0.000 A 
ATOM     11  C   UNL     1       1.575  13.375  19.267  0.00  0.00    +0.000 A 
ATOM     12  C   UNL     1      -1.089  12.189  21.457  0.00  0.00    +0.000 A 
ATOM     13  N   UNL     1      -0.848  10.854  21.604  0.00  0.00    +0.000 NA
ATOM     14  H   UNL     1      -0.870  14.937  20.577  0.00  0.00    +0.000 HD
ENDROOT
BRANCH  12  15
ATOM     15  C   UNL     1      -2.273  12.782  22.114  0.00  0.00    +0.000 A 
ATOM     16  C   UNL     1      -2.186  13.240  23.450  0.00  0.00    +0.000 A 
ATOM     17  C   UNL     1      -3.225  13.942  24.072  0.00  0.00    +0.000 A 
ATOM     18  C   UNL     1      -4.418  14.148  23.398  0.00  0.00    +0.000 A 
ATOM     19  C   UNL     1      -4.570  13.645  22.109  0.00  0.00    +0.000 A 
ATOM     20  C   UNL     1      -3.513  12.977  21.465  0.00  0.00    +0.000 A 
ATOM     21 CL   UNL     1      -3.834  12.465  19.841  0.00  0.00    +0.000 Cl
ENDBRANCH  12  15
BRANCH   1  23
ATOM     22  N   UNL     1       1.505   8.258  20.538  0.00  0.00    +0.000 N 
ATOM     23  C   UNL     1       0.342   8.787  21.080  0.00  0.00    +0.000 C 
ATOM     24  O   UNL     1      -0.525   8.131  21.652  0.00  0.00    +0.000 OA
ATOM     25  H   UNL     1       2.188   8.875  20.097  0.00  0.00    +0.000 HD
BRANCH  22  32
ATOM     26  N   UNL     1       2.715   4.988  19.731  0.00  0.00    +0.000 N 
ATOM     27  C   UNL     1       3.469   4.490  18.690  0.00  0.00    +0.000 C 
ATOM     28  O   UNL     1       3.918   3.352  18.618  0.00  0.00    +0.000 OA
ATOM     29  C   UNL     1       3.670   5.514  17.604  0.00  0.00    +0.000 C 
ATOM     30  S   UNL     1       3.021   7.072  18.248  0.00  0.00    +0.000 S 
ATOM     31  C   UNL     1       2.409   6.323  19.699  0.00  0.00    +0.000 C 
ATOM     32  N   UNL     1       1.749   6.913  20.641  0.00  0.00    +0.000 NA
BRANCH  26  34
ATOM     33  C   UNL     1       1.083   3.322  20.551  0.00  0.00    +0.000 C 
ATOM     34  C   UNL     1       2.340   4.126  20.844  0.00  0.00    +0.000 C 
ENDBRANCH  26  34
ENDBRANCH  22  32
ENDBRANCH   1  23
TORSDOF 4
ENDMDL
MODEL 8
REMARK VINA RESULT:      -7.9      3.533      9.427
REMARK  Name = 
REMARK  5 active torsions:
REMARK  status: ('A' for Active; 'I' for Inactive)
REMARK    1  A    between atoms: C_1  and  C_2
REMARK    2  A    between atoms: C_2  and  N_3
REMARK    3  A    between atoms: N_9  and  N_10
REMARK    4  A    between atoms: C_11  and  C_13
REMARK    5  A    between atoms: C_24  and  C_25
REMARK                            x       y       z     vdW  Elec       q    Type
REMARK                         _______ _______ _______ _____ _____    ______ ____
ROOT
ATOM      1  C   UNL     1       0.995   9.267  18.458  0.00  0.00    +0.000 A 
ATOM      2  C   UNL     1       0.114   9.205  17.384  0.00  0.00    +0.000 A 
ATOM      3  C   UNL     1      -1.062   9.961  17.484  0.00  0.00    +0.000 A 
ATOM      4  C   UNL     1      -1.278  10.698  18.651  0.00  0.00    +0.000 A 
ATOM      5  N   UNL     1      -2.514  11.291  18.502  0.00  0.00    +0.000 N 
ATOM      6  C   UNL     1      -3.053  11.044  17.265  0.00  0.00    +0.000 A 
ATOM      7  C   UNL     1      -4.243  11.512  16.695  0.00  0.00    +0.000 A 
ATOM      8  C   UNL     1      -4.577  11.043  15.423  0.00  0.00    +0.000 A 
ATOM      9  C   UNL     1      -3.750  10.143  14.757  0.00  0.00    +0.000 A 
ATOM     10  C   UNL     1      -2.552   9.702  15.336  0.00  0.00    +0.000 A 
ATOM     11  C   UNL     1      -2.187  10.169  16.617  0.00  0.00    +0.000 A 
ATOM     12  C   UNL     1      -0.359  10.726  19.723  0.00  0.00    +0.000 A 
ATOM     13  N   UNL     1       0.794  10.012  19.580  0.00  0.00    +0.000 NA
ATOM     14  H   UNL     1      -2.975  11.852  19.202  0.00  0.00    +0.000 HD
ENDROOT
BRANCH  12  15
ATOM     15  C   UNL     1      -0.602  11.454  20.987  0.00  0.00    +0.000 A 
ATOM     16  C   UNL     1      -0.694  12.866  20.985  0.00  0.00    +0.000 A 
ATOM     17  C   UNL     1      -1.067  13.596  22.119  0.00  0.00    +0.000 A 
ATOM     18  C   UNL     1      -1.294  12.938  23.318  0.00  0.00    +0.000 A 
ATOM     19  C   UNL     1      -1.138  11.556  23.379  0.00  0.00    +0.000 A 
ATOM     20  C   UNL     1      -0.805  10.816  22.232  0.00  0.00    +0.000 A 
ATOM     21 CL   UNL     1      -0.710   9.100  22.453  0.00  0.00    +0.000 Cl
ENDBRANCH  12  15
BRANCH   1  23
ATOM     22  N   UNL     1       2.231   7.289  19.180  0.00  0.00    +0.000 N 
ATOM     23  C   UNL     1       2.249   8.441  18.406  0.00  0.00    +0.000 C 
ATOM     24  O   UNL     1       3.192   8.799  17.705  0.00  0.00    +0.000 OA
ATOM     25  H   UNL     1       1.398   7.049  19.718  0.00  0.00    +0.000 HD
BRANCH  22  32
ATOM     26  N   UNL     1       4.210   4.340  19.622  0.00  0.00    +0.000 N 
ATOM     27  C   UNL     1       3.919   3.063  20.055  0.00  0.00    +0.000 C 
ATOM     28  O   UNL     1       4.689   2.111  20.030  0.00  0.00    +0.000 OA
ATOM     29  C   UNL     1       2.519   2.962  20.602  0.00  0.00    +0.000 C 
ATOM     30  S   UNL     1       1.715   4.538  20.234  0.00  0.00    +0.000 S 
ATOM     31  C   UNL     1       3.181   5.245  19.608  0.00  0.00    +0.000 C 
ATOM     32  N   UNL     1       3.320   6.455  19.179  0.00  0.00    +0.000 NA
BRANCH  26  34
ATOM     33  C   UNL     1       5.680   4.421  17.637  0.00  0.00    +0.000 C 
ATOM     34  C   UNL     1       5.542   4.663  19.132  0.00  0.00    +0.000 C 
ENDBRANCH  26  34
ENDBRANCH  22  32
ENDBRANCH   1  23
TORSDOF 4
ENDMDL
MODEL 9
REMARK VINA RESULT:      -7.9      5.001      7.670
REMARK  Name = 
REMARK  5 active torsions:
REMARK  status: ('A' for Active; 'I' for Inactive)
REMARK    1  A    between atoms: C_1  and  C_2
REMARK    2  A    between atoms: C_2  and  N_3
REMARK    3  A    between atoms: N_9  and  N_10
REMARK    4  A    between atoms: C_11  and  C_13
REMARK    5  A    between atoms: C_24  and  C_25
REMARK                            x       y       z     vdW  Elec       q    Type
REMARK                         _______ _______ _______ _____ _____    ______ ____
ROOT
ATOM      1  C   UNL     1       7.121   6.662  17.557  0.00  0.00    +0.000 A 
ATOM      2  C   UNL     1       7.527   6.277  16.284  0.00  0.00    +0.000 A 
ATOM      3  C   UNL     1       6.657   5.449  15.563  0.00  0.00    +0.000 A 
ATOM      4  C   UNL     1       5.464   5.053  16.173  0.00  0.00    +0.000 A 
ATOM      5  N   UNL     1       4.838   4.214  15.274  0.00  0.00    +0.000 N 
ATOM      6  C   UNL     1       5.525   4.131  14.091  0.00  0.00    +0.000 A 
ATOM      7  C   UNL     1       5.200   3.452  12.910  0.00  0.00    +0.000 A 
ATOM      8  C   UNL     1       6.127   3.492  11.867  0.00  0.00    +0.000 A 
ATOM      9  C   UNL     1       7.328   4.183  12.007  0.00  0.00    +0.000 A 
ATOM     10  C   UNL     1       7.626   4.874  13.190  0.00  0.00    +0.000 A 
ATOM     11  C   UNL     1       6.701   4.858  14.256  0.00  0.00    +0.000 A 
ATOM     12  C   UNL     1       5.093   5.461  17.473  0.00  0.00    +0.000 A 
ATOM     13  N   UNL     1       5.944   6.298  18.134  0.00  0.00    +0.000 NA
ATOM     14  H   UNL     1       3.974   3.724  15.446  0.00  0.00    +0.000 HD
ENDROOT
BRANCH  12  15
ATOM     15  C   UNL     1       3.864   5.001  18.154  0.00  0.00    +0.000 A 
ATOM     16  C   UNL     1       2.618   5.599  17.846  0.00  0.00    +0.000 A 
ATOM     17  C   UNL     1       1.406   5.110  18.345  0.00  0.00    +0.000 A 
ATOM     18  C   UNL     1       1.406   4.043  19.230  0.00  0.00    +0.000 A 
ATOM     19  C   UNL     1       2.617   3.476  19.617  0.00  0.00    +0.000 A 
ATOM     20  C   UNL     1       3.834   3.938  19.085  0.00  0.00    +0.000 A 
ATOM     21 CL   UNL     1       5.250   3.092  19.615  0.00  0.00    +0.000 Cl
ENDBRANCH  12  15
BRANCH   1  23
ATOM     22  N   UNL     1       8.169   8.833  17.946  0.00  0.00    +0.000 N 
ATOM     23  C   UNL     1       8.045   7.518  18.375  0.00  0.00    +0.000 C 
ATOM     24  O   UNL     1       8.620   7.044  19.351  0.00  0.00    +0.000 OA
ATOM     25  H   UNL     1       7.638   9.157  17.137  0.00  0.00    +0.000 HD
BRANCH  22  32
ATOM     26  N   UNL     1       9.573  11.908  19.123  0.00  0.00    +0.000 N 
ATOM     27  C   UNL     1       9.291  13.233  18.868  0.00  0.00    +0.000 C 
ATOM     28  O   UNL     1       9.783  14.190  19.455  0.00  0.00    +0.000 OA
ATOM     29  C   UNL     1       8.303  13.390  17.743  0.00  0.00    +0.000 C 
ATOM     30  S   UNL     1       7.713  11.728  17.349  0.00  0.00    +0.000 S 
ATOM     31  C   UNL     1       8.829  10.970  18.453  0.00  0.00    +0.000 C 
ATOM     32  N   UNL     1       8.969   9.700  18.644  0.00  0.00    +0.000 NA
BRANCH  26  34
ATOM     33  C   UNL     1      11.986  11.623  19.577  0.00  0.00    +0.000 C 
ATOM     34  C   UNL     1      10.568  11.547  20.123  0.00  0.00    +0.000 C 
ENDBRANCH  26  34
ENDBRANCH  22  32
ENDBRANCH   1  23
TORSDOF 4
ENDMDL
