MODEL 1
REMARK VINA RESULT:      -7.2      0.000      0.000
REMARK  Name = 
REMARK  11 active torsions:
REMARK  status: ('A' for Active; 'I' for Inactive)
REMARK    1  A    between atoms: C_1  and  O_2
REMARK    2  A    between atoms: O_2  and  C_3
REMARK    3  A    between atoms: C_8  and  C_9
REMARK    4  A    between atoms: C_12  and  S_13
REMARK    5  A    between atoms: S_13  and  N_16
REMARK    6  A    between atoms: N_16  and  C_17
REMARK    7  A    between atoms: C_17  and  C_18
REMARK    8  A    between atoms: C_18  and  C_19
REMARK    9  A    between atoms: C_19  and  C_20
REMARK   10  A    between atoms: C_20  and  C_21
REMARK   11  A    between atoms: C_21  and  O_22
REMARK                            x       y       z     vdW  Elec       q    Type
REMARK                         _______ _______ _______ _____ _____    ______ ____
ROOT
ATOM      1  C   UNL     1       2.271   7.750  18.910  0.00  0.00    +0.000 A 
ATOM      2  C   UNL     1       2.422   6.699  19.834  0.00  0.00    +0.000 A 
ATOM      3  C   UNL     1       3.344   5.663  19.629  0.00  0.00    +0.000 A 
ATOM      4  C   UNL     1       4.153   5.673  18.494  0.00  0.00    +0.000 A 
ATOM      5  C   UNL     1       4.067   6.721  17.581  0.00  0.00    +0.000 A 
ATOM      6  C   UNL     1       3.126   7.738  17.786  0.00  0.00    +0.000 A 
ENDROOT
BRANCH   1  12
ATOM      7  C   UNL     1       0.798   9.278  20.358  0.00  0.00    +0.000 A 
ATOM      8  C   UNL     1      -0.165  10.298  20.448  0.00  0.00    +0.000 A 
ATOM      9  C   UNL     1      -0.716  10.864  19.300  0.00  0.00    +0.000 A 
ATOM     10  C   UNL     1      -0.286  10.442  18.052  0.00  0.00    +0.000 A 
ATOM     11  C   UNL     1       0.699   9.455  17.953  0.00  0.00    +0.000 A 
ATOM     12  C   UNL     1       1.264   8.838  19.093  0.00  0.00    +0.000 A 
BRANCH   7  14
ATOM     13  C   UNL     1       0.958   9.268  22.730  0.00  0.00    +0.000 C 
ATOM     14  O   UNL     1       1.347   8.706  21.482  0.00  0.00    +0.000 OA
ENDBRANCH   7  14
ENDBRANCH   1  12
BRANCH   4  15
ATOM     15  S   UNL     1       5.330   4.377  18.221  0.00  0.00    +0.000 S 
ATOM     16  O   UNL     1       5.543   4.274  16.794  0.00  0.00    +0.000 OA
ATOM     17  O   UNL     1       6.431   4.537  19.145  0.00  0.00    +0.000 OA
BRANCH  15  18
ATOM     18  N   UNL     1       4.473   2.988  18.670  0.00  0.00    +0.000 NA
ATOM     19  H   UNL     1       4.088   3.092  19.609  0.00  0.00    +0.000 HD
BRANCH  18  20
ATOM     20  C   UNL     1       3.634   2.365  17.643  0.00  0.00    +0.000 C 
BRANCH  20  21
ATOM     21  C   UNL     1       2.154   2.605  17.951  0.00  0.00    +0.000 C 
BRANCH  21  22
ATOM     22  C   UNL     1       1.805   2.020  19.321  0.00  0.00    +0.000 C 
BRANCH  22  23
ATOM     23  C   UNL     1       1.087   3.018  20.226  0.00  0.00    +0.000 C 
BRANCH  23  24
ATOM     24  C   UNL     1       1.353   2.710  21.695  0.00  0.00    +0.000 C 
BRANCH  24  25
ATOM     25  O   UNL     1       2.752   2.675  21.938  0.00  0.00    +0.000 OA
ATOM     26  H   UNL     1       3.201   2.681  21.074  0.00  0.00    +0.000 HD
ENDBRANCH  24  25
ENDBRANCH  23  24
ENDBRANCH  22  23
ENDBRANCH  21  22
ENDBRANCH  20  21
ENDBRANCH  18  20
ENDBRANCH  15  18
ENDBRANCH   4  15
TORSDOF 10
ENDMDL
MODEL 2
REMARK VINA RESULT:      -6.9      3.537      7.728
REMARK  Name = 
REMARK  11 active torsions:
REMARK  status: ('A' for Active; 'I' for Inactive)
REMARK    1  A    between atoms: C_1  and  O_2
REMARK    2  A    between atoms: O_2  and  C_3
REMARK    3  A    between atoms: C_8  and  C_9
REMARK    4  A    between atoms: C_12  and  S_13
REMARK    5  A    between atoms: S_13  and  N_16
REMARK    6  A    between atoms: N_16  and  C_17
REMARK    7  A    between atoms: C_17  and  C_18
REMARK    8  A    between atoms: C_18  and  C_19
REMARK    9  A    between atoms: C_19  and  C_20
REMARK   10  A    between atoms: C_20  and  C_21
REMARK   11  A    between atoms: C_21  and  O_22
REMARK                            x       y       z     vdW  Elec       q    Type
REMARK                         _______ _______ _______ _____ _____    ______ ____
ROOT
ATOM      1  C   UNL     1       2.303   6.694  18.895  0.00  0.00    +0.000 A 
ATOM      2  C   UNL     1       2.209   7.780  18.005  0.00  0.00    +0.000 A 
ATOM      3  C   UNL     1       1.746   9.037  18.419  0.00  0.00    +0.000 A 
ATOM      4  C   UNL     1       1.386   9.235  19.751  0.00  0.00    +0.000 A 
ATOM      5  C   UNL     1       1.510   8.199  20.672  0.00  0.00    +0.000 A 
ATOM      6  C   UNL     1       1.953   6.941  20.241  0.00  0.00    +0.000 A 
ENDROOT
BRANCH   1  12
ATOM      7  C   UNL     1       4.114   4.978  18.279  0.00  0.00    +0.000 A 
ATOM      8  C   UNL     1       4.459   3.685  17.850  0.00  0.00    +0.000 A 
ATOM      9  C   UNL     1       3.475   2.745  17.549  0.00  0.00    +0.000 A 
ATOM     10  C   UNL     1       2.138   3.077  17.706  0.00  0.00    +0.000 A 
ATOM     11  C   UNL     1       1.787   4.349  18.168  0.00  0.00    +0.000 A 
ATOM     12  C   UNL     1       2.754   5.338  18.460  0.00  0.00    +0.000 A 
BRANCH   7  14
ATOM     13  C   UNL     1       6.242   5.442  19.231  0.00  0.00    +0.000 C 
ATOM     14  O   UNL     1       5.074   5.918  18.573  0.00  0.00    +0.000 OA
ENDBRANCH   7  14
ENDBRANCH   1  12
BRANCH   4  15
ATOM     15  S   UNL     1       0.806  10.818  20.296  0.00  0.00    +0.000 S 
ATOM     16  O   UNL     1       1.045  10.903  21.720  0.00  0.00    +0.000 OA
ATOM     17  O   UNL     1       1.279  11.834  19.383  0.00  0.00    +0.000 OA
BRANCH  15  18
ATOM     18  N   UNL     1      -0.871  10.691  20.107  0.00  0.00    +0.000 NA
ATOM     19  H   UNL     1      -1.277  10.146  20.868  0.00  0.00    +0.000 HD
BRANCH  18  20
ATOM     20  C   UNL     1      -1.582  11.892  19.661  0.00  0.00    +0.000 C 
BRANCH  20  21
ATOM     21  C   UNL     1      -2.533  11.549  18.513  0.00  0.00    +0.000 C 
BRANCH  21  22
ATOM     22  C   UNL     1      -1.932  10.435  17.652  0.00  0.00    +0.000 C 
BRANCH  22  23
ATOM     23  C   UNL     1      -2.969   9.742  16.771  0.00  0.00    +0.000 C 
BRANCH  23  24
ATOM     24  C   UNL     1      -2.822  10.172  15.316  0.00  0.00    +0.000 C 
BRANCH  24  25
ATOM     25  O   UNL     1      -3.309  11.496  15.149  0.00  0.00    +0.000 OA
ATOM     26  H   UNL     1      -3.613  11.809  16.019  0.00  0.00    +0.000 HD
ENDBRANCH  24  25
ENDBRANCH  23  24
ENDBRANCH  22  23
ENDBRANCH  21  22
ENDBRANCH  20  21
ENDBRANCH  18  20
ENDBRANCH  15  18
ENDBRANCH   4  15
TORSDOF 10
ENDMDL
MODEL 3
REMARK VINA RESULT:      -6.8      0.570      1.136
REMARK  Name = 
REMARK  11 active torsions:
REMARK  status: ('A' for Active; 'I' for Inactive)
REMARK    1  A    between atoms: C_1  and  O_2
REMARK    2  A    between atoms: O_2  and  C_3
REMARK    3  A    between atoms: C_8  and  C_9
REMARK    4  A    between atoms: C_12  and  S_13
REMARK    5  A    between atoms: S_13  and  N_16
REMARK    6  A    between atoms: N_16  and  C_17
REMARK    7  A    between atoms: C_17  and  C_18
REMARK    8  A    between atoms: C_18  and  C_19
REMARK    9  A    between atoms: C_19  and  C_20
REMARK   10  A    between atoms: C_20  and  C_21
REMARK   11  A    between atoms: C_21  and  O_22
REMARK                            x       y       z     vdW  Elec       q    Type
REMARK                         _______ _______ _______ _____ _____    ______ ____
ROOT
ATOM      1  C   UNL     1       2.305   7.775  18.808  0.00  0.00    +0.000 A 
ATOM      2  C   UNL     1       3.109   7.791  17.652  0.00  0.00    +0.000 A 
ATOM      3  C   UNL     1       4.093   6.819  17.424  0.00  0.00    +0.000 A 
ATOM      4  C   UNL     1       4.277   5.792  18.347  0.00  0.00    +0.000 A 
ATOM      5  C   UNL     1       3.470   5.714  19.479  0.00  0.00    +0.000 A 
ATOM      6  C   UNL     1       2.505   6.704  19.707  0.00  0.00    +0.000 A 
ENDROOT
BRANCH   1  12
ATOM      7  C   UNL     1       0.817   9.150  20.387  0.00  0.00    +0.000 A 
ATOM      8  C   UNL     1      -0.162  10.143  20.567  0.00  0.00    +0.000 A 
ATOM      9  C   UNL     1      -0.730  10.795  19.474  0.00  0.00    +0.000 A 
ATOM     10  C   UNL     1      -0.300  10.486  18.193  0.00  0.00    +0.000 A 
ATOM     11  C   UNL     1       0.700   9.528  18.006  0.00  0.00    +0.000 A 
ATOM     12  C   UNL     1       1.282   8.826  19.087  0.00  0.00    +0.000 A 
BRANCH   7  14
ATOM     13  C   UNL     1       1.444   9.218  22.679  0.00  0.00    +0.000 C 
ATOM     14  O   UNL     1       1.381   8.494  21.456  0.00  0.00    +0.000 OA
ENDBRANCH   7  14
ENDBRANCH   1  12
BRANCH   4  15
ATOM     15  S   UNL     1       5.510   4.550  18.072  0.00  0.00    +0.000 S 
ATOM     16  O   UNL     1       6.316   4.976  16.949  0.00  0.00    +0.000 OA
ATOM     17  O   UNL     1       6.104   4.185  19.339  0.00  0.00    +0.000 OA
BRANCH  15  18
ATOM     18  N   UNL     1       4.602   3.230  17.525  0.00  0.00    +0.000 NA
ATOM     19  H   UNL     1       5.003   2.355  17.862  0.00  0.00    +0.000 HD
BRANCH  18  20
ATOM     20  C   UNL     1       3.144   3.375  17.543  0.00  0.00    +0.000 C 
BRANCH  20  21
ATOM     21  C   UNL     1       2.514   2.290  18.420  0.00  0.00    +0.000 C 
BRANCH  21  22
ATOM     22  C   UNL     1       1.054   2.640  18.715  0.00  0.00    +0.000 C 
BRANCH  22  23
ATOM     23  C   UNL     1       0.869   3.322  20.068  0.00  0.00    +0.000 C 
BRANCH  23  24
ATOM     24  C   UNL     1       1.546   2.525  21.177  0.00  0.00    +0.000 C 
BRANCH  24  25
ATOM     25  O   UNL     1       2.238   3.404  22.053  0.00  0.00    +0.000 OA
ATOM     26  H   UNL     1       3.164   3.107  22.097  0.00  0.00    +0.000 HD
ENDBRANCH  24  25
ENDBRANCH  23  24
ENDBRANCH  22  23
ENDBRANCH  21  22
ENDBRANCH  20  21
ENDBRANCH  18  20
ENDBRANCH  15  18
ENDBRANCH   4  15
TORSDOF 10
ENDMDL
MODEL 4
REMARK VINA RESULT:      -6.8      3.751      7.723
REMARK  Name = 
REMARK  11 active torsions:
REMARK  status: ('A' for Active; 'I' for Inactive)
REMARK    1  A    between atoms: C_1  and  O_2
REMARK    2  A    between atoms: O_2  and  C_3
REMARK    3  A    between atoms: C_8  and  C_9
REMARK    4  A    between atoms: C_12  and  S_13
REMARK    5  A    between atoms: S_13  and  N_16
REMARK    6  A    between atoms: N_16  and  C_17
REMARK    7  A    between atoms: C_17  and  C_18
REMARK    8  A    between atoms: C_18  and  C_19
REMARK    9  A    between atoms: C_19  and  C_20
REMARK   10  A    between atoms: C_20  and  C_21
REMARK   11  A    between atoms: C_21  and  O_22
REMARK                            x       y       z     vdW  Elec       q    Type
REMARK                         _______ _______ _______ _____ _____    ______ ____
ROOT
ATOM      1  C   UNL     1       2.615   7.163  18.428  0.00  0.00    +0.000 A 
ATOM      2  C   UNL     1       2.213   7.196  19.777  0.00  0.00    +0.000 A 
ATOM      3  C   UNL     1       1.605   8.327  20.339  0.00  0.00    +0.000 A 
ATOM      4  C   UNL     1       1.366   9.448  19.546  0.00  0.00    +0.000 A 
ATOM      5  C   UNL     1       1.705   9.437  18.196  0.00  0.00    +0.000 A 
ATOM      6  C   UNL     1       2.334   8.309  17.652  0.00  0.00    +0.000 A 
ENDROOT
BRANCH   1  12
ATOM      7  C   UNL     1       2.727   4.689  17.745  0.00  0.00    +0.000 A 
ATOM      8  C   UNL     1       3.445   3.622  17.178  0.00  0.00    +0.000 A 
ATOM      9  C   UNL     1       4.752   3.799  16.728  0.00  0.00    +0.000 A 
ATOM     10  C   UNL     1       5.342   5.051  16.807  0.00  0.00    +0.000 A 
ATOM     11  C   UNL     1       4.621   6.127  17.335  0.00  0.00    +0.000 A 
ATOM     12  C   UNL     1       3.303   5.983  17.826  0.00  0.00    +0.000 A 
BRANCH   7  14
ATOM     13  C   UNL     1       1.211   3.428  19.074  0.00  0.00    +0.000 C 
ATOM     14  O   UNL     1       1.439   4.528  18.200  0.00  0.00    +0.000 OA
ENDBRANCH   7  14
ENDBRANCH   1  12
BRANCH   4  15
ATOM     15  S   UNL     1       0.590  10.884  20.235  0.00  0.00    +0.000 S 
ATOM     16  O   UNL     1       0.699  10.791  21.675  0.00  0.00    +0.000 OA
ATOM     17  O   UNL     1       1.037  12.055  19.513  0.00  0.00    +0.000 OA
BRANCH  15  18
ATOM     18  N   UNL     1      -1.045  10.642  19.870  0.00  0.00    +0.000 NA
ATOM     19  H   UNL     1      -1.621  10.774  20.702  0.00  0.00    +0.000 HD
BRANCH  18  20
ATOM     20  C   UNL     1      -1.530  11.187  18.600  0.00  0.00    +0.000 C 
BRANCH  20  21
ATOM     21  C   UNL     1      -1.746  10.060  17.588  0.00  0.00    +0.000 C 
BRANCH  21  22
ATOM     22  C   UNL     1      -3.237   9.927  17.267  0.00  0.00    +0.000 C 
BRANCH  22  23
ATOM     23  C   UNL     1      -3.809  11.165  16.582  0.00  0.00    +0.000 C 
BRANCH  23  24
ATOM     24  C   UNL     1      -5.118  11.593  17.236  0.00  0.00    +0.000 C 
BRANCH  24  25
ATOM     25  O   UNL     1      -4.865  12.569  18.236  0.00  0.00    +0.000 OA
ATOM     26  H   UNL     1      -3.909  12.566  18.416  0.00  0.00    +0.000 HD
ENDBRANCH  24  25
ENDBRANCH  23  24
ENDBRANCH  22  23
ENDBRANCH  21  22
ENDBRANCH  20  21
ENDBRANCH  18  20
ENDBRANCH  15  18
ENDBRANCH   4  15
TORSDOF 10
ENDMDL
MODEL 5
REMARK VINA RESULT:      -6.8      3.717      7.692
REMARK  Name = 
REMARK  11 active torsions:
REMARK  status: ('A' for Active; 'I' for Inactive)
REMARK    1  A    between atoms: C_1  and  O_2
REMARK    2  A    between atoms: O_2  and  C_3
REMARK    3  A    between atoms: C_8  and  C_9
REMARK    4  A    between atoms: C_12  and  S_13
REMARK    5  A    between atoms: S_13  and  N_16
REMARK    6  A    between atoms: N_16  and  C_17
REMARK    7  A    between atoms: C_17  and  C_18
REMARK    8  A    between atoms: C_18  and  C_19
REMARK    9  A    between atoms: C_19  and  C_20
REMARK   10  A    between atoms: C_20  and  C_21
REMARK   11  A    between atoms: C_21  and  O_22
REMARK                            x       y       z     vdW  Elec       q    Type
REMARK                         _______ _______ _______ _____ _____    ______ ____
ROOT
ATOM      1  C   UNL     1       2.508   7.218  18.505  0.00  0.00    +0.000 A 
ATOM      2  C   UNL     1       2.133   8.382  17.808  0.00  0.00    +0.000 A 
ATOM      3  C   UNL     1       1.475   9.444  18.445  0.00  0.00    +0.000 A 
ATOM      4  C   UNL     1       1.198   9.366  19.808  0.00  0.00    +0.000 A 
ATOM      5  C   UNL     1       1.596   8.252  20.543  0.00  0.00    +0.000 A 
ATOM      6  C   UNL     1       2.233   7.188  19.890  0.00  0.00    +0.000 A 
ENDROOT
BRANCH   1  12
ATOM      7  C   UNL     1       2.636   4.747  17.812  0.00  0.00    +0.000 A 
ATOM      8  C   UNL     1       3.329   3.705  17.171  0.00  0.00    +0.000 A 
ATOM      9  C   UNL     1       4.573   3.928  16.585  0.00  0.00    +0.000 A 
ATOM     10  C   UNL     1       5.122   5.201  16.602  0.00  0.00    +0.000 A 
ATOM     11  C   UNL     1       4.423   6.251  17.204  0.00  0.00    +0.000 A 
ATOM     12  C   UNL     1       3.171   6.061  17.832  0.00  0.00    +0.000 A 
BRANCH   7  14
ATOM     13  C   UNL     1       1.265   3.340  19.150  0.00  0.00    +0.000 C 
ATOM     14  O   UNL     1       1.410   4.541  18.400  0.00  0.00    +0.000 OA
ENDBRANCH   7  14
ENDBRANCH   1  12
BRANCH   4  15
ATOM     15  S   UNL     1       0.375  10.701  20.633  0.00  0.00    +0.000 S 
ATOM     16  O   UNL     1      -0.899  10.204  21.104  0.00  0.00    +0.000 OA
ATOM     17  O   UNL     1       1.311  11.357  21.520  0.00  0.00    +0.000 OA
BRANCH  15  18
ATOM     18  N   UNL     1       0.025  11.769  19.367  0.00  0.00    +0.000 NA
ATOM     19  H   UNL     1       0.588  11.548  18.546  0.00  0.00    +0.000 HD
BRANCH  18  20
ATOM     20  C   UNL     1      -1.384  12.120  19.166  0.00  0.00    +0.000 C 
BRANCH  20  21
ATOM     21  C   UNL     1      -1.862  11.630  17.797  0.00  0.00    +0.000 C 
BRANCH  21  22
ATOM     22  C   UNL     1      -2.290  10.163  17.888  0.00  0.00    +0.000 C 
BRANCH  22  23
ATOM     23  C   UNL     1      -3.216   9.745  16.749  0.00  0.00    +0.000 C 
BRANCH  23  24
ATOM     24  C   UNL     1      -2.639  10.155  15.399  0.00  0.00    +0.000 C 
BRANCH  24  25
ATOM     25  O   UNL     1      -3.560  10.989  14.711  0.00  0.00    +0.000 OA
ATOM     26  H   UNL     1      -3.621  10.666  13.795  0.00  0.00    +0.000 HD
ENDBRANCH  24  25
ENDBRANCH  23  24
ENDBRANCH  22  23
ENDBRANCH  21  22
ENDBRANCH  20  21
ENDBRANCH  18  20
ENDBRANCH  15  18
ENDBRANCH   4  15
TORSDOF 10
ENDMDL
MODEL 6
REMARK VINA RESULT:      -6.7      3.655      7.686
REMARK  Name = 
REMARK  11 active torsions:
REMARK  status: ('A' for Active; 'I' for Inactive)
REMARK    1  A    between atoms: C_1  and  O_2
REMARK    2  A    between atoms: O_2  and  C_3
REMARK    3  A    between atoms: C_8  and  C_9
REMARK    4  A    between atoms: C_12  and  S_13
REMARK    5  A    between atoms: S_13  and  N_16
REMARK    6  A    between atoms: N_16  and  C_17
REMARK    7  A    between atoms: C_17  and  C_18
REMARK    8  A    between atoms: C_18  and  C_19
REMARK    9  A    between atoms: C_19  and  C_20
REMARK   10  A    between atoms: C_20  and  C_21
REMARK   11  A    between atoms: C_21  and  O_22
REMARK                            x       y       z     vdW  Elec       q    Type
REMARK                         _______ _______ _______ _____ _____    ______ ____
ROOT
ATOM      1  C   UNL     1       2.462   7.225  18.540  0.00  0.00    +0.000 A 
ATOM      2  C   UNL     1       2.159   7.250  19.914  0.00  0.00    +0.000 A 
ATOM      3  C   UNL     1       1.606   8.383  20.528  0.00  0.00    +0.000 A 
ATOM      4  C   UNL     1       1.323   9.513  19.764  0.00  0.00    +0.000 A 
ATOM      5  C   UNL     1       1.563   9.511  18.393  0.00  0.00    +0.000 A 
ATOM      6  C   UNL     1       2.138   8.381  17.796  0.00  0.00    +0.000 A 
ENDROOT
BRANCH   1  12
ATOM      7  C   UNL     1       2.513   4.747  17.863  0.00  0.00    +0.000 A 
ATOM      8  C   UNL     1       3.176   3.679  17.235  0.00  0.00    +0.000 A 
ATOM      9  C   UNL     1       4.431   3.856  16.657  0.00  0.00    +0.000 A 
ATOM     10  C   UNL     1       5.022   5.110  16.671  0.00  0.00    +0.000 A 
ATOM     11  C   UNL     1       4.354   6.187  17.261  0.00  0.00    +0.000 A 
ATOM     12  C   UNL     1       3.091   6.043  17.880  0.00  0.00    +0.000 A 
BRANCH   7  14
ATOM     13  C   UNL     1       1.182   3.599  19.464  0.00  0.00    +0.000 C 
ATOM     14  O   UNL     1       1.276   4.586  18.443  0.00  0.00    +0.000 OA
ENDBRANCH   7  14
ENDBRANCH   1  12
BRANCH   4  15
ATOM     15  S   UNL     1       0.616  10.952  20.520  0.00  0.00    +0.000 S 
ATOM     16  O   UNL     1       0.803  10.831  21.949  0.00  0.00    +0.000 OA
ATOM     17  O   UNL     1       1.045  12.126  19.793  0.00  0.00    +0.000 OA
BRANCH  15  18
ATOM     18  N   UNL     1      -1.042  10.747  20.243  0.00  0.00    +0.000 NA
ATOM     19  H   UNL     1      -1.429  10.055  20.884  0.00  0.00    +0.000 HD
BRANCH  18  20
ATOM     20  C   UNL     1      -1.824  11.957  19.976  0.00  0.00    +0.000 C 
BRANCH  20  21
ATOM     21  C   UNL     1      -2.707  11.756  18.742  0.00  0.00    +0.000 C 
BRANCH  21  22
ATOM     22  C   UNL     1      -1.834  11.478  17.517  0.00  0.00    +0.000 C 
BRANCH  22  23
ATOM     23  C   UNL     1      -2.086  10.101  16.909  0.00  0.00    +0.000 C 
BRANCH  23  24
ATOM     24  C   UNL     1      -3.156  10.171  15.825  0.00  0.00    +0.000 C 
BRANCH  24  25
ATOM     25  O   UNL     1      -3.149  11.456  15.219  0.00  0.00    +0.000 OA
ATOM     26  H   UNL     1      -3.065  12.116  15.929  0.00  0.00    +0.000 HD
ENDBRANCH  24  25
ENDBRANCH  23  24
ENDBRANCH  22  23
ENDBRANCH  21  22
ENDBRANCH  20  21
ENDBRANCH  18  20
ENDBRANCH  15  18
ENDBRANCH   4  15
TORSDOF 10
ENDMDL
MODEL 7
REMARK VINA RESULT:      -6.7      1.778      2.362
REMARK  Name = 
REMARK  11 active torsions:
REMARK  status: ('A' for Active; 'I' for Inactive)
REMARK    1  A    between atoms: C_1  and  O_2
REMARK    2  A    between atoms: O_2  and  C_3
REMARK    3  A    between atoms: C_8  and  C_9
REMARK    4  A    between atoms: C_12  and  S_13
REMARK    5  A    between atoms: S_13  and  N_16
REMARK    6  A    between atoms: N_16  and  C_17
REMARK    7  A    between atoms: C_17  and  C_18
REMARK    8  A    between atoms: C_18  and  C_19
REMARK    9  A    between atoms: C_19  and  C_20
REMARK   10  A    between atoms: C_20  and  C_21
REMARK   11  A    between atoms: C_21  and  O_22
REMARK                            x       y       z     vdW  Elec       q    Type
REMARK                         _______ _______ _______ _____ _____    ______ ____
ROOT
ATOM      1  C   UNL     1       0.912   9.439  19.118  0.00  0.00    +0.000 A 
ATOM      2  C   UNL     1       1.189   8.545  20.170  0.00  0.00    +0.000 A 
ATOM      3  C   UNL     1       2.077   7.472  20.013  0.00  0.00    +0.000 A 
ATOM      4  C   UNL     1       2.726   7.285  18.794  0.00  0.00    +0.000 A 
ATOM      5  C   UNL     1       2.516   8.176  17.744  0.00  0.00    +0.000 A 
ATOM      6  C   UNL     1       1.609   9.231  17.907  0.00  0.00    +0.000 A 
ENDROOT
BRANCH   1  12
ATOM      7  C   UNL     1       0.208  11.760  19.966  0.00  0.00    +0.000 A 
ATOM      8  C   UNL     1      -0.769  12.766  20.065  0.00  0.00    +0.000 A 
ATOM      9  C   UNL     1      -2.036  12.590  19.512  0.00  0.00    +0.000 A 
ATOM     10  C   UNL     1      -2.328  11.422  18.825  0.00  0.00    +0.000 A 
ATOM     11  C   UNL     1      -1.351  10.432  18.688  0.00  0.00    +0.000 A 
ATOM     12  C   UNL     1      -0.062  10.562  19.256  0.00  0.00    +0.000 A 
BRANCH   7  14
ATOM     13  C   UNL     1       2.134  13.133  20.208  0.00  0.00    +0.000 C 
ATOM     14  O   UNL     1       1.461  11.917  20.512  0.00  0.00    +0.000 OA
ENDBRANCH   7  14
ENDBRANCH   1  12
BRANCH   4  15
ATOM     15  S   UNL     1       3.858   5.939  18.578  0.00  0.00    +0.000 S 
ATOM     16  O   UNL     1       5.010   6.448  17.866  0.00  0.00    +0.000 OA
ATOM     17  O   UNL     1       3.990   5.228  19.830  0.00  0.00    +0.000 OA
BRANCH  15  18
ATOM     18  N   UNL     1       3.041   4.930  17.492  0.00  0.00    +0.000 NA
ATOM     19  H   UNL     1       3.669   4.212  17.130  0.00  0.00    +0.000 HD
BRANCH  18  20
ATOM     20  C   UNL     1       1.675   4.539  17.847  0.00  0.00    +0.000 C 
BRANCH  20  21
ATOM     21  C   UNL     1       1.608   3.036  18.124  0.00  0.00    +0.000 C 
BRANCH  21  22
ATOM     22  C   UNL     1       0.680   2.766  19.311  0.00  0.00    +0.000 C 
BRANCH  22  23
ATOM     23  C   UNL     1       1.009   3.626  20.529  0.00  0.00    +0.000 C 
BRANCH  23  24
ATOM     24  C   UNL     1       1.691   2.798  21.612  0.00  0.00    +0.000 C 
BRANCH  24  25
ATOM     25  O   UNL     1       3.060   2.606  21.286  0.00  0.00    +0.000 OA
ATOM     26  H   UNL     1       3.311   1.715  21.586  0.00  0.00    +0.000 HD
ENDBRANCH  24  25
ENDBRANCH  23  24
ENDBRANCH  22  23
ENDBRANCH  21  22
ENDBRANCH  20  21
ENDBRANCH  18  20
ENDBRANCH  15  18
ENDBRANCH   4  15
TORSDOF 10
ENDMDL
MODEL 8
REMARK VINA RESULT:      -6.7      3.549      7.646
REMARK  Name = 
REMARK  11 active torsions:
REMARK  status: ('A' for Active; 'I' for Inactive)
REMARK    1  A    between atoms: C_1  and  O_2
REMARK    2  A    between atoms: O_2  and  C_3
REMARK    3  A    between atoms: C_8  and  C_9
REMARK    4  A    between atoms: C_12  and  S_13
REMARK    5  A    between atoms: S_13  and  N_16
REMARK    6  A    between atoms: N_16  and  C_17
REMARK    7  A    between atoms: C_17  and  C_18
REMARK    8  A    between atoms: C_18  and  C_19
REMARK    9  A    between atoms: C_19  and  C_20
REMARK   10  A    between atoms: C_20  and  C_21
REMARK   11  A    between atoms: C_21  and  O_22
REMARK                            x       y       z     vdW  Elec       q    Type
REMARK                         _______ _______ _______ _____ _____    ______ ____
ROOT
ATOM      1  C   UNL     1       2.237   6.498  19.073  0.00  0.00    +0.000 A 
ATOM      2  C   UNL     1       1.748   6.766  20.366  0.00  0.00    +0.000 A 
ATOM      3  C   UNL     1       1.325   8.048  20.744  0.00  0.00    +0.000 A 
ATOM      4  C   UNL     1       1.364   9.089  19.819  0.00  0.00    +0.000 A 
ATOM      5  C   UNL     1       1.795   8.853  18.516  0.00  0.00    +0.000 A 
ATOM      6  C   UNL     1       2.237   7.573  18.157  0.00  0.00    +0.000 A 
ENDROOT
BRANCH   1  12
ATOM      7  C   UNL     1       4.054   4.690  18.898  0.00  0.00    +0.000 A 
ATOM      8  C   UNL     1       4.450   3.410  18.471  0.00  0.00    +0.000 A 
ATOM      9  C   UNL     1       3.569   2.585  17.774  0.00  0.00    +0.000 A 
ATOM     10  C   UNL     1       2.275   3.016  17.527  0.00  0.00    +0.000 A 
ATOM     11  C   UNL     1       1.861   4.272  17.980  0.00  0.00    +0.000 A 
ATOM     12  C   UNL     1       2.732   5.149  18.668  0.00  0.00    +0.000 A 
BRANCH   7  14
ATOM     13  C   UNL     1       6.286   5.447  19.211  0.00  0.00    +0.000 C 
ATOM     14  O   UNL     1       4.914   5.518  19.582  0.00  0.00    +0.000 OA
ENDBRANCH   7  14
ENDBRANCH   1  12
BRANCH   4  15
ATOM     15  S   UNL     1       0.826  10.714  20.275  0.00  0.00    +0.000 S 
ATOM     16  O   UNL     1       0.846  10.792  21.719  0.00  0.00    +0.000 OA
ATOM     17  O   UNL     1       1.509  11.687  19.451  0.00  0.00    +0.000 OA
BRANCH  15  18
ATOM     18  N   UNL     1      -0.807  10.711  19.827  0.00  0.00    +0.000 NA
ATOM     19  H   UNL     1      -1.405  10.747  20.652  0.00  0.00    +0.000 HD
BRANCH  18  20
ATOM     20  C   UNL     1      -1.179  11.526  18.668  0.00  0.00    +0.000 C 
BRANCH  20  21
ATOM     21  C   UNL     1      -2.683  11.421  18.406  0.00  0.00    +0.000 C 
BRANCH  21  22
ATOM     22  C   UNL     1      -3.003  10.086  17.731  0.00  0.00    +0.000 C 
BRANCH  22  23
ATOM     23  C   UNL     1      -2.324   9.930  16.373  0.00  0.00    +0.000 C 
BRANCH  23  24
ATOM     24  C   UNL     1      -3.090  10.683  15.291  0.00  0.00    +0.000 C 
BRANCH  24  25
ATOM     25  O   UNL     1      -4.477  10.697  15.599  0.00  0.00    +0.000 OA
ATOM     26  H   UNL     1      -4.579  10.366  16.509  0.00  0.00    +0.000 HD
ENDBRANCH  24  25
ENDBRANCH  23  24
ENDBRANCH  22  23
ENDBRANCH  21  22
ENDBRANCH  20  21
ENDBRANCH  18  20
ENDBRANCH  15  18
ENDBRANCH   4  15
TORSDOF 10
ENDMDL
MODEL 9
REMARK VINA RESULT:      -6.7      1.490      2.476
REMARK  Name = 
REMARK  11 active torsions:
REMARK  status: ('A' for Active; 'I' for Inactive)
REMARK    1  A    between atoms: C_1  and  O_2
REMARK    2  A    between atoms: O_2  and  C_3
REMARK    3  A    between atoms: C_8  and  C_9
REMARK    4  A    between atoms: C_12  and  S_13
REMARK    5  A    between atoms: S_13  and  N_16
REMARK    6  A    between atoms: N_16  and  C_17
REMARK    7  A    between atoms: C_17  and  C_18
REMARK    8  A    between atoms: C_18  and  C_19
REMARK    9  A    between atoms: C_19  and  C_20
REMARK   10  A    between atoms: C_20  and  C_21
REMARK   11  A    between atoms: C_21  and  O_22
REMARK                            x       y       z     vdW  Elec       q    Type
REMARK                         _______ _______ _______ _____ _____    ______ ____
ROOT
ATOM      1  C   UNL     1       1.529   8.687  19.212  0.00  0.00    +0.000 A 
ATOM      2  C   UNL     1       2.092   8.825  17.929  0.00  0.00    +0.000 A 
ATOM      3  C   UNL     1       3.005   7.892  17.419  0.00  0.00    +0.000 A 
ATOM      4  C   UNL     1       3.357   6.782  18.185  0.00  0.00    +0.000 A 
ATOM      5  C   UNL     1       2.785   6.584  19.439  0.00  0.00    +0.000 A 
ATOM      6  C   UNL     1       1.891   7.536  19.946  0.00  0.00    +0.000 A 
ENDROOT
BRANCH   1  12
ATOM      7  C   UNL     1      -0.456  10.311  19.048  0.00  0.00    +0.000 A 
ATOM      8  C   UNL     1      -1.292  11.264  19.655  0.00  0.00    +0.000 A 
ATOM      9  C   UNL     1      -1.086  11.658  20.976  0.00  0.00    +0.000 A 
ATOM     10  C   UNL     1      -0.065  11.079  21.714  0.00  0.00    +0.000 A 
ATOM     11  C   UNL     1       0.747  10.103  21.130  0.00  0.00    +0.000 A 
ATOM     12  C   UNL     1       0.587   9.695  19.786  0.00  0.00    +0.000 A 
BRANCH   7  14
ATOM     13  C   UNL     1      -1.966  10.033  17.233  0.00  0.00    +0.000 C 
ATOM     14  O   UNL     1      -0.643   9.917  17.743  0.00  0.00    +0.000 OA
ENDBRANCH   7  14
ENDBRANCH   1  12
BRANCH   4  15
ATOM     15  S   UNL     1       4.504   5.587  17.555  0.00  0.00    +0.000 S 
ATOM     16  O   UNL     1       4.935   6.040  16.251  0.00  0.00    +0.000 OA
ATOM     17  O   UNL     1       5.451   5.248  18.594  0.00  0.00    +0.000 OA
BRANCH  15  18
ATOM     18  N   UNL     1       3.526   4.232  17.282  0.00  0.00    +0.000 NA
ATOM     19  H   UNL     1       3.321   4.133  16.288  0.00  0.00    +0.000 HD
BRANCH  18  20
ATOM     20  C   UNL     1       3.838   3.023  18.048  0.00  0.00    +0.000 C 
BRANCH  20  21
ATOM     21  C   UNL     1       2.551   2.282  18.418  0.00  0.00    +0.000 C 
BRANCH  21  22
ATOM     22  C   UNL     1       1.413   3.285  18.621  0.00  0.00    +0.000 C 
BRANCH  22  23
ATOM     23  C   UNL     1       0.764   3.175  19.998  0.00  0.00    +0.000 C 
BRANCH  23  24
ATOM     24  C   UNL     1       1.780   3.442  21.103  0.00  0.00    +0.000 C 
BRANCH  24  25
ATOM     25  O   UNL     1       1.626   2.489  22.145  0.00  0.00    +0.000 OA
ATOM     26  H   UNL     1       0.713   2.559  22.474  0.00  0.00    +0.000 HD
ENDBRANCH  24  25
ENDBRANCH  23  24
ENDBRANCH  22  23
ENDBRANCH  21  22
ENDBRANCH  20  21
ENDBRANCH  18  20
ENDBRANCH  15  18
ENDBRANCH   4  15
TORSDOF 10
ENDMDL
