MODEL 1
REMARK VINA RESULT:      -9.0      0.000      0.000
REMARK  Name = 
REMARK  9 active torsions:
REMARK  status: ('A' for Active; 'I' for Inactive)
REMARK    1  A    between atoms: C_1  and  C_2
REMARK    2  A    between atoms: C_2  and  N_3
REMARK    3  A    between atoms: C_2  and  C_28
REMARK    4  A    between atoms: C_4  and  C_6
REMARK    5  A    between atoms: N_12  and  C_13
REMARK    6  A    between atoms: C_13  and  C_14
REMARK    7  A    between atoms: C_17  and  C_18
REMARK    8  A    between atoms: C_31  and  C_32
REMARK    9  A    between atoms: C_32  and  O_34
REMARK                            x       y       z     vdW  Elec       q    Type
REMARK                         _______ _______ _______ _____ _____    ______ ____
ROOT
ATOM      1  C   UNL     1       2.351   5.552  19.709  0.00  0.00    +0.000 A 
ATOM      2  C   UNL     1       1.135   5.026  20.290  0.00  0.00    +0.000 A 
ATOM      3  C   UNL     1       0.913   3.702  20.744  0.00  0.00    +0.000 A 
ATOM      4  C   UNL     1       1.913   2.778  20.645  0.00  0.00    +0.000 A 
ATOM      5  C   UNL     1       3.118   3.218  20.139  0.00  0.00    +0.000 A 
ATOM      6  C   UNL     1       3.412   4.575  19.666  0.00  0.00    +0.000 A 
ATOM      7  N   UNL     1       4.759   4.517  19.264  0.00  0.00    +0.000 N 
ATOM      8  C   UNL     1       5.378   3.278  19.804  0.00  0.00    +0.000 C 
ATOM      9  C   UNL     1       4.276   2.277  20.009  0.00  0.00    +0.000 C 
ENDROOT
BRANCH   1  11
ATOM     10  N   UNL     1       1.148   7.980  20.148  0.00  0.00    +0.000 N 
ATOM     11  C   UNL     1       2.066   7.130  19.450  0.00  0.00    +0.000 C 
ATOM     12  O   UNL     1       2.872   7.694  18.698  0.00  0.00    +0.000 OA
ATOM     13  H   UNL     1       0.245   7.593  20.378  0.00  0.00    +0.000 HD
BRANCH  10  15
ATOM     14  C   UNL     1       1.262  10.208  18.769  0.00  0.00    +0.000 C 
ATOM     15  C   UNL     1       1.258   9.545  20.172  0.00  0.00    +0.000 C 
BRANCH  15  16
ATOM     16  C   UNL     1       0.214  10.319  21.077  0.00  0.00    +0.000 A 
ATOM     17  C   UNL     1      -0.081   9.889  22.375  0.00  0.00    +0.000 A 
ATOM     18  C   UNL     1      -1.022  10.565  23.187  0.00  0.00    +0.000 A 
ATOM     19  C   UNL     1      -1.686  11.720  22.740  0.00  0.00    +0.000 A 
ATOM     20  C   UNL     1      -1.329  12.241  21.506  0.00  0.00    +0.000 A 
ATOM     21  C   UNL     1      -0.393  11.539  20.691  0.00  0.00    +0.000 A 
BRANCH  19  22
ATOM     22  C   UNL     1      -2.750  12.392  23.538  0.00  0.00    +0.000 C 
ATOM     23  O   UNL     1      -3.743  11.820  23.960  0.00  0.00    +0.000 OA
BRANCH  22  24
ATOM     24  O   UNL     1      -2.436  13.674  23.817  0.00  0.00    +0.000 OA
ATOM     25  H   UNL     1      -1.623  13.788  24.358  0.00  0.00    +0.000 HD
ENDBRANCH  22  24
ENDBRANCH  19  22
ENDBRANCH  15  16
ENDBRANCH  10  15
ENDBRANCH   1  11
BRANCH   7  26
ATOM     26  C   UNL     1       5.731   5.525  18.929  0.00  0.00    +0.000 C 
BRANCH  26  27
ATOM     27  C   UNL     1       6.110   5.542  17.477  0.00  0.00    +0.000 A 
ATOM     28  C   UNL     1       7.236   4.897  16.981  0.00  0.00    +0.000 A 
ATOM     29  C   UNL     1       7.262   4.480  15.644  0.00  0.00    +0.000 A 
ATOM     30  C   UNL     1       6.190   4.731  14.771  0.00  0.00    +0.000 A 
ATOM     31  C   UNL     1       5.249   5.669  15.228  0.00  0.00    +0.000 A 
ATOM     32  C   UNL     1       5.198   6.060  16.560  0.00  0.00    +0.000 A 
BRANCH  30  33
ATOM     33  C   UNL     1       5.988   4.018  13.473  0.00  0.00    +0.000 A 
ATOM     34  C   UNL     1       7.034   3.455  12.720  0.00  0.00    +0.000 A 
ATOM     35  C   UNL     1       6.792   2.783  11.509  0.00  0.00    +0.000 A 
ATOM     36  C   UNL     1       5.495   2.643  11.023  0.00  0.00    +0.000 A 
ATOM     37  C   UNL     1       4.436   3.146  11.760  0.00  0.00    +0.000 A 
ATOM     38  C   UNL     1       4.684   3.800  12.971  0.00  0.00    +0.000 A 
ENDBRANCH  30  33
ENDBRANCH  26  27
ENDBRANCH   7  26
TORSDOF 8
ENDMDL
MODEL 2
REMARK VINA RESULT:      -8.9      2.336      2.806
REMARK  Name = 
REMARK  9 active torsions:
REMARK  status: ('A' for Active; 'I' for Inactive)
REMARK    1  A    between atoms: C_1  and  C_2
REMARK    2  A    between atoms: C_2  and  N_3
REMARK    3  A    between atoms: C_2  and  C_28
REMARK    4  A    between atoms: C_4  and  C_6
REMARK    5  A    between atoms: N_12  and  C_13
REMARK    6  A    between atoms: C_13  and  C_14
REMARK    7  A    between atoms: C_17  and  C_18
REMARK    8  A    between atoms: C_31  and  C_32
REMARK    9  A    between atoms: C_32  and  O_34
REMARK                            x       y       z     vdW  Elec       q    Type
REMARK                         _______ _______ _______ _____ _____    ______ ____
ROOT
ATOM      1  C   UNL     1       2.128   5.860  19.900  0.00  0.00    +0.000 A 
ATOM      2  C   UNL     1       0.810   5.402  20.280  0.00  0.00    +0.000 A 
ATOM      3  C   UNL     1       0.393   4.059  20.455  0.00  0.00    +0.000 A 
ATOM      4  C   UNL     1       1.283   3.045  20.251  0.00  0.00    +0.000 A 
ATOM      5  C   UNL     1       2.574   3.407  19.927  0.00  0.00    +0.000 A 
ATOM      6  C   UNL     1       3.067   4.776  19.746  0.00  0.00    +0.000 A 
ATOM      7  N   UNL     1       4.430   4.614  19.437  0.00  0.00    +0.000 N 
ATOM      8  C   UNL     1       4.847   3.227  19.772  0.00  0.00    +0.000 C 
ATOM      9  C   UNL     1       3.622   2.360  19.701  0.00  0.00    +0.000 C 
ENDROOT
BRANCH   1  11
ATOM     10  N   UNL     1       1.864   8.370  18.821  0.00  0.00    +0.000 N 
ATOM     11  C   UNL     1       2.054   7.482  19.929  0.00  0.00    +0.000 C 
ATOM     12  O   UNL     1       1.959   7.985  21.057  0.00  0.00    +0.000 OA
ATOM     13  H   UNL     1       2.356   8.153  17.966  0.00  0.00    +0.000 HD
BRANCH  10  15
ATOM     14  C   UNL     1       2.228  10.906  18.262  0.00  0.00    +0.000 C 
ATOM     15  C   UNL     1       1.343   9.843  18.965  0.00  0.00    +0.000 C 
BRANCH  15  16
ATOM     16  C   UNL     1      -0.163  10.110  18.555  0.00  0.00    +0.000 A 
ATOM     17  C   UNL     1      -0.962  11.009  19.270  0.00  0.00    +0.000 A 
ATOM     18  C   UNL     1      -2.312  11.245  18.921  0.00  0.00    +0.000 A 
ATOM     19  C   UNL     1      -2.910  10.608  17.819  0.00  0.00    +0.000 A 
ATOM     20  C   UNL     1      -2.114   9.803  17.019  0.00  0.00    +0.000 A 
ATOM     21  C   UNL     1      -0.760   9.561  17.394  0.00  0.00    +0.000 A 
BRANCH  19  22
ATOM     22  C   UNL     1      -4.355  10.766  17.490  0.00  0.00    +0.000 C 
ATOM     23  O   UNL     1      -5.230  10.902  18.331  0.00  0.00    +0.000 OA
BRANCH  22  24
ATOM     24  O   UNL     1      -4.564  10.838  16.159  0.00  0.00    +0.000 OA
ATOM     25  H   UNL     1      -4.134  10.125  15.637  0.00  0.00    +0.000 HD
ENDBRANCH  22  24
ENDBRANCH  19  22
ENDBRANCH  15  16
ENDBRANCH  10  15
ENDBRANCH   1  11
BRANCH   7  26
ATOM     26  C   UNL     1       5.540   5.530  19.373  0.00  0.00    +0.000 C 
BRANCH  26  27
ATOM     27  C   UNL     1       6.086   5.722  17.988  0.00  0.00    +0.000 A 
ATOM     28  C   UNL     1       7.308   5.203  17.577  0.00  0.00    +0.000 A 
ATOM     29  C   UNL     1       7.523   4.932  16.219  0.00  0.00    +0.000 A 
ATOM     30  C   UNL     1       6.545   5.207  15.248  0.00  0.00    +0.000 A 
ATOM     31  C   UNL     1       5.491   6.032  15.672  0.00  0.00    +0.000 A 
ATOM     32  C   UNL     1       5.253   6.277  17.019  0.00  0.00    +0.000 A 
BRANCH  30  33
ATOM     33  C   UNL     1       6.552   4.623  13.872  0.00  0.00    +0.000 A 
ATOM     34  C   UNL     1       7.543   4.895  12.912  0.00  0.00    +0.000 A 
ATOM     35  C   UNL     1       7.512   4.312  11.633  0.00  0.00    +0.000 A 
ATOM     36  C   UNL     1       6.495   3.429  11.282  0.00  0.00    +0.000 A 
ATOM     37  C   UNL     1       5.527   3.102  12.216  0.00  0.00    +0.000 A 
ATOM     38  C   UNL     1       5.573   3.676  13.492  0.00  0.00    +0.000 A 
ENDBRANCH  30  33
ENDBRANCH  26  27
ENDBRANCH   7  26
TORSDOF 8
ENDMDL
MODEL 3
REMARK VINA RESULT:      -8.9      2.426      3.021
REMARK  Name = 
REMARK  9 active torsions:
REMARK  status: ('A' for Active; 'I' for Inactive)
REMARK    1  A    between atoms: C_1  and  C_2
REMARK    2  A    between atoms: C_2  and  N_3
REMARK    3  A    between atoms: C_2  and  C_28
REMARK    4  A    between atoms: C_4  and  C_6
REMARK    5  A    between atoms: N_12  and  C_13
REMARK    6  A    between atoms: C_13  and  C_14
REMARK    7  A    between atoms: C_17  and  C_18
REMARK    8  A    between atoms: C_31  and  C_32
REMARK    9  A    between atoms: C_32  and  O_34
REMARK                            x       y       z     vdW  Elec       q    Type
REMARK                         _______ _______ _______ _____ _____    ______ ____
ROOT
ATOM      1  C   UNL     1       2.186   6.007  19.825  0.00  0.00    +0.000 A 
ATOM      2  C   UNL     1       0.974   5.541  20.463  0.00  0.00    +0.000 A 
ATOM      3  C   UNL     1       0.629   4.198  20.755  0.00  0.00    +0.000 A 
ATOM      4  C   UNL     1       1.487   3.192  20.416  0.00  0.00    +0.000 A 
ATOM      5  C   UNL     1       2.685   3.564  19.841  0.00  0.00    +0.000 A 
ATOM      6  C   UNL     1       3.104   4.934  19.528  0.00  0.00    +0.000 A 
ATOM      7  N   UNL     1       4.386   4.784  18.971  0.00  0.00    +0.000 N 
ATOM      8  C   UNL     1       4.890   3.417  19.262  0.00  0.00    +0.000 C 
ATOM      9  C   UNL     1       3.694   2.528  19.452  0.00  0.00    +0.000 C 
ENDROOT
BRANCH   1  11
ATOM     10  N   UNL     1       1.716   8.477  18.725  0.00  0.00    +0.000 N 
ATOM     11  C   UNL     1       2.083   7.628  19.819  0.00  0.00    +0.000 C 
ATOM     12  O   UNL     1       2.140   8.164  20.934  0.00  0.00    +0.000 OA
ATOM     13  H   UNL     1       2.084   8.242  17.815  0.00  0.00    +0.000 HD
BRANCH  10  15
ATOM     14  C   UNL     1       2.121  11.035  18.306  0.00  0.00    +0.000 C 
ATOM     15  C   UNL     1       1.189   9.946  18.901  0.00  0.00    +0.000 C 
BRANCH  15  16
ATOM     16  C   UNL     1      -0.286  10.238  18.406  0.00  0.00    +0.000 A 
ATOM     17  C   UNL     1      -0.825   9.573  17.300  0.00  0.00    +0.000 A 
ATOM     18  C   UNL     1      -2.138   9.836  16.841  0.00  0.00    +0.000 A 
ATOM     19  C   UNL     1      -2.975  10.759  17.492  0.00  0.00    +0.000 A 
ATOM     20  C   UNL     1      -2.514  11.346  18.660  0.00  0.00    +0.000 A 
ATOM     21  C   UNL     1      -1.183  11.086  19.100  0.00  0.00    +0.000 A 
BRANCH  19  22
ATOM     22  C   UNL     1      -4.323  11.124  16.971  0.00  0.00    +0.000 C 
ATOM     23  O   UNL     1      -5.101  11.856  17.563  0.00  0.00    +0.000 OA
BRANCH  22  24
ATOM     24  O   UNL     1      -4.536  10.630  15.734  0.00  0.00    +0.000 OA
ATOM     25  H   UNL     1      -5.460  10.720  15.411  0.00  0.00    +0.000 HD
ENDBRANCH  22  24
ENDBRANCH  19  22
ENDBRANCH  15  16
ENDBRANCH  10  15
ENDBRANCH   1  11
BRANCH   7  26
ATOM     26  C   UNL     1       5.443   5.715  18.669  0.00  0.00    +0.000 C 
BRANCH  26  27
ATOM     27  C   UNL     1       5.914   5.655  17.245  0.00  0.00    +0.000 A 
ATOM     28  C   UNL     1       7.081   5.006  16.860  0.00  0.00    +0.000 A 
ATOM     29  C   UNL     1       7.199   4.513  15.554  0.00  0.00    +0.000 A 
ATOM     30  C   UNL     1       6.180   4.689  14.603  0.00  0.00    +0.000 A 
ATOM     31  C   UNL     1       5.196   5.631  14.943  0.00  0.00    +0.000 A 
ATOM     32  C   UNL     1       5.053   6.099  16.243  0.00  0.00    +0.000 A 
BRANCH  30  33
ATOM     33  C   UNL     1       6.074   3.897  13.340  0.00  0.00    +0.000 A 
ATOM     34  C   UNL     1       4.852   3.543  12.739  0.00  0.00    +0.000 A 
ATOM     35  C   UNL     1       4.805   2.806  11.543  0.00  0.00    +0.000 A 
ATOM     36  C   UNL     1       5.978   2.411  10.906  0.00  0.00    +0.000 A 
ATOM     37  C   UNL     1       7.199   2.779  11.445  0.00  0.00    +0.000 A 
ATOM     38  C   UNL     1       7.238   3.526  12.627  0.00  0.00    +0.000 A 
ENDBRANCH  30  33
ENDBRANCH  26  27
ENDBRANCH   7  26
TORSDOF 8
ENDMDL
MODEL 4
REMARK VINA RESULT:      -8.3      4.042     10.576
REMARK  Name = 
REMARK  9 active torsions:
REMARK  status: ('A' for Active; 'I' for Inactive)
REMARK    1  A    between atoms: C_1  and  C_2
REMARK    2  A    between atoms: C_2  and  N_3
REMARK    3  A    between atoms: C_2  and  C_28
REMARK    4  A    between atoms: C_4  and  C_6
REMARK    5  A    between atoms: N_12  and  C_13
REMARK    6  A    between atoms: C_13  and  C_14
REMARK    7  A    between atoms: C_17  and  C_18
REMARK    8  A    between atoms: C_31  and  C_32
REMARK    9  A    between atoms: C_32  and  O_34
REMARK                            x       y       z     vdW  Elec       q    Type
REMARK                         _______ _______ _______ _____ _____    ______ ____
ROOT
ATOM      1  C   UNL     1      -1.976  11.023  18.665  0.00  0.00    +0.000 A 
ATOM      2  C   UNL     1      -1.722  10.637  17.294  0.00  0.00    +0.000 A 
ATOM      3  C   UNL     1      -2.624  10.726  16.204  0.00  0.00    +0.000 A 
ATOM      4  C   UNL     1      -3.882  11.214  16.408  0.00  0.00    +0.000 A 
ATOM      5  C   UNL     1      -4.184  11.642  17.684  0.00  0.00    +0.000 A 
ATOM      6  C   UNL     1      -3.291  11.588  18.846  0.00  0.00    +0.000 A 
ATOM      7  N   UNL     1      -4.051  12.143  19.892  0.00  0.00    +0.000 N 
ATOM      8  C   UNL     1      -5.230  12.845  19.320  0.00  0.00    +0.000 C 
ATOM      9  C   UNL     1      -5.536  12.206  17.996  0.00  0.00    +0.000 C 
ENDROOT
BRANCH   1  11
ATOM     10  N   UNL     1      -0.332   9.872  20.537  0.00  0.00    +0.000 N 
ATOM     11  C   UNL     1      -0.579  10.779  19.455  0.00  0.00    +0.000 C 
ATOM     12  O   UNL     1       0.419  11.294  18.933  0.00  0.00    +0.000 OA
ATOM     13  H   UNL     1      -1.043   9.797  21.248  0.00  0.00    +0.000 HD
BRANCH  10  15
ATOM     14  C   UNL     1       1.290   9.095  22.446  0.00  0.00    +0.000 C 
ATOM     15  C   UNL     1       1.097   9.352  20.928  0.00  0.00    +0.000 C 
BRANCH  15  16
ATOM     16  C   UNL     1       1.635   8.086  20.144  0.00  0.00    +0.000 A 
ATOM     17  C   UNL     1       1.573   6.806  20.703  0.00  0.00    +0.000 A 
ATOM     18  C   UNL     1       2.063   5.669  20.017  0.00  0.00    +0.000 A 
ATOM     19  C   UNL     1       2.610   5.768  18.726  0.00  0.00    +0.000 A 
ATOM     20  C   UNL     1       2.578   7.003  18.096  0.00  0.00    +0.000 A 
ATOM     21  C   UNL     1       2.098   8.141  18.807  0.00  0.00    +0.000 A 
BRANCH  19  22
ATOM     22  C   UNL     1       3.220   4.604  18.023  0.00  0.00    +0.000 C 
ATOM     23  O   UNL     1       4.408   4.325  18.080  0.00  0.00    +0.000 OA
BRANCH  22  24
ATOM     24  O   UNL     1       2.292   3.847  17.403  0.00  0.00    +0.000 OA
ATOM     25  H   UNL     1       2.480   2.882  17.408  0.00  0.00    +0.000 HD
ENDBRANCH  22  24
ENDBRANCH  19  22
ENDBRANCH  15  16
ENDBRANCH  10  15
ENDBRANCH   1  11
BRANCH   7  26
ATOM     26  C   UNL     1      -3.718  12.600  21.216  0.00  0.00    +0.000 C 
BRANCH  26  27
ATOM     27  C   UNL     1      -2.462  13.419  21.275  0.00  0.00    +0.000 A 
ATOM     28  C   UNL     1      -1.400  13.119  22.120  0.00  0.00    +0.000 A 
ATOM     29  C   UNL     1      -0.106  13.532  21.779  0.00  0.00    +0.000 A 
ATOM     30  C   UNL     1       0.148  14.281  20.618  0.00  0.00    +0.000 A 
ATOM     31  C   UNL     1      -0.984  14.836  20.000  0.00  0.00    +0.000 A 
ATOM     32  C   UNL     1      -2.269  14.406  20.311  0.00  0.00    +0.000 A 
BRANCH  30  33
ATOM     33  C   UNL     1       1.504  14.438  20.009  0.00  0.00    +0.000 A 
ATOM     34  C   UNL     1       1.723  14.672  18.639  0.00  0.00    +0.000 A 
ATOM     35  C   UNL     1       3.019  14.824  18.115  0.00  0.00    +0.000 A 
ATOM     36  C   UNL     1       4.133  14.760  18.948  0.00  0.00    +0.000 A 
ATOM     37  C   UNL     1       3.953  14.575  20.308  0.00  0.00    +0.000 A 
ATOM     38  C   UNL     1       2.660  14.439  20.824  0.00  0.00    +0.000 A 
ENDBRANCH  30  33
ENDBRANCH  26  27
ENDBRANCH   7  26
TORSDOF 8
ENDMDL
MODEL 5
REMARK VINA RESULT:      -8.2      4.057      7.842
REMARK  Name = 
REMARK  9 active torsions:
REMARK  status: ('A' for Active; 'I' for Inactive)
REMARK    1  A    between atoms: C_1  and  C_2
REMARK    2  A    between atoms: C_2  and  N_3
REMARK    3  A    between atoms: C_2  and  C_28
REMARK    4  A    between atoms: C_4  and  C_6
REMARK    5  A    between atoms: N_12  and  C_13
REMARK    6  A    between atoms: C_13  and  C_14
REMARK    7  A    between atoms: C_17  and  C_18
REMARK    8  A    between atoms: C_31  and  C_32
REMARK    9  A    between atoms: C_32  and  O_34
REMARK                            x       y       z     vdW  Elec       q    Type
REMARK                         _______ _______ _______ _____ _____    ______ ____
ROOT
ATOM      1  C   UNL     1      -1.293  12.838  20.904  0.00  0.00    +0.000 A 
ATOM      2  C   UNL     1      -2.372  13.474  21.628  0.00  0.00    +0.000 A 
ATOM      3  C   UNL     1      -2.978  13.018  22.825  0.00  0.00    +0.000 A 
ATOM      4  C   UNL     1      -2.546  11.859  23.401  0.00  0.00    +0.000 A 
ATOM      5  C   UNL     1      -1.490  11.217  22.789  0.00  0.00    +0.000 A 
ATOM      6  C   UNL     1      -0.814  11.645  21.561  0.00  0.00    +0.000 A 
ATOM      7  N   UNL     1       0.185  10.675  21.359  0.00  0.00    +0.000 N 
ATOM      8  C   UNL     1       0.358   9.885  22.606  0.00  0.00    +0.000 C 
ATOM      9  C   UNL     1      -0.939   9.946  23.361  0.00  0.00    +0.000 C 
ENDROOT
BRANCH   1  11
ATOM     10  N   UNL     1      -0.512  15.192  19.730  0.00  0.00    +0.000 N 
ATOM     11  C   UNL     1      -0.951  13.830  19.665  0.00  0.00    +0.000 C 
ATOM     12  O   UNL     1      -0.878  13.282  18.557  0.00  0.00    +0.000 OA
ATOM     13  H   UNL     1      -0.950  15.786  20.418  0.00  0.00    +0.000 HD
BRANCH  10  15
ATOM     14  C   UNL     1      -0.085  17.436  18.441  0.00  0.00    +0.000 C 
ATOM     15  C   UNL     1       0.235  15.923  18.558  0.00  0.00    +0.000 C 
BRANCH  15  16
ATOM     16  C   UNL     1       1.807  15.748  18.495  0.00  0.00    +0.000 A 
ATOM     17  C   UNL     1       2.668  16.811  18.788  0.00  0.00    +0.000 A 
ATOM     18  C   UNL     1       4.074  16.670  18.722  0.00  0.00    +0.000 A 
ATOM     19  C   UNL     1       4.677  15.445  18.387  0.00  0.00    +0.000 A 
ATOM     20  C   UNL     1       3.856  14.342  18.208  0.00  0.00    +0.000 A 
ATOM     21  C   UNL     1       2.441  14.504  18.259  0.00  0.00    +0.000 A 
BRANCH  19  22
ATOM     22  C   UNL     1       6.150  15.296  18.217  0.00  0.00    +0.000 C 
ATOM     23  O   UNL     1       6.963  16.118  18.611  0.00  0.00    +0.000 OA
BRANCH  22  24
ATOM     24  O   UNL     1       6.476  14.108  17.668  0.00  0.00    +0.000 OA
ATOM     25  H   UNL     1       5.725  13.628  17.254  0.00  0.00    +0.000 HD
ENDBRANCH  22  24
ENDBRANCH  19  22
ENDBRANCH  15  16
ENDBRANCH  10  15
ENDBRANCH   1  11
BRANCH   7  26
ATOM     26  C   UNL     1       1.335  10.612  20.495  0.00  0.00    +0.000 C 
BRANCH  26  27
ATOM     27  C   UNL     1       1.402   9.361  19.668  0.00  0.00    +0.000 A 
ATOM     28  C   UNL     1       1.406   9.370  18.279  0.00  0.00    +0.000 A 
ATOM     29  C   UNL     1       1.996   8.308  17.582  0.00  0.00    +0.000 A 
ATOM     30  C   UNL     1       2.555   7.205  18.250  0.00  0.00    +0.000 A 
ATOM     31  C   UNL     1       2.219   7.092  19.609  0.00  0.00    +0.000 A 
ATOM     32  C   UNL     1       1.664   8.154  20.314  0.00  0.00    +0.000 A 
BRANCH  30  33
ATOM     33  C   UNL     1       3.503   6.240  17.615  0.00  0.00    +0.000 A 
ATOM     34  C   UNL     1       4.655   6.627  16.906  0.00  0.00    +0.000 A 
ATOM     35  C   UNL     1       5.523   5.680  16.336  0.00  0.00    +0.000 A 
ATOM     36  C   UNL     1       5.271   4.317  16.469  0.00  0.00    +0.000 A 
ATOM     37  C   UNL     1       4.171   3.898  17.198  0.00  0.00    +0.000 A 
ATOM     38  C   UNL     1       3.321   4.847  17.775  0.00  0.00    +0.000 A 
ENDBRANCH  30  33
ENDBRANCH  26  27
ENDBRANCH   7  26
TORSDOF 8
ENDMDL
MODEL 6
REMARK VINA RESULT:      -8.2      4.293     10.097
REMARK  Name = 
REMARK  9 active torsions:
REMARK  status: ('A' for Active; 'I' for Inactive)
REMARK    1  A    between atoms: C_1  and  C_2
REMARK    2  A    between atoms: C_2  and  N_3
REMARK    3  A    between atoms: C_2  and  C_28
REMARK    4  A    between atoms: C_4  and  C_6
REMARK    5  A    between atoms: N_12  and  C_13
REMARK    6  A    between atoms: C_13  and  C_14
REMARK    7  A    between atoms: C_17  and  C_18
REMARK    8  A    between atoms: C_31  and  C_32
REMARK    9  A    between atoms: C_32  and  O_34
REMARK                            x       y       z     vdW  Elec       q    Type
REMARK                         _______ _______ _______ _____ _____    ______ ____
ROOT
ATOM      1  C   UNL     1       0.462  10.144  20.736  0.00  0.00    +0.000 A 
ATOM      2  C   UNL     1       0.022   9.097  21.632  0.00  0.00    +0.000 A 
ATOM      3  C   UNL     1      -0.763   9.252  22.802  0.00  0.00    +0.000 A 
ATOM      4  C   UNL     1      -1.172  10.499  23.179  0.00  0.00    +0.000 A 
ATOM      5  C   UNL     1      -0.826  11.544  22.349  0.00  0.00    +0.000 A 
ATOM      6  C   UNL     1      -0.030  11.445  21.122  0.00  0.00    +0.000 A 
ATOM      7  N   UNL     1       0.035  12.766  20.644  0.00  0.00    +0.000 N 
ATOM      8  C   UNL     1      -0.983  13.591  21.346  0.00  0.00    +0.000 C 
ATOM      9  C   UNL     1      -1.247  12.944  22.675  0.00  0.00    +0.000 C 
ENDROOT
BRANCH   1  11
ATOM     10  N   UNL     1       1.948   8.139  19.595  0.00  0.00    +0.000 N 
ATOM     11  C   UNL     1       1.253   9.390  19.535  0.00  0.00    +0.000 C 
ATOM     12  O   UNL     1       1.065   9.860  18.405  0.00  0.00    +0.000 OA
ATOM     13  H   UNL     1       2.504   7.958  20.419  0.00  0.00    +0.000 HD
BRANCH  10  15
ATOM     14  C   UNL     1       3.172   7.964  17.282  0.00  0.00    +0.000 C 
ATOM     15  C   UNL     1       2.273   7.262  18.334  0.00  0.00    +0.000 C 
BRANCH  15  16
ATOM     16  C   UNL     1       2.867   5.820  18.603  0.00  0.00    +0.000 A 
ATOM     17  C   UNL     1       2.181   4.667  18.207  0.00  0.00    +0.000 A 
ATOM     18  C   UNL     1       2.696   3.372  18.453  0.00  0.00    +0.000 A 
ATOM     19  C   UNL     1       3.938   3.181  19.084  0.00  0.00    +0.000 A 
ATOM     20  C   UNL     1       4.697   4.302  19.381  0.00  0.00    +0.000 A 
ATOM     21  C   UNL     1       4.158   5.600  19.144  0.00  0.00    +0.000 A 
BRANCH  19  22
ATOM     22  C   UNL     1       4.456   1.830  19.441  0.00  0.00    +0.000 C 
ATOM     23  O   UNL     1       5.095   1.597  20.455  0.00  0.00    +0.000 OA
BRANCH  22  24
ATOM     24  O   UNL     1       4.051   0.888  18.565  0.00  0.00    +0.000 OA
ATOM     25  H   UNL     1       3.615   1.239  17.757  0.00  0.00    +0.000 HD
ENDBRANCH  22  24
ENDBRANCH  19  22
ENDBRANCH  15  16
ENDBRANCH  10  15
ENDBRANCH   1  11
BRANCH   7  26
ATOM     26  C   UNL     1       0.450  13.341  19.390  0.00  0.00    +0.000 C 
BRANCH  26  27
ATOM     27  C   UNL     1       1.676  14.200  19.494  0.00  0.00    +0.000 A 
ATOM     28  C   UNL     1       2.453  14.276  20.643  0.00  0.00    +0.000 A 
ATOM     29  C   UNL     1       3.808  14.618  20.540  0.00  0.00    +0.000 A 
ATOM     30  C   UNL     1       4.400  14.928  19.304  0.00  0.00    +0.000 A 
ATOM     31  C   UNL     1       3.502  15.167  18.250  0.00  0.00    +0.000 A 
ATOM     32  C   UNL     1       2.165  14.798  18.334  0.00  0.00    +0.000 A 
BRANCH  30  33
ATOM     33  C   UNL     1       5.875  14.942  19.068  0.00  0.00    +0.000 A 
ATOM     34  C   UNL     1       6.822  15.277  20.053  0.00  0.00    +0.000 A 
ATOM     35  C   UNL     1       8.202  15.264  19.785  0.00  0.00    +0.000 A 
ATOM     36  C   UNL     1       8.676  14.902  18.527  0.00  0.00    +0.000 A 
ATOM     37  C   UNL     1       7.776  14.523  17.545  0.00  0.00    +0.000 A 
ATOM     38  C   UNL     1       6.405  14.524  17.825  0.00  0.00    +0.000 A 
ENDBRANCH  30  33
ENDBRANCH  26  27
ENDBRANCH   7  26
TORSDOF 8
ENDMDL
MODEL 7
REMARK VINA RESULT:      -8.1      4.513     11.525
REMARK  Name = 
REMARK  9 active torsions:
REMARK  status: ('A' for Active; 'I' for Inactive)
REMARK    1  A    between atoms: C_1  and  C_2
REMARK    2  A    between atoms: C_2  and  N_3
REMARK    3  A    between atoms: C_2  and  C_28
REMARK    4  A    between atoms: C_4  and  C_6
REMARK    5  A    between atoms: N_12  and  C_13
REMARK    6  A    between atoms: C_13  and  C_14
REMARK    7  A    between atoms: C_17  and  C_18
REMARK    8  A    between atoms: C_31  and  C_32
REMARK    9  A    between atoms: C_32  and  O_34
REMARK                            x       y       z     vdW  Elec       q    Type
REMARK                         _______ _______ _______ _____ _____    ______ ____
ROOT
ATOM      1  C   UNL     1      -3.063  11.444  18.645  0.00  0.00    +0.000 A 
ATOM      2  C   UNL     1      -3.406  11.090  17.285  0.00  0.00    +0.000 A 
ATOM      3  C   UNL     1      -4.600  11.417  16.596  0.00  0.00    +0.000 A 
ATOM      4  C   UNL     1      -5.571  12.135  17.231  0.00  0.00    +0.000 A 
ATOM      5  C   UNL     1      -5.297  12.546  18.519  0.00  0.00    +0.000 A 
ATOM      6  C   UNL     1      -4.078  12.252  19.278  0.00  0.00    +0.000 A 
ATOM      7  N   UNL     1      -4.278  12.891  20.515  0.00  0.00    +0.000 N 
ATOM      8  C   UNL     1      -5.411  13.846  20.395  0.00  0.00    +0.000 C 
ATOM      9  C   UNL     1      -6.298  13.353  19.288  0.00  0.00    +0.000 C 
ENDROOT
BRANCH   1  11
ATOM     10  N   UNL     1      -0.478  10.853  17.938  0.00  0.00    +0.000 N 
ATOM     11  C   UNL     1      -1.558  10.881  18.879  0.00  0.00    +0.000 C 
ATOM     12  O   UNL     1      -1.267  10.632  20.056  0.00  0.00    +0.000 OA
ATOM     13  H   UNL     1      -0.700  10.596  16.988  0.00  0.00    +0.000 HD
BRANCH  10  15
ATOM     14  C   UNL     1       1.451  11.691  19.505  0.00  0.00    +0.000 C 
ATOM     15  C   UNL     1       1.033  10.743  18.350  0.00  0.00    +0.000 C 
BRANCH  15  16
ATOM     16  C   UNL     1       1.578   9.294  18.683  0.00  0.00    +0.000 A 
ATOM     17  C   UNL     1       2.299   8.556  17.739  0.00  0.00    +0.000 A 
ATOM     18  C   UNL     1       2.779   7.255  18.021  0.00  0.00    +0.000 A 
ATOM     19  C   UNL     1       2.579   6.651  19.275  0.00  0.00    +0.000 A 
ATOM     20  C   UNL     1       1.972   7.402  20.271  0.00  0.00    +0.000 A 
ATOM     21  C   UNL     1       1.478   8.704  19.966  0.00  0.00    +0.000 A 
BRANCH  19  22
ATOM     22  C   UNL     1       2.989   5.248  19.564  0.00  0.00    +0.000 C 
ATOM     23  O   UNL     1       2.207   4.312  19.616  0.00  0.00    +0.000 OA
BRANCH  22  24
ATOM     24  O   UNL     1       4.329   5.125  19.660  0.00  0.00    +0.000 OA
ATOM     25  H   UNL     1       4.839   5.864  19.260  0.00  0.00    +0.000 HD
ENDBRANCH  22  24
ENDBRANCH  19  22
ENDBRANCH  15  16
ENDBRANCH  10  15
ENDBRANCH   1  11
BRANCH   7  26
ATOM     26  C   UNL     1      -3.403  13.200  21.617  0.00  0.00    +0.000 C 
BRANCH  26  27
ATOM     27  C   UNL     1      -2.374  14.245  21.298  0.00  0.00    +0.000 A 
ATOM     28  C   UNL     1      -1.075  13.936  20.912  0.00  0.00    +0.000 A 
ATOM     29  C   UNL     1      -0.352  14.846  20.130  0.00  0.00    +0.000 A 
ATOM     30  C   UNL     1      -0.890  16.088  19.753  0.00  0.00    +0.000 A 
ATOM     31  C   UNL     1      -2.047  16.478  20.448  0.00  0.00    +0.000 A 
ATOM     32  C   UNL     1      -2.787  15.572  21.198  0.00  0.00    +0.000 A 
BRANCH  30  33
ATOM     33  C   UNL     1      -0.344  16.931  18.647  0.00  0.00    +0.000 A 
ATOM     34  C   UNL     1      -1.114  17.851  17.912  0.00  0.00    +0.000 A 
ATOM     35  C   UNL     1      -0.552  18.631  16.886  0.00  0.00    +0.000 A 
ATOM     36  C   UNL     1       0.801  18.523  16.575  0.00  0.00    +0.000 A 
ATOM     37  C   UNL     1       1.599  17.661  17.307  0.00  0.00    +0.000 A 
ATOM     38  C   UNL     1       1.035  16.899  18.336  0.00  0.00    +0.000 A 
ENDBRANCH  30  33
ENDBRANCH  26  27
ENDBRANCH   7  26
TORSDOF 8
ENDMDL
MODEL 8
REMARK VINA RESULT:      -8.0      2.184      2.814
REMARK  Name = 
REMARK  9 active torsions:
REMARK  status: ('A' for Active; 'I' for Inactive)
REMARK    1  A    between atoms: C_1  and  C_2
REMARK    2  A    between atoms: C_2  and  N_3
REMARK    3  A    between atoms: C_2  and  C_28
REMARK    4  A    between atoms: C_4  and  C_6
REMARK    5  A    between atoms: N_12  and  C_13
REMARK    6  A    between atoms: C_13  and  C_14
REMARK    7  A    between atoms: C_17  and  C_18
REMARK    8  A    between atoms: C_31  and  C_32
REMARK    9  A    between atoms: C_32  and  O_34
REMARK                            x       y       z     vdW  Elec       q    Type
REMARK                         _______ _______ _______ _____ _____    ______ ____
ROOT
ATOM      1  C   UNL     1       2.419   6.167  19.600  0.00  0.00    +0.000 A 
ATOM      2  C   UNL     1       1.363   5.595  20.405  0.00  0.00    +0.000 A 
ATOM      3  C   UNL     1       1.307   4.278  20.925  0.00  0.00    +0.000 A 
ATOM      4  C   UNL     1       2.327   3.408  20.669  0.00  0.00    +0.000 A 
ATOM      5  C   UNL     1       3.393   3.896  19.942  0.00  0.00    +0.000 A 
ATOM      6  C   UNL     1       3.513   5.249  19.389  0.00  0.00    +0.000 A 
ATOM      7  N   UNL     1       4.766   5.251  18.750  0.00  0.00    +0.000 N 
ATOM      8  C   UNL     1       5.547   4.069  19.200  0.00  0.00    +0.000 C 
ATOM      9  C   UNL     1       4.564   3.017  19.627  0.00  0.00    +0.000 C 
ENDROOT
BRANCH   1  11
ATOM     10  N   UNL     1       2.049   8.455  18.131  0.00  0.00    +0.000 N 
ATOM     11  C   UNL     1       1.997   7.716  19.357  0.00  0.00    +0.000 C 
ATOM     12  O   UNL     1       1.383   8.247  20.292  0.00  0.00    +0.000 OA
ATOM     13  H   UNL     1       2.858   8.316  17.542  0.00  0.00    +0.000 HD
BRANCH  10  15
ATOM     14  C   UNL     1      -0.326   9.537  17.870  0.00  0.00    +0.000 C 
ATOM     15  C   UNL     1       1.211   9.755  17.861  0.00  0.00    +0.000 C 
BRANCH  15  16
ATOM     16  C   UNL     1       1.533  11.012  18.767  0.00  0.00    +0.000 A 
ATOM     17  C   UNL     1       2.369  12.038  18.314  0.00  0.00    +0.000 A 
ATOM     18  C   UNL     1       2.675  13.160  19.120  0.00  0.00    +0.000 A 
ATOM     19  C   UNL     1       2.130  13.313  20.406  0.00  0.00    +0.000 A 
ATOM     20  C   UNL     1       1.205  12.375  20.839  0.00  0.00    +0.000 A 
ATOM     21  C   UNL     1       0.921  11.241  20.023  0.00  0.00    +0.000 A 
BRANCH  19  22
ATOM     22  C   UNL     1       2.512  14.435  21.310  0.00  0.00    +0.000 C 
ATOM     23  O   UNL     1       1.831  15.435  21.473  0.00  0.00    +0.000 OA
BRANCH  22  24
ATOM     24  O   UNL     1       3.643  14.167  21.995  0.00  0.00    +0.000 OA
ATOM     25  H   UNL     1       4.213  14.949  22.167  0.00  0.00    +0.000 HD
ENDBRANCH  22  24
ENDBRANCH  19  22
ENDBRANCH  15  16
ENDBRANCH  10  15
ENDBRANCH   1  11
BRANCH   7  26
ATOM     26  C   UNL     1       5.598   6.300  18.219  0.00  0.00    +0.000 C 
BRANCH  26  27
ATOM     27  C   UNL     1       6.021   6.075  16.796  0.00  0.00    +0.000 A 
ATOM     28  C   UNL     1       7.191   5.411  16.449  0.00  0.00    +0.000 A 
ATOM     29  C   UNL     1       7.277   4.763  15.210  0.00  0.00    +0.000 A 
ATOM     30  C   UNL     1       6.221   4.796  14.284  0.00  0.00    +0.000 A 
ATOM     31  C   UNL     1       5.223   5.750  14.543  0.00  0.00    +0.000 A 
ATOM     32  C   UNL     1       5.113   6.371  15.782  0.00  0.00    +0.000 A 
BRANCH  30  33
ATOM     33  C   UNL     1       6.093   3.852  13.133  0.00  0.00    +0.000 A 
ATOM     34  C   UNL     1       4.861   3.436  12.596  0.00  0.00    +0.000 A 
ATOM     35  C   UNL     1       4.792   2.554  11.504  0.00  0.00    +0.000 A 
ATOM     36  C   UNL     1       5.955   2.072  10.908  0.00  0.00    +0.000 A 
ATOM     37  C   UNL     1       7.185   2.495  11.381  0.00  0.00    +0.000 A 
ATOM     38  C   UNL     1       7.245   3.384  12.459  0.00  0.00    +0.000 A 
ENDBRANCH  30  33
ENDBRANCH  26  27
ENDBRANCH   7  26
TORSDOF 8
ENDMDL
MODEL 9
REMARK VINA RESULT:      -8.0      2.117      2.654
REMARK  Name = 
REMARK  9 active torsions:
REMARK  status: ('A' for Active; 'I' for Inactive)
REMARK    1  A    between atoms: C_1  and  C_2
REMARK    2  A    between atoms: C_2  and  N_3
REMARK    3  A    between atoms: C_2  and  C_28
REMARK    4  A    between atoms: C_4  and  C_6
REMARK    5  A    between atoms: N_12  and  C_13
REMARK    6  A    between atoms: C_13  and  C_14
REMARK    7  A    between atoms: C_17  and  C_18
REMARK    8  A    between atoms: C_31  and  C_32
REMARK    9  A    between atoms: C_32  and  O_34
REMARK                            x       y       z     vdW  Elec       q    Type
REMARK                         _______ _______ _______ _____ _____    ______ ____
ROOT
ATOM      1  C   UNL     1       2.278   5.662  19.378  0.00  0.00    +0.000 A 
ATOM      2  C   UNL     1       1.195   5.039  20.107  0.00  0.00    +0.000 A 
ATOM      3  C   UNL     1       1.212   3.769  20.736  0.00  0.00    +0.000 A 
ATOM      4  C   UNL     1       2.340   3.003  20.679  0.00  0.00    +0.000 A 
ATOM      5  C   UNL     1       3.431   3.550  20.036  0.00  0.00    +0.000 A 
ATOM      6  C   UNL     1       3.479   4.860  19.379  0.00  0.00    +0.000 A 
ATOM      7  N   UNL     1       4.794   4.954  18.890  0.00  0.00    +0.000 N 
ATOM      8  C   UNL     1       5.631   3.908  19.533  0.00  0.00    +0.000 C 
ATOM      9  C   UNL     1       4.717   2.788  19.939  0.00  0.00    +0.000 C 
ENDROOT
BRANCH   1  11
ATOM     10  N   UNL     1       1.272   8.179  19.807  0.00  0.00    +0.000 N 
ATOM     11  C   UNL     1       1.731   7.129  18.947  0.00  0.00    +0.000 C 
ATOM     12  O   UNL     1       1.916   7.432  17.761  0.00  0.00    +0.000 OA
ATOM     13  H   UNL     1       0.698   7.914  20.594  0.00  0.00    +0.000 HD
BRANCH  10  15
ATOM     14  C   UNL     1       2.280  10.103  18.337  0.00  0.00    +0.000 C 
ATOM     15  C   UNL     1       1.209   9.688  19.381  0.00  0.00    +0.000 C 
BRANCH  15  16
ATOM     16  C   UNL     1      -0.193  10.232  18.887  0.00  0.00    +0.000 A 
ATOM     17  C   UNL     1      -0.860  11.251  19.575  0.00  0.00    +0.000 A 
ATOM     18  C   UNL     1      -2.120  11.735  19.151  0.00  0.00    +0.000 A 
ATOM     19  C   UNL     1      -2.751  11.235  17.998  0.00  0.00    +0.000 A 
ATOM     20  C   UNL     1      -2.063  10.310  17.227  0.00  0.00    +0.000 A 
ATOM     21  C   UNL     1      -0.803   9.819  17.677  0.00  0.00    +0.000 A 
BRANCH  19  22
ATOM     22  C   UNL     1      -4.119  11.659  17.586  0.00  0.00    +0.000 C 
ATOM     23  O   UNL     1      -4.707  11.199  16.619  0.00  0.00    +0.000 OA
BRANCH  22  24
ATOM     24  O   UNL     1      -4.660  12.533  18.459  0.00  0.00    +0.000 OA
ATOM     25  H   UNL     1      -4.315  13.450  18.389  0.00  0.00    +0.000 HD
ENDBRANCH  22  24
ENDBRANCH  19  22
ENDBRANCH  15  16
ENDBRANCH  10  15
ENDBRANCH   1  11
BRANCH   7  26
ATOM     26  C   UNL     1       5.572   6.045  18.363  0.00  0.00    +0.000 C 
BRANCH  26  27
ATOM     27  C   UNL     1       6.012   5.845  16.942  0.00  0.00    +0.000 A 
ATOM     28  C   UNL     1       7.120   5.083  16.592  0.00  0.00    +0.000 A 
ATOM     29  C   UNL     1       7.177   4.486  15.325  0.00  0.00    +0.000 A 
ATOM     30  C   UNL     1       6.157   4.669  14.376  0.00  0.00    +0.000 A 
ATOM     31  C   UNL     1       5.252   5.706  14.657  0.00  0.00    +0.000 A 
ATOM     32  C   UNL     1       5.168   6.278  15.921  0.00  0.00    +0.000 A 
BRANCH  30  33
ATOM     33  C   UNL     1       5.969   3.796  13.178  0.00  0.00    +0.000 A 
ATOM     34  C   UNL     1       4.718   3.538  12.587  0.00  0.00    +0.000 A 
ATOM     35  C   UNL     1       4.594   2.718  11.452  0.00  0.00    +0.000 A 
ATOM     36  C   UNL     1       5.719   2.143  10.866  0.00  0.00    +0.000 A 
ATOM     37  C   UNL     1       6.970   2.412  11.393  0.00  0.00    +0.000 A 
ATOM     38  C   UNL     1       7.087   3.241  12.514  0.00  0.00    +0.000 A 
ENDBRANCH  30  33
ENDBRANCH  26  27
ENDBRANCH   7  26
TORSDOF 8
ENDMDL
