MODEL 1
REMARK VINA RESULT:      -8.3      0.000      0.000
REMARK  Name = 
REMARK  6 active torsions:
REMARK  status: ('A' for Active; 'I' for Inactive)
REMARK    1  A    between atoms: C_1  and  N_2
REMARK    2  A    between atoms: N_2  and  C_3
REMARK    3  A    between atoms: N_2  and  C_4
REMARK    4  A    between atoms: C_7  and  C_8
REMARK    5  A    between atoms: C_9  and  C_10
REMARK    6  A    between atoms: C_21  and  C_22
REMARK                            x       y       z     vdW  Elec       q    Type
REMARK                         _______ _______ _______ _____ _____    ______ ____
ROOT
ATOM      1  C   UNL     1       2.734   6.717  18.858  0.00  0.00    +0.000 C 
ATOM      2  C   UNL     1       2.416   5.641  18.060  0.00  0.00    +0.000 C 
ENDROOT
BRANCH   2   3
ATOM      3  C   UNL     1       3.371   4.451  17.630  0.00  0.00    +0.000 A 
ATOM      4  C   UNL     1       3.405   3.472  18.617  0.00  0.00    +0.000 A 
ATOM      5  C   UNL     1       4.484   3.500  19.473  0.00  0.00    +0.000 A 
ATOM      6  N   UNL     1       5.608   4.191  19.215  0.00  0.00    +0.000 NA
ATOM      7  C   UNL     1       5.768   4.562  17.947  0.00  0.00    +0.000 A 
ATOM      8  C   UNL     1       7.081   4.604  17.491  0.00  0.00    +0.000 A 
ATOM      9  C   UNL     1       7.379   4.463  16.137  0.00  0.00    +0.000 A 
ATOM     10  C   UNL     1       6.334   4.343  15.229  0.00  0.00    +0.000 A 
ATOM     11  C   UNL     1       4.998   4.464  15.673  0.00  0.00    +0.000 A 
ATOM     12  C   UNL     1       4.668   4.628  17.060  0.00  0.00    +0.000 A 
ENDBRANCH   2   3
BRANCH   1  16
ATOM     13  C   UNL     1       0.401  10.342  20.211  0.00  0.00    +0.000 A 
ATOM     14  C   UNL     1       0.896  10.176  18.895  0.00  0.00    +0.000 A 
ATOM     15  C   UNL     1       1.649   9.039  18.456  0.00  0.00    +0.000 A 
ATOM     16  C   UNL     1       1.983   7.980  19.306  0.00  0.00    +0.000 A 
ATOM     17  C   UNL     1       1.497   8.139  20.632  0.00  0.00    +0.000 A 
ATOM     18  C   UNL     1       0.724   9.261  21.068  0.00  0.00    +0.000 A 
BRANCH  13  20
ATOM     19  C   UNL     1      -1.656  11.754  19.962  0.00  0.00    +0.000 C 
ATOM     20  N   UNL     1      -0.354  11.479  20.583  0.00  0.00    +0.000 N 
ATOM     21  C   UNL     1       0.285  12.666  21.177  0.00  0.00    +0.000 C 
ENDBRANCH  13  20
BRANCH  18  22
ATOM     22  C   UNL     1       0.126   9.221  22.421  0.00  0.00    +0.000 C 
ATOM     23  O   UNL     1       0.724   9.679  23.387  0.00  0.00    +0.000 OA
ENDBRANCH  18  22
ENDBRANCH   1  16
TORSDOF 4
ENDMDL
MODEL 2
REMARK VINA RESULT:      -7.7      2.758      4.505
REMARK  Name = 
REMARK  6 active torsions:
REMARK  status: ('A' for Active; 'I' for Inactive)
REMARK    1  A    between atoms: C_1  and  N_2
REMARK    2  A    between atoms: N_2  and  C_3
REMARK    3  A    between atoms: N_2  and  C_4
REMARK    4  A    between atoms: C_7  and  C_8
REMARK    5  A    between atoms: C_9  and  C_10
REMARK    6  A    between atoms: C_21  and  C_22
REMARK                            x       y       z     vdW  Elec       q    Type
REMARK                         _______ _______ _______ _____ _____    ______ ____
ROOT
ATOM      1  C   UNL     1       0.894   7.890  21.209  0.00  0.00    +0.000 C 
ATOM      2  C   UNL     1       1.799   7.569  20.222  0.00  0.00    +0.000 C 
ENDROOT
BRANCH   2   3
ATOM      3  C   UNL     1       2.600   6.211  20.063  0.00  0.00    +0.000 A 
ATOM      4  C   UNL     1       3.426   6.261  18.945  0.00  0.00    +0.000 A 
ATOM      5  C   UNL     1       2.952   5.652  17.804  0.00  0.00    +0.000 A 
ATOM      6  N   UNL     1       1.929   4.780  17.808  0.00  0.00    +0.000 NA
ATOM      7  C   UNL     1       1.623   4.270  18.998  0.00  0.00    +0.000 A 
ATOM      8  C   UNL     1       1.151   2.962  18.991  0.00  0.00    +0.000 A 
ATOM      9  C   UNL     1       1.280   2.144  20.113  0.00  0.00    +0.000 A 
ATOM     10  C   UNL     1       1.831   2.675  21.271  0.00  0.00    +0.000 A 
ATOM     11  C   UNL     1       2.159   4.049  21.330  0.00  0.00    +0.000 A 
ATOM     12  C   UNL     1       2.018   4.914  20.194  0.00  0.00    +0.000 A 
ENDBRANCH   2   3
BRANCH   1  16
ATOM     13  C   UNL     1      -1.321  11.698  22.218  0.00  0.00    +0.000 A 
ATOM     14  C   UNL     1      -1.050  10.676  23.160  0.00  0.00    +0.000 A 
ATOM     15  C   UNL     1      -0.362   9.458  22.851  0.00  0.00    +0.000 A 
ATOM     16  C   UNL     1       0.098   9.156  21.565  0.00  0.00    +0.000 A 
ATOM     17  C   UNL     1      -0.173  10.172  20.610  0.00  0.00    +0.000 A 
ATOM     18  C   UNL     1      -0.838  11.400  20.920  0.00  0.00    +0.000 A 
BRANCH  13  20
ATOM     19  C   UNL     1      -1.319  13.903  23.411  0.00  0.00    +0.000 C 
ATOM     20  N   UNL     1      -1.988  12.889  22.585  0.00  0.00    +0.000 N 
ATOM     21  C   UNL     1      -3.459  12.967  22.623  0.00  0.00    +0.000 C 
ENDBRANCH  13  20
BRANCH  18  22
ATOM     22  C   UNL     1      -0.898  12.450  19.879  0.00  0.00    +0.000 C 
ATOM     23  O   UNL     1      -1.810  12.472  19.060  0.00  0.00    +0.000 OA
ENDBRANCH  18  22
ENDBRANCH   1  16
TORSDOF 4
ENDMDL
MODEL 3
REMARK VINA RESULT:      -7.6      6.762      9.230
REMARK  Name = 
REMARK  6 active torsions:
REMARK  status: ('A' for Active; 'I' for Inactive)
REMARK    1  A    between atoms: C_1  and  N_2
REMARK    2  A    between atoms: N_2  and  C_3
REMARK    3  A    between atoms: N_2  and  C_4
REMARK    4  A    between atoms: C_7  and  C_8
REMARK    5  A    between atoms: C_9  and  C_10
REMARK    6  A    between atoms: C_21  and  C_22
REMARK                            x       y       z     vdW  Elec       q    Type
REMARK                         _______ _______ _______ _____ _____    ______ ____
ROOT
ATOM      1  C   UNL     1       8.968   9.095  18.508  0.00  0.00    +0.000 C 
ATOM      2  C   UNL     1       9.083  10.008  19.532  0.00  0.00    +0.000 C 
ENDROOT
BRANCH   2   3
ATOM      3  C   UNL     1      10.140  11.183  19.654  0.00  0.00    +0.000 A 
ATOM      4  C   UNL     1       9.994  11.846  20.867  0.00  0.00    +0.000 A 
ATOM      5  C   UNL     1       9.281  13.025  20.841  0.00  0.00    +0.000 A 
ATOM      6  N   UNL     1       9.011  13.694  19.707  0.00  0.00    +0.000 NA
ATOM      7  C   UNL     1       9.754  13.354  18.657  0.00  0.00    +0.000 A 
ATOM      8  C   UNL     1      10.040  14.380  17.762  0.00  0.00    +0.000 A 
ATOM      9  C   UNL     1      11.170  14.330  16.946  0.00  0.00    +0.000 A 
ATOM     10  C   UNL     1      11.979  13.202  16.990  0.00  0.00    +0.000 A 
ATOM     11  C   UNL     1      11.599  12.091  17.777  0.00  0.00    +0.000 A 
ATOM     12  C   UNL     1      10.431  12.113  18.611  0.00  0.00    +0.000 A 
ENDBRANCH   2   3
BRANCH   1  16
ATOM     13  C   UNL     1       6.236   5.561  17.826  0.00  0.00    +0.000 A 
ATOM     14  C   UNL     1       7.301   5.559  18.759  0.00  0.00    +0.000 A 
ATOM     15  C   UNL     1       8.183   6.666  18.975  0.00  0.00    +0.000 A 
ATOM     16  C   UNL     1       8.081   7.864  18.261  0.00  0.00    +0.000 A 
ATOM     17  C   UNL     1       7.019   7.876  17.317  0.00  0.00    +0.000 A 
ATOM     18  C   UNL     1       6.120   6.782  17.116  0.00  0.00    +0.000 A 
BRANCH  13  20
ATOM     19  C   UNL     1       4.796   3.775  18.837  0.00  0.00    +0.000 C 
ATOM     20  N   UNL     1       5.383   4.444  17.669  0.00  0.00    +0.000 N 
ATOM     21  C   UNL     1       5.438   3.599  16.463  0.00  0.00    +0.000 C 
ENDBRANCH  13  20
BRANCH  18  22
ATOM     22  C   UNL     1       4.949   6.986  16.235  0.00  0.00    +0.000 C 
ATOM     23  O   UNL     1       5.042   6.843  15.021  0.00  0.00    +0.000 OA
ENDBRANCH  18  22
ENDBRANCH   1  16
TORSDOF 4
ENDMDL
MODEL 4
REMARK VINA RESULT:      -7.6      1.447      1.700
REMARK  Name = 
REMARK  6 active torsions:
REMARK  status: ('A' for Active; 'I' for Inactive)
REMARK    1  A    between atoms: C_1  and  N_2
REMARK    2  A    between atoms: N_2  and  C_3
REMARK    3  A    between atoms: N_2  and  C_4
REMARK    4  A    between atoms: C_7  and  C_8
REMARK    5  A    between atoms: C_9  and  C_10
REMARK    6  A    between atoms: C_21  and  C_22
REMARK                            x       y       z     vdW  Elec       q    Type
REMARK                         _______ _______ _______ _____ _____    ______ ____
ROOT
ATOM      1  C   UNL     1       2.440   8.110  18.534  0.00  0.00    +0.000 C 
ATOM      2  C   UNL     1       2.378   6.831  18.029  0.00  0.00    +0.000 C 
ENDROOT
BRANCH   2   3
ATOM      3  C   UNL     1       3.588   5.940  17.525  0.00  0.00    +0.000 A 
ATOM      4  C   UNL     1       3.274   4.589  17.626  0.00  0.00    +0.000 A 
ATOM      5  C   UNL     1       3.764   3.926  18.730  0.00  0.00    +0.000 A 
ATOM      6  N   UNL     1       4.747   4.415  19.504  0.00  0.00    +0.000 NA
ATOM      7  C   UNL     1       5.459   5.400  18.962  0.00  0.00    +0.000 A 
ATOM      8  C   UNL     1       6.801   5.445  19.326  0.00  0.00    +0.000 A 
ATOM      9  C   UNL     1       7.751   6.042  18.499  0.00  0.00    +0.000 A 
ATOM     10  C   UNL     1       7.330   6.654  17.326  0.00  0.00    +0.000 A 
ATOM     11  C   UNL     1       5.950   6.751  17.037  0.00  0.00    +0.000 A 
ATOM     12  C   UNL     1       4.952   6.161  17.883  0.00  0.00    +0.000 A 
ENDBRANCH   2   3
BRANCH   1  16
ATOM     13  C   UNL     1      -0.735  11.016  19.909  0.00  0.00    +0.000 A 
ATOM     14  C   UNL     1      -0.297  10.913  18.567  0.00  0.00    +0.000 A 
ATOM     15  C   UNL     1       0.719  10.007  18.120  0.00  0.00    +0.000 A 
ATOM     16  C   UNL     1       1.391   9.139  18.986  0.00  0.00    +0.000 A 
ATOM     17  C   UNL     1       0.964   9.238  20.337  0.00  0.00    +0.000 A 
ATOM     18  C   UNL     1      -0.066  10.124  20.783  0.00  0.00    +0.000 A 
BRANCH  13  20
ATOM     19  C   UNL     1      -2.976  12.056  19.484  0.00  0.00    +0.000 C 
ATOM     20  N   UNL     1      -1.756  11.917  20.290  0.00  0.00    +0.000 N 
ATOM     21  C   UNL     1      -1.475  13.080  21.150  0.00  0.00    +0.000 C 
ENDBRANCH  13  20
BRANCH  18  22
ATOM     22  C   UNL     1      -0.543  10.003  22.179  0.00  0.00    +0.000 C 
ATOM     23  O   UNL     1       0.145  10.395  23.115  0.00  0.00    +0.000 OA
ENDBRANCH  18  22
ENDBRANCH   1  16
TORSDOF 4
ENDMDL
MODEL 5
REMARK VINA RESULT:      -7.5      1.267      1.798
REMARK  Name = 
REMARK  6 active torsions:
REMARK  status: ('A' for Active; 'I' for Inactive)
REMARK    1  A    between atoms: C_1  and  N_2
REMARK    2  A    between atoms: N_2  and  C_3
REMARK    3  A    between atoms: N_2  and  C_4
REMARK    4  A    between atoms: C_7  and  C_8
REMARK    5  A    between atoms: C_9  and  C_10
REMARK    6  A    between atoms: C_21  and  C_22
REMARK                            x       y       z     vdW  Elec       q    Type
REMARK                         _______ _______ _______ _____ _____    ______ ____
ROOT
ATOM      1  C   UNL     1       3.059   6.768  17.892  0.00  0.00    +0.000 C 
ATOM      2  C   UNL     1       4.381   6.387  17.872  0.00  0.00    +0.000 C 
ENDROOT
BRANCH   2   3
ATOM      3  C   UNL     1       4.986   5.057  17.257  0.00  0.00    +0.000 A 
ATOM      4  C   UNL     1       5.888   4.477  18.142  0.00  0.00    +0.000 A 
ATOM      5  C   UNL     1       7.223   4.721  17.904  0.00  0.00    +0.000 A 
ATOM      6  N   UNL     1       7.686   5.197  16.736  0.00  0.00    +0.000 NA
ATOM      7  C   UNL     1       6.845   5.096  15.709  0.00  0.00    +0.000 A 
ATOM      8  C   UNL     1       7.433   4.885  14.466  0.00  0.00    +0.000 A 
ATOM      9  C   UNL     1       6.731   4.265  13.434  0.00  0.00    +0.000 A 
ATOM     10  C   UNL     1       5.403   3.915  13.641  0.00  0.00    +0.000 A 
ATOM     11  C   UNL     1       4.758   4.278  14.846  0.00  0.00    +0.000 A 
ATOM     12  C   UNL     1       5.455   4.932  15.915  0.00  0.00    +0.000 A 
ENDBRANCH   2   3
BRANCH   1  16
ATOM     13  C   UNL     1       0.689  10.154  19.719  0.00  0.00    +0.000 A 
ATOM     14  C   UNL     1       1.063  10.108  18.354  0.00  0.00    +0.000 A 
ATOM     15  C   UNL     1       1.826   9.048  17.765  0.00  0.00    +0.000 A 
ATOM     16  C   UNL     1       2.292   7.953  18.501  0.00  0.00    +0.000 A 
ATOM     17  C   UNL     1       1.927   7.993  19.874  0.00  0.00    +0.000 A 
ATOM     18  C   UNL     1       1.145   9.036  20.460  0.00  0.00    +0.000 A 
BRANCH  13  20
ATOM     19  C   UNL     1      -1.444  11.472  19.752  0.00  0.00    +0.000 C 
ATOM     20  N   UNL     1      -0.083  11.218  20.241  0.00  0.00    +0.000 N 
ATOM     21  C   UNL     1       0.550  12.387  20.876  0.00  0.00    +0.000 C 
ENDBRANCH  13  20
BRANCH  18  22
ATOM     22  C   UNL     1       0.682   8.869  21.855  0.00  0.00    +0.000 C 
ATOM     23  O   UNL     1       1.255   9.431  22.780  0.00  0.00    +0.000 OA
ENDBRANCH  18  22
ENDBRANCH   1  16
TORSDOF 4
ENDMDL
MODEL 6
REMARK VINA RESULT:      -7.4      6.679      9.174
REMARK  Name = 
REMARK  6 active torsions:
REMARK  status: ('A' for Active; 'I' for Inactive)
REMARK    1  A    between atoms: C_1  and  N_2
REMARK    2  A    between atoms: N_2  and  C_3
REMARK    3  A    between atoms: N_2  and  C_4
REMARK    4  A    between atoms: C_7  and  C_8
REMARK    5  A    between atoms: C_9  and  C_10
REMARK    6  A    between atoms: C_21  and  C_22
REMARK                            x       y       z     vdW  Elec       q    Type
REMARK                         _______ _______ _______ _____ _____    ______ ____
ROOT
ATOM      1  C   UNL     1       8.897   8.772  18.609  0.00  0.00    +0.000 C 
ATOM      2  C   UNL     1       8.888  10.103  18.258  0.00  0.00    +0.000 C 
ENDROOT
BRANCH   2   3
ATOM      3  C   UNL     1       9.900  11.226  18.734  0.00  0.00    +0.000 A 
ATOM      4  C   UNL     1       9.914  11.313  20.122  0.00  0.00    +0.000 A 
ATOM      5  C   UNL     1       9.157  12.319  20.681  0.00  0.00    +0.000 A 
ATOM      6  N   UNL     1       8.689  13.364  19.977  0.00  0.00    +0.000 NA
ATOM      7  C   UNL     1       9.276  13.562  18.799  0.00  0.00    +0.000 A 
ATOM      8  C   UNL     1       9.380  14.889  18.392  0.00  0.00    +0.000 A 
ATOM      9  C   UNL     1      10.373  15.293  17.501  0.00  0.00    +0.000 A 
ATOM     10  C   UNL     1      11.225  14.336  16.967  0.00  0.00    +0.000 A 
ATOM     11  C   UNL     1      11.017  12.968  17.253  0.00  0.00    +0.000 A 
ATOM     12  C   UNL     1       9.990  12.526  18.153  0.00  0.00    +0.000 A 
ENDBRANCH   2   3
BRANCH   1  16
ATOM     13  C   UNL     1       6.054   5.354  17.800  0.00  0.00    +0.000 A 
ATOM     14  C   UNL     1       7.085   5.302  18.770  0.00  0.00    +0.000 A 
ATOM     15  C   UNL     1       8.002   6.372  19.026  0.00  0.00    +0.000 A 
ATOM     16  C   UNL     1       7.971   7.579  18.320  0.00  0.00    +0.000 A 
ATOM     17  C   UNL     1       6.944   7.640  17.340  0.00  0.00    +0.000 A 
ATOM     18  C   UNL     1       6.012   6.583  17.098  0.00  0.00    +0.000 A 
BRANCH  13  20
ATOM     19  C   UNL     1       5.101   3.575  16.313  0.00  0.00    +0.000 C 
ATOM     20  N   UNL     1       5.165   4.272  17.604  0.00  0.00    +0.000 N 
ATOM     21  C   UNL     1       3.953   4.113  18.427  0.00  0.00    +0.000 C 
ENDBRANCH  13  20
BRANCH  18  22
ATOM     22  C   UNL     1       4.881   6.840  16.178  0.00  0.00    +0.000 C 
ATOM     23  O   UNL     1       5.069   6.992  14.977  0.00  0.00    +0.000 OA
ENDBRANCH  18  22
ENDBRANCH   1  16
TORSDOF 4
ENDMDL
MODEL 7
REMARK VINA RESULT:      -7.4      6.163      7.403
REMARK  Name = 
REMARK  6 active torsions:
REMARK  status: ('A' for Active; 'I' for Inactive)
REMARK    1  A    between atoms: C_1  and  N_2
REMARK    2  A    between atoms: N_2  and  C_3
REMARK    3  A    between atoms: N_2  and  C_4
REMARK    4  A    between atoms: C_7  and  C_8
REMARK    5  A    between atoms: C_9  and  C_10
REMARK    6  A    between atoms: C_21  and  C_22
REMARK                            x       y       z     vdW  Elec       q    Type
REMARK                         _______ _______ _______ _____ _____    ______ ____
ROOT
ATOM      1  C   UNL     1       8.182   8.263  18.230  0.00  0.00    +0.000 C 
ATOM      2  C   UNL     1       7.208   7.593  17.525  0.00  0.00    +0.000 C 
ENDROOT
BRANCH   2   3
ATOM      3  C   UNL     1       6.933   6.031  17.521  0.00  0.00    +0.000 A 
ATOM      4  C   UNL     1       7.358   5.465  16.324  0.00  0.00    +0.000 A 
ATOM      5  C   UNL     1       6.386   5.236  15.375  0.00  0.00    +0.000 A 
ATOM      6  N   UNL     1       5.072   5.234  15.655  0.00  0.00    +0.000 NA
ATOM      7  C   UNL     1       4.767   5.120  16.945  0.00  0.00    +0.000 A 
ATOM      8  C   UNL     1       3.593   4.429  17.229  0.00  0.00    +0.000 A 
ATOM      9  C   UNL     1       3.410   3.795  18.457  0.00  0.00    +0.000 A 
ATOM     10  C   UNL     1       4.394   3.917  19.428  0.00  0.00    +0.000 A 
ATOM     11  C   UNL     1       5.511   4.753  19.200  0.00  0.00    +0.000 A 
ATOM     12  C   UNL     1       5.712   5.430  17.951  0.00  0.00    +0.000 A 
ENDBRANCH   2   3
BRANCH   1  16
ATOM     13  C   UNL     1       9.490  12.575  18.572  0.00  0.00    +0.000 A 
ATOM     14  C   UNL     1       8.508  12.125  17.656  0.00  0.00    +0.000 A 
ATOM     15  C   UNL     1       8.094  10.760  17.527  0.00  0.00    +0.000 A 
ATOM     16  C   UNL     1       8.644   9.728  18.296  0.00  0.00    +0.000 A 
ATOM     17  C   UNL     1       9.636  10.167  19.213  0.00  0.00    +0.000 A 
ATOM     18  C   UNL     1      10.034  11.533  19.362  0.00  0.00    +0.000 A 
BRANCH  13  20
ATOM     19  C   UNL     1       8.929  14.916  19.272  0.00  0.00    +0.000 C 
ATOM     20  N   UNL     1       9.846  13.940  18.668  0.00  0.00    +0.000 N 
ATOM     21  C   UNL     1      10.844  14.541  17.767  0.00  0.00    +0.000 C 
ENDBRANCH  13  20
BRANCH  18  22
ATOM     22  C   UNL     1      10.943  11.883  20.476  0.00  0.00    +0.000 C 
ATOM     23  O   UNL     1      12.158  11.909  20.311  0.00  0.00    +0.000 OA
ENDBRANCH  18  22
ENDBRANCH   1  16
TORSDOF 4
ENDMDL
MODEL 8
REMARK VINA RESULT:      -7.4      1.392      1.986
REMARK  Name = 
REMARK  6 active torsions:
REMARK  status: ('A' for Active; 'I' for Inactive)
REMARK    1  A    between atoms: C_1  and  N_2
REMARK    2  A    between atoms: N_2  and  C_3
REMARK    3  A    between atoms: N_2  and  C_4
REMARK    4  A    between atoms: C_7  and  C_8
REMARK    5  A    between atoms: C_9  and  C_10
REMARK    6  A    between atoms: C_21  and  C_22
REMARK                            x       y       z     vdW  Elec       q    Type
REMARK                         _______ _______ _______ _____ _____    ______ ____
ROOT
ATOM      1  C   UNL     1       2.664   6.635  19.116  0.00  0.00    +0.000 C 
ATOM      2  C   UNL     1       2.338   5.624  18.239  0.00  0.00    +0.000 C 
ENDROOT
BRANCH   2   3
ATOM      3  C   UNL     1       3.322   4.563  17.592  0.00  0.00    +0.000 A 
ATOM      4  C   UNL     1       3.267   3.360  18.287  0.00  0.00    +0.000 A 
ATOM      5  C   UNL     1       4.269   3.137  19.206  0.00  0.00    +0.000 A 
ATOM      6  N   UNL     1       5.414   3.841  19.230  0.00  0.00    +0.000 NA
ATOM      7  C   UNL     1       5.682   4.524  18.120  0.00  0.00    +0.000 A 
ATOM      8  C   UNL     1       7.030   4.650  17.800  0.00  0.00    +0.000 A 
ATOM      9  C   UNL     1       7.442   4.858  16.484  0.00  0.00    +0.000 A 
ATOM     10  C   UNL     1       6.478   5.006  15.495  0.00  0.00    +0.000 A 
ATOM     11  C   UNL     1       5.109   5.042  15.845  0.00  0.00    +0.000 A 
ATOM     12  C   UNL     1       4.663   4.848  17.195  0.00  0.00    +0.000 A 
ENDBRANCH   2   3
BRANCH   1  16
ATOM     13  C   UNL     1       0.467  10.111  20.989  0.00  0.00    +0.000 A 
ATOM     14  C   UNL     1       0.970   9.013  21.728  0.00  0.00    +0.000 A 
ATOM     15  C   UNL     1       1.656   7.898  21.146  0.00  0.00    +0.000 A 
ATOM     16  C   UNL     1       1.879   7.783  19.770  0.00  0.00    +0.000 A 
ATOM     17  C   UNL     1       1.372   8.877  19.017  0.00  0.00    +0.000 A 
ATOM     18  C   UNL     1       0.710  10.003  19.598  0.00  0.00    +0.000 A 
BRANCH  13  20
ATOM     19  C   UNL     1       0.329  12.564  21.489  0.00  0.00    +0.000 C 
ATOM     20  N   UNL     1      -0.185  11.195  21.621  0.00  0.00    +0.000 N 
ATOM     21  C   UNL     1      -1.045  10.993  22.800  0.00  0.00    +0.000 C 
ENDBRANCH  13  20
BRANCH  18  22
ATOM     22  C   UNL     1       0.391  11.157  18.727  0.00  0.00    +0.000 C 
ATOM     23  O   UNL     1      -0.727  11.292  18.245  0.00  0.00    +0.000 OA
ENDBRANCH  18  22
ENDBRANCH   1  16
TORSDOF 4
ENDMDL
MODEL 9
REMARK VINA RESULT:      -7.2      1.897      2.642
REMARK  Name = 
REMARK  6 active torsions:
REMARK  status: ('A' for Active; 'I' for Inactive)
REMARK    1  A    between atoms: C_1  and  N_2
REMARK    2  A    between atoms: N_2  and  C_3
REMARK    3  A    between atoms: N_2  and  C_4
REMARK    4  A    between atoms: C_7  and  C_8
REMARK    5  A    between atoms: C_9  and  C_10
REMARK    6  A    between atoms: C_21  and  C_22
REMARK                            x       y       z     vdW  Elec       q    Type
REMARK                         _______ _______ _______ _____ _____    ______ ____
ROOT
ATOM      1  C   UNL     1       2.042   7.754  19.504  0.00  0.00    +0.000 C 
ATOM      2  C   UNL     1       2.412   7.540  18.195  0.00  0.00    +0.000 C 
ENDROOT
BRANCH   2   3
ATOM      3  C   UNL     1       3.390   6.419  17.647  0.00  0.00    +0.000 A 
ATOM      4  C   UNL     1       2.822   5.159  17.800  0.00  0.00    +0.000 A 
ATOM      5  C   UNL     1       3.237   4.427  18.890  0.00  0.00    +0.000 A 
ATOM      6  N   UNL     1       4.342   4.722  19.596  0.00  0.00    +0.000 NA
ATOM      7  C   UNL     1       5.200   5.538  18.989  0.00  0.00    +0.000 A 
ATOM      8  C   UNL     1       6.544   5.321  19.276  0.00  0.00    +0.000 A 
ATOM      9  C   UNL     1       7.542   5.706  18.382  0.00  0.00    +0.000 A 
ATOM     10  C   UNL     1       7.181   6.374  17.219  0.00  0.00    +0.000 A 
ATOM     11  C   UNL     1       5.832   6.739  17.006  0.00  0.00    +0.000 A 
ATOM     12  C   UNL     1       4.790   6.370  17.922  0.00  0.00    +0.000 A 
ENDBRANCH   2   3
BRANCH   1  16
ATOM     13  C   UNL     1      -0.382  10.983  21.533  0.00  0.00    +0.000 A 
ATOM     14  C   UNL     1       0.420  10.049  22.233  0.00  0.00    +0.000 A 
ATOM     15  C   UNL     1       1.182   9.012  21.604  0.00  0.00    +0.000 A 
ATOM     16  C   UNL     1       1.190   8.814  20.220  0.00  0.00    +0.000 A 
ATOM     17  C   UNL     1       0.384   9.742  19.507  0.00  0.00    +0.000 A 
ATOM     18  C   UNL     1      -0.359  10.794  20.129  0.00  0.00    +0.000 A 
BRANCH  13  20
ATOM     19  C   UNL     1      -0.502  13.323  22.423  0.00  0.00    +0.000 C 
ATOM     20  N   UNL     1      -1.098  11.999  22.207  0.00  0.00    +0.000 N 
ATOM     21  C   UNL     1      -2.193  11.679  23.140  0.00  0.00    +0.000 C 
ENDBRANCH  13  20
BRANCH  18  22
ATOM     22  C   UNL     1      -1.012  11.801  19.264  0.00  0.00    +0.000 C 
ATOM     23  O   UNL     1      -0.420  12.819  18.925  0.00  0.00    +0.000 OA
ENDBRANCH  18  22
ENDBRANCH   1  16
TORSDOF 4
ENDMDL
