MODEL 1
REMARK VINA RESULT:      -8.1      0.000      0.000
REMARK  Name = 
REMARK  6 active torsions:
REMARK  status: ('A' for Active; 'I' for Inactive)
REMARK    1  A    between atoms: C_1  and  O_2
REMARK    2  A    between atoms: O_2  and  C_3
REMARK    3  A    between atoms: C_8  and  C_9
REMARK    4  A    between atoms: N_11  and  N_12
REMARK    5  A    between atoms: C_13  and  C_15
REMARK    6  A    between atoms: C_22  and  C_23
REMARK                            x       y       z     vdW  Elec       q    Type
REMARK                         _______ _______ _______ _____ _____    ______ ____
ROOT
ATOM      1  C   UNL     1       2.709   6.191  19.530  0.00  0.00    +0.000 C 
ATOM      2  O   UNL     1       2.347   5.536  20.507  0.00  0.00    +0.000 OA
ATOM      3  N   UNL     1       2.354   7.516  19.376  0.00  0.00    +0.000 N 
ATOM      4  H   UNL     1       2.664   8.062  18.570  0.00  0.00    +0.000 HD
ENDROOT
BRANCH   1  10
ATOM      5  C   UNL     1       6.132   4.155  14.983  0.00  0.00    +0.000 A 
ATOM      6  C   UNL     1       6.893   5.245  15.423  0.00  0.00    +0.000 A 
ATOM      7  C   UNL     1       6.487   6.042  16.504  0.00  0.00    +0.000 A 
ATOM      8  C   UNL     1       5.284   5.689  17.110  0.00  0.00    +0.000 A 
ATOM      9  O   UNL     1       4.701   6.328  18.157  0.00  0.00    +0.000 OA
ATOM     10  C   UNL     1       3.524   5.675  18.444  0.00  0.00    +0.000 A 
ATOM     11  C   UNL     1       3.362   4.605  17.571  0.00  0.00    +0.000 A 
ATOM     12  C   UNL     1       2.256   3.617  17.487  0.00  0.00    +0.000 C 
ATOM     13  C   UNL     1       4.501   4.620  16.711  0.00  0.00    +0.000 A 
ATOM     14  C   UNL     1       4.934   3.830  15.630  0.00  0.00    +0.000 A 
BRANCH   5  16
ATOM     15  C   UNL     1       5.911   3.559  12.695  0.00  0.00    +0.000 C 
ATOM     16  O   UNL     1       6.649   3.476  13.910  0.00  0.00    +0.000 OA
ENDBRANCH   5  16
ENDBRANCH   1  10
BRANCH   3  17
ATOM     17  N   UNL     1       1.599   8.175  20.351  0.00  0.00    +0.000 N 
ATOM     18  C   UNL     1       0.974   9.348  19.981  0.00  0.00    +0.000 C 
ATOM     19  O   UNL     1       1.096   9.840  18.861  0.00  0.00    +0.000 OA
ATOM     20  H   UNL     1       1.379   7.646  21.192  0.00  0.00    +0.000 HD
BRANCH  18  21
ATOM     21  C   UNL     1       0.105  10.002  20.995  0.00  0.00    +0.000 A 
ATOM     22  C   UNL     1      -0.028   9.504  22.300  0.00  0.00    +0.000 A 
ATOM     23  C   UNL     1      -0.850  10.168  23.217  0.00  0.00    +0.000 A 
ATOM     24  C   UNL     1      -1.521  11.324  22.833  0.00  0.00    +0.000 A 
ATOM     25  F   UNL     1      -2.302  11.957  23.718  0.00  0.00    +0.000 F 
ATOM     26  C   UNL     1      -1.389  11.837  21.549  0.00  0.00    +0.000 A 
ATOM     27  C   UNL     1      -0.570  11.178  20.629  0.00  0.00    +0.000 A 
ENDBRANCH  18  21
ENDBRANCH   3  17
TORSDOF 4
ENDMDL
MODEL 2
REMARK VINA RESULT:      -7.9      0.463      1.073
REMARK  Name = 
REMARK  6 active torsions:
REMARK  status: ('A' for Active; 'I' for Inactive)
REMARK    1  A    between atoms: C_1  and  O_2
REMARK    2  A    between atoms: O_2  and  C_3
REMARK    3  A    between atoms: C_8  and  C_9
REMARK    4  A    between atoms: N_11  and  N_12
REMARK    5  A    between atoms: C_13  and  C_15
REMARK    6  A    between atoms: C_22  and  C_23
REMARK                            x       y       z     vdW  Elec       q    Type
REMARK                         _______ _______ _______ _____ _____    ______ ____
ROOT
ATOM      1  C   UNL     1       2.341   6.504  19.681  0.00  0.00    +0.000 C 
ATOM      2  O   UNL     1       1.812   5.861  20.588  0.00  0.00    +0.000 OA
ATOM      3  N   UNL     1       2.146   7.864  19.550  0.00  0.00    +0.000 N 
ATOM      4  H   UNL     1       2.593   8.400  18.804  0.00  0.00    +0.000 HD
ENDROOT
BRANCH   1  10
ATOM      5  C   UNL     1       5.971   4.258  15.401  0.00  0.00    +0.000 A 
ATOM      6  C   UNL     1       6.718   5.362  15.834  0.00  0.00    +0.000 A 
ATOM      7  C   UNL     1       6.265   6.205  16.859  0.00  0.00    +0.000 A 
ATOM      8  C   UNL     1       5.030   5.886  17.417  0.00  0.00    +0.000 A 
ATOM      9  O   UNL     1       4.400   6.571  18.406  0.00  0.00    +0.000 OA
ATOM     10  C   UNL     1       3.205   5.939  18.660  0.00  0.00    +0.000 A 
ATOM     11  C   UNL     1       3.078   4.833  17.825  0.00  0.00    +0.000 A 
ATOM     12  C   UNL     1       1.970   3.850  17.726  0.00  0.00    +0.000 C 
ATOM     13  C   UNL     1       4.259   4.805  17.024  0.00  0.00    +0.000 A 
ATOM     14  C   UNL     1       4.740   3.968  16.000  0.00  0.00    +0.000 A 
BRANCH   5  16
ATOM     15  C   UNL     1       6.013   3.759  13.081  0.00  0.00    +0.000 C 
ATOM     16  O   UNL     1       6.536   3.532  14.386  0.00  0.00    +0.000 OA
ENDBRANCH   5  16
ENDBRANCH   1  10
BRANCH   3  17
ATOM     17  N   UNL     1       1.367   8.570  20.473  0.00  0.00    +0.000 N 
ATOM     18  C   UNL     1       0.730   9.708  20.023  0.00  0.00    +0.000 C 
ATOM     19  O   UNL     1       0.861  10.133  18.877  0.00  0.00    +0.000 OA
ATOM     20  H   UNL     1       1.142   8.090  21.341  0.00  0.00    +0.000 HD
BRANCH  18  21
ATOM     21  C   UNL     1      -0.163  10.410  20.984  0.00  0.00    +0.000 A 
ATOM     22  C   UNL     1      -0.934  11.521  20.615  0.00  0.00    +0.000 A 
ATOM     23  C   UNL     1      -1.767  12.134  21.557  0.00  0.00    +0.000 A 
ATOM     24  C   UNL     1      -1.833  11.631  22.852  0.00  0.00    +0.000 A 
ATOM     25  F   UNL     1      -2.636  12.220  23.748  0.00  0.00    +0.000 F 
ATOM     26  C   UNL     1      -1.085  10.522  23.229  0.00  0.00    +0.000 A 
ATOM     27  C   UNL     1      -0.252   9.907  22.293  0.00  0.00    +0.000 A 
ENDBRANCH  18  21
ENDBRANCH   3  17
TORSDOF 4
ENDMDL
MODEL 3
REMARK VINA RESULT:      -7.6      1.053      1.138
REMARK  Name = 
REMARK  6 active torsions:
REMARK  status: ('A' for Active; 'I' for Inactive)
REMARK    1  A    between atoms: C_1  and  O_2
REMARK    2  A    between atoms: O_2  and  C_3
REMARK    3  A    between atoms: C_8  and  C_9
REMARK    4  A    between atoms: N_11  and  N_12
REMARK    5  A    between atoms: C_13  and  C_15
REMARK    6  A    between atoms: C_22  and  C_23
REMARK                            x       y       z     vdW  Elec       q    Type
REMARK                         _______ _______ _______ _____ _____    ______ ____
ROOT
ATOM      1  C   UNL     1       2.083   6.938  19.782  0.00  0.00    +0.000 C 
ATOM      2  O   UNL     1       1.655   6.394  20.800  0.00  0.00    +0.000 OA
ATOM      3  N   UNL     1       1.806   8.259  19.497  0.00  0.00    +0.000 N 
ATOM      4  H   UNL     1       2.170   8.713  18.658  0.00  0.00    +0.000 HD
ENDROOT
BRANCH   1  10
ATOM      5  C   UNL     1       5.471   4.306  15.523  0.00  0.00    +0.000 A 
ATOM      6  C   UNL     1       5.754   5.659  15.293  0.00  0.00    +0.000 A 
ATOM      7  C   UNL     1       5.185   6.676  16.073  0.00  0.00    +0.000 A 
ATOM      8  C   UNL     1       4.322   6.266  17.084  0.00  0.00    +0.000 A 
ATOM      9  O   UNL     1       3.655   7.079  17.944  0.00  0.00    +0.000 OA
ATOM     10  C   UNL     1       2.902   6.284  18.776  0.00  0.00    +0.000 A 
ATOM     11  C   UNL     1       3.098   4.947  18.444  0.00  0.00    +0.000 A 
ATOM     12  C   UNL     1       2.504   3.729  19.051  0.00  0.00    +0.000 C 
ATOM     13  C   UNL     1       4.015   4.942  17.350  0.00  0.00    +0.000 A 
ATOM     14  C   UNL     1       4.605   3.939  16.559  0.00  0.00    +0.000 A 
BRANCH   5  16
ATOM     15  C   UNL     1       6.271   3.865  13.332  0.00  0.00    +0.000 C 
ATOM     16  O   UNL     1       6.092   3.427  14.675  0.00  0.00    +0.000 OA
ENDBRANCH   5  16
ENDBRANCH   1  10
BRANCH   3  17
ATOM     17  N   UNL     1       1.058   9.043  20.381  0.00  0.00    +0.000 N 
ATOM     18  C   UNL     1       0.291  10.053  19.838  0.00  0.00    +0.000 C 
ATOM     19  O   UNL     1       0.283  10.305  18.635  0.00  0.00    +0.000 OA
ATOM     20  H   UNL     1       0.953   8.687  21.329  0.00  0.00    +0.000 HD
BRANCH  18  21
ATOM     21  C   UNL     1      -0.567  10.831  20.772  0.00  0.00    +0.000 A 
ATOM     22  C   UNL     1      -0.486  10.679  22.164  0.00  0.00    +0.000 A 
ATOM     23  C   UNL     1      -1.309  11.446  22.996  0.00  0.00    +0.000 A 
ATOM     24  C   UNL     1      -2.193  12.363  22.438  0.00  0.00    +0.000 A 
ATOM     25  F   UNL     1      -2.974  13.097  23.240  0.00  0.00    +0.000 F 
ATOM     26  C   UNL     1      -2.275  12.534  21.062  0.00  0.00    +0.000 A 
ATOM     27  C   UNL     1      -1.456  11.770  20.227  0.00  0.00    +0.000 A 
ENDBRANCH  18  21
ENDBRANCH   3  17
TORSDOF 4
ENDMDL
MODEL 4
REMARK VINA RESULT:      -7.6      3.590     10.047
REMARK  Name = 
REMARK  6 active torsions:
REMARK  status: ('A' for Active; 'I' for Inactive)
REMARK    1  A    between atoms: C_1  and  O_2
REMARK    2  A    between atoms: O_2  and  C_3
REMARK    3  A    between atoms: C_8  and  C_9
REMARK    4  A    between atoms: N_11  and  N_12
REMARK    5  A    between atoms: C_13  and  C_15
REMARK    6  A    between atoms: C_22  and  C_23
REMARK                            x       y       z     vdW  Elec       q    Type
REMARK                         _______ _______ _______ _____ _____    ______ ____
ROOT
ATOM      1  C   UNL     1       1.423  10.152  18.653  0.00  0.00    +0.000 C 
ATOM      2  O   UNL     1       2.190  10.800  17.942  0.00  0.00    +0.000 OA
ATOM      3  N   UNL     1       1.424   8.771  18.647  0.00  0.00    +0.000 N 
ATOM      4  H   UNL     1       0.794   8.233  19.244  0.00  0.00    +0.000 HD
ENDROOT
BRANCH   1  10
ATOM      5  C   UNL     1      -2.659  12.454  22.471  0.00  0.00    +0.000 A 
ATOM      6  C   UNL     1      -1.961  11.584  23.318  0.00  0.00    +0.000 A 
ATOM      7  C   UNL     1      -0.881  10.815  22.861  0.00  0.00    +0.000 A 
ATOM      8  C   UNL     1      -0.545  10.964  21.518  0.00  0.00    +0.000 A 
ATOM      9  O   UNL     1       0.452  10.310  20.867  0.00  0.00    +0.000 OA
ATOM     10  C   UNL     1       0.444  10.729  19.557  0.00  0.00    +0.000 A 
ATOM     11  C   UNL     1      -0.568  11.667  19.376  0.00  0.00    +0.000 A 
ATOM     12  C   UNL     1      -0.966  12.396  18.145  0.00  0.00    +0.000 C 
ATOM     13  C   UNL     1      -1.204  11.813  20.645  0.00  0.00    +0.000 A 
ATOM     14  C   UNL     1      -2.279  12.580  21.130  0.00  0.00    +0.000 A 
BRANCH   5  16
ATOM     15  C   UNL     1      -4.197  12.589  24.274  0.00  0.00    +0.000 C 
ATOM     16  O   UNL     1      -3.697  13.131  23.056  0.00  0.00    +0.000 OA
ENDBRANCH   5  16
ENDBRANCH   1  10
BRANCH   3  17
ATOM     17  N   UNL     1       2.331   8.058  17.856  0.00  0.00    +0.000 N 
ATOM     18  C   UNL     1       2.871   6.909  18.395  0.00  0.00    +0.000 C 
ATOM     19  O   UNL     1       2.620   6.529  19.537  0.00  0.00    +0.000 OA
ATOM     20  H   UNL     1       2.366   8.302  16.869  0.00  0.00    +0.000 HD
BRANCH  18  21
ATOM     21  C   UNL     1       3.771   6.108  17.521  0.00  0.00    +0.000 A 
ATOM     22  C   UNL     1       4.762   6.701  16.725  0.00  0.00    +0.000 A 
ATOM     23  C   UNL     1       5.589   5.898  15.931  0.00  0.00    +0.000 A 
ATOM     24  C   UNL     1       5.430   4.516  15.945  0.00  0.00    +0.000 A 
ATOM     25  F   UNL     1       6.227   3.754  15.187  0.00  0.00    +0.000 F 
ATOM     26  C   UNL     1       4.461   3.914  16.738  0.00  0.00    +0.000 A 
ATOM     27  C   UNL     1       3.633   4.711  17.532  0.00  0.00    +0.000 A 
ENDBRANCH  18  21
ENDBRANCH   3  17
TORSDOF 4
ENDMDL
MODEL 5
REMARK VINA RESULT:      -7.6      4.318      9.406
REMARK  Name = 
REMARK  6 active torsions:
REMARK  status: ('A' for Active; 'I' for Inactive)
REMARK    1  A    between atoms: C_1  and  O_2
REMARK    2  A    between atoms: O_2  and  C_3
REMARK    3  A    between atoms: C_8  and  C_9
REMARK    4  A    between atoms: N_11  and  N_12
REMARK    5  A    between atoms: C_13  and  C_15
REMARK    6  A    between atoms: C_22  and  C_23
REMARK                            x       y       z     vdW  Elec       q    Type
REMARK                         _______ _______ _______ _____ _____    ______ ____
ROOT
ATOM      1  C   UNL     1       0.939   9.546  18.736  0.00  0.00    +0.000 C 
ATOM      2  O   UNL     1       1.480   9.690  19.832  0.00  0.00    +0.000 OA
ATOM      3  N   UNL     1       1.571   8.892  17.698  0.00  0.00    +0.000 N 
ATOM      4  H   UNL     1       1.118   8.764  16.792  0.00  0.00    +0.000 HD
ENDROOT
BRANCH   1  10
ATOM      5  C   UNL     1      -4.544  11.584  17.211  0.00  0.00    +0.000 A 
ATOM      6  C   UNL     1      -4.211  10.835  16.075  0.00  0.00    +0.000 A 
ATOM      7  C   UNL     1      -2.995  10.145  15.975  0.00  0.00    +0.000 A 
ATOM      8  C   UNL     1      -2.137  10.250  17.066  0.00  0.00    +0.000 A 
ATOM      9  O   UNL     1      -0.910   9.677  17.175  0.00  0.00    +0.000 OA
ATOM     10  C   UNL     1      -0.387  10.034  18.397  0.00  0.00    +0.000 A 
ATOM     11  C   UNL     1      -1.297  10.838  19.075  0.00  0.00    +0.000 A 
ATOM     12  C   UNL     1      -1.183  11.466  20.416  0.00  0.00    +0.000 C 
ATOM     13  C   UNL     1      -2.424  10.975  18.210  0.00  0.00    +0.000 A 
ATOM     14  C   UNL     1      -3.656  11.652  18.290  0.00  0.00    +0.000 A 
BRANCH   5  16
ATOM     15  C   UNL     1      -6.776  11.688  18.013  0.00  0.00    +0.000 C 
ATOM     16  O   UNL     1      -5.762  12.211  17.162  0.00  0.00    +0.000 OA
ENDBRANCH   5  16
ENDBRANCH   1  10
BRANCH   3  17
ATOM     17  N   UNL     1       2.840   8.331  17.870  0.00  0.00    +0.000 N 
ATOM     18  C   UNL     1       2.913   6.961  18.013  0.00  0.00    +0.000 C 
ATOM     19  O   UNL     1       1.915   6.244  18.039  0.00  0.00    +0.000 OA
ATOM     20  H   UNL     1       3.635   8.931  17.660  0.00  0.00    +0.000 HD
BRANCH  18  21
ATOM     21  C   UNL     1       4.270   6.361  18.113  0.00  0.00    +0.000 A 
ATOM     22  C   UNL     1       4.614   5.451  19.123  0.00  0.00    +0.000 A 
ATOM     23  C   UNL     1       5.902   4.907  19.161  0.00  0.00    +0.000 A 
ATOM     24  C   UNL     1       6.832   5.264  18.189  0.00  0.00    +0.000 A 
ATOM     25  F   UNL     1       8.061   4.736  18.229  0.00  0.00    +0.000 F 
ATOM     26  C   UNL     1       6.502   6.154  17.174  0.00  0.00    +0.000 A 
ATOM     27  C   UNL     1       5.217   6.700  17.132  0.00  0.00    +0.000 A 
ENDBRANCH  18  21
ENDBRANCH   3  17
TORSDOF 4
ENDMDL
MODEL 6
REMARK VINA RESULT:      -7.6      4.136      9.662
REMARK  Name = 
REMARK  6 active torsions:
REMARK  status: ('A' for Active; 'I' for Inactive)
REMARK    1  A    between atoms: C_1  and  O_2
REMARK    2  A    between atoms: O_2  and  C_3
REMARK    3  A    between atoms: C_8  and  C_9
REMARK    4  A    between atoms: N_11  and  N_12
REMARK    5  A    between atoms: C_13  and  C_15
REMARK    6  A    between atoms: C_22  and  C_23
REMARK                            x       y       z     vdW  Elec       q    Type
REMARK                         _______ _______ _______ _____ _____    ______ ____
ROOT
ATOM      1  C   UNL     1       1.501   9.942  18.070  0.00  0.00    +0.000 C 
ATOM      2  O   UNL     1       2.467  10.704  18.102  0.00  0.00    +0.000 OA
ATOM      3  N   UNL     1       1.657   8.584  17.877  0.00  0.00    +0.000 N 
ATOM      4  H   UNL     1       0.856   7.951  17.861  0.00  0.00    +0.000 HD
ENDROOT
BRANCH   1  10
ATOM      5  C   UNL     1      -4.278  11.640  18.578  0.00  0.00    +0.000 A 
ATOM      6  C   UNL     1      -4.375  10.655  17.587  0.00  0.00    +0.000 A 
ATOM      7  C   UNL     1      -3.251   9.949  17.135  0.00  0.00    +0.000 A 
ATOM      8  C   UNL     1      -2.035  10.286  17.723  0.00  0.00    +0.000 A 
ATOM      9  O   UNL     1      -0.827   9.740  17.428  0.00  0.00    +0.000 OA
ATOM     10  C   UNL     1       0.116  10.354  18.220  0.00  0.00    +0.000 A 
ATOM     11  C   UNL     1      -0.504  11.297  19.033  0.00  0.00    +0.000 A 
ATOM     12  C   UNL     1       0.093  12.206  20.045  0.00  0.00    +0.000 C 
ATOM     13  C   UNL     1      -1.892  11.249  18.707  0.00  0.00    +0.000 A 
ATOM     14  C   UNL     1      -3.037  11.938  19.150  0.00  0.00    +0.000 A 
BRANCH   5  16
ATOM     15  C   UNL     1      -6.614  11.825  18.196  0.00  0.00    +0.000 C 
ATOM     16  O   UNL     1      -5.459  12.252  18.910  0.00  0.00    +0.000 OA
ENDBRANCH   5  16
ENDBRANCH   1  10
BRANCH   3  17
ATOM     17  N   UNL     1       2.929   8.019  17.749  0.00  0.00    +0.000 N 
ATOM     18  C   UNL     1       3.069   6.690  18.095  0.00  0.00    +0.000 C 
ATOM     19  O   UNL     1       2.140   6.021  18.543  0.00  0.00    +0.000 OA
ATOM     20  H   UNL     1       3.611   8.547  17.211  0.00  0.00    +0.000 HD
BRANCH  18  21
ATOM     21  C   UNL     1       4.404   6.070  17.880  0.00  0.00    +0.000 A 
ATOM     22  C   UNL     1       5.101   6.196  16.669  0.00  0.00    +0.000 A 
ATOM     23  C   UNL     1       6.360   5.602  16.527  0.00  0.00    +0.000 A 
ATOM     24  C   UNL     1       6.917   4.901  17.591  0.00  0.00    +0.000 A 
ATOM     25  F   UNL     1       8.124   4.340  17.449  0.00  0.00    +0.000 F 
ATOM     26  C   UNL     1       6.245   4.779  18.800  0.00  0.00    +0.000 A 
ATOM     27  C   UNL     1       4.987   5.369  18.947  0.00  0.00    +0.000 A 
ENDBRANCH  18  21
ENDBRANCH   3  17
TORSDOF 4
ENDMDL
MODEL 7
REMARK VINA RESULT:      -7.5      2.979      4.414
REMARK  Name = 
REMARK  6 active torsions:
REMARK  status: ('A' for Active; 'I' for Inactive)
REMARK    1  A    between atoms: C_1  and  O_2
REMARK    2  A    between atoms: O_2  and  C_3
REMARK    3  A    between atoms: C_8  and  C_9
REMARK    4  A    between atoms: N_11  and  N_12
REMARK    5  A    between atoms: C_13  and  C_15
REMARK    6  A    between atoms: C_22  and  C_23
REMARK                            x       y       z     vdW  Elec       q    Type
REMARK                         _______ _______ _______ _____ _____    ______ ____
ROOT
ATOM      1  C   UNL     1       1.029   9.281  20.016  0.00  0.00    +0.000 C 
ATOM      2  O   UNL     1       1.275  10.270  19.326  0.00  0.00    +0.000 OA
ATOM      3  N   UNL     1       0.141   9.338  21.071  0.00  0.00    +0.000 N 
ATOM      4  H   UNL     1      -0.070   8.515  21.637  0.00  0.00    +0.000 HD
ENDROOT
BRANCH   1  10
ATOM      5  C   UNL     1       3.517   3.814  19.340  0.00  0.00    +0.000 A 
ATOM      6  C   UNL     1       2.811   3.640  20.537  0.00  0.00    +0.000 A 
ATOM      7  C   UNL     1       2.046   4.672  21.100  0.00  0.00    +0.000 A 
ATOM      8  C   UNL     1       2.032   5.877  20.404  0.00  0.00    +0.000 A 
ATOM      9  O   UNL     1       1.372   7.005  20.774  0.00  0.00    +0.000 OA
ATOM     10  C   UNL     1       1.624   7.970  19.826  0.00  0.00    +0.000 A 
ATOM     11  C   UNL     1       2.451   7.444  18.838  0.00  0.00    +0.000 A 
ATOM     12  C   UNL     1       2.995   8.097  17.620  0.00  0.00    +0.000 C 
ATOM     13  C   UNL     1       2.711   6.094  19.217  0.00  0.00    +0.000 A 
ATOM     14  C   UNL     1       3.466   5.040  18.668  0.00  0.00    +0.000 A 
BRANCH   5  16
ATOM     15  C   UNL     1       3.477   1.675  18.311  0.00  0.00    +0.000 C 
ATOM     16  O   UNL     1       4.229   2.721  18.917  0.00  0.00    +0.000 OA
ENDBRANCH   5  16
ENDBRANCH   1  10
BRANCH   3  17
ATOM     17  N   UNL     1      -0.545  10.520  21.369  0.00  0.00    +0.000 N 
ATOM     18  C   UNL     1      -0.795  10.788  22.698  0.00  0.00    +0.000 C 
ATOM     19  O   UNL     1      -0.480  10.016  23.602  0.00  0.00    +0.000 OA
ATOM     20  H   UNL     1      -0.621  11.204  20.619  0.00  0.00    +0.000 HD
BRANCH  18  21
ATOM     21  C   UNL     1      -1.452  12.085  23.016  0.00  0.00    +0.000 A 
ATOM     22  C   UNL     1      -0.795  13.314  22.859  0.00  0.00    +0.000 A 
ATOM     23  C   UNL     1      -1.466  14.504  23.162  0.00  0.00    +0.000 A 
ATOM     24  C   UNL     1      -2.784  14.461  23.606  0.00  0.00    +0.000 A 
ATOM     25  F   UNL     1      -3.421  15.604  23.889  0.00  0.00    +0.000 F 
ATOM     26  C   UNL     1      -3.451  13.251  23.754  0.00  0.00    +0.000 A 
ATOM     27  C   UNL     1      -2.786  12.061  23.454  0.00  0.00    +0.000 A 
ENDBRANCH  18  21
ENDBRANCH   3  17
TORSDOF 4
ENDMDL
MODEL 8
REMARK VINA RESULT:      -7.5      2.965      4.434
REMARK  Name = 
REMARK  6 active torsions:
REMARK  status: ('A' for Active; 'I' for Inactive)
REMARK    1  A    between atoms: C_1  and  O_2
REMARK    2  A    between atoms: O_2  and  C_3
REMARK    3  A    between atoms: C_8  and  C_9
REMARK    4  A    between atoms: N_11  and  N_12
REMARK    5  A    between atoms: C_13  and  C_15
REMARK    6  A    between atoms: C_22  and  C_23
REMARK                            x       y       z     vdW  Elec       q    Type
REMARK                         _______ _______ _______ _____ _____    ______ ____
ROOT
ATOM      1  C   UNL     1       0.885   9.428  20.209  0.00  0.00    +0.000 C 
ATOM      2  O   UNL     1       1.284  10.515  19.790  0.00  0.00    +0.000 OA
ATOM      3  N   UNL     1      -0.214   9.332  21.038  0.00  0.00    +0.000 N 
ATOM      4  H   UNL     1      -0.551   8.430  21.378  0.00  0.00    +0.000 HD
ENDROOT
BRANCH   1  10
ATOM      5  C   UNL     1       3.460   4.082  19.057  0.00  0.00    +0.000 A 
ATOM      6  C   UNL     1       2.843   3.823  20.288  0.00  0.00    +0.000 A 
ATOM      7  C   UNL     1       2.093   4.799  20.959  0.00  0.00    +0.000 A 
ATOM      8  C   UNL     1       2.000   6.040  20.334  0.00  0.00    +0.000 A 
ATOM      9  O   UNL     1       1.338   7.126  20.812  0.00  0.00    +0.000 OA
ATOM     10  C   UNL     1       1.499   8.148  19.905  0.00  0.00    +0.000 A 
ATOM     11  C   UNL     1       2.268   7.702  18.834  0.00  0.00    +0.000 A 
ATOM     12  C   UNL     1       2.709   8.436  17.621  0.00  0.00    +0.000 C 
ATOM     13  C   UNL     1       2.589   6.341  19.119  0.00  0.00    +0.000 A 
ATOM     14  C   UNL     1       3.330   5.341  18.460  0.00  0.00    +0.000 A 
BRANCH   5  16
ATOM     15  C   UNL     1       3.606   1.739  18.702  0.00  0.00    +0.000 C 
ATOM     16  O   UNL     1       4.168   3.036  18.526  0.00  0.00    +0.000 OA
ENDBRANCH   5  16
ENDBRANCH   1  10
BRANCH   3  17
ATOM     17  N   UNL     1      -0.942  10.471  21.400  0.00  0.00    +0.000 N 
ATOM     18  C   UNL     1      -0.883  10.865  22.721  0.00  0.00    +0.000 C 
ATOM     19  O   UNL     1      -0.262  10.234  23.575  0.00  0.00    +0.000 OA
ATOM     20  H   UNL     1      -1.283  11.054  20.640  0.00  0.00    +0.000 HD
BRANCH  18  21
ATOM     21  C   UNL     1      -1.591  12.121  23.086  0.00  0.00    +0.000 A 
ATOM     22  C   UNL     1      -2.920  12.129  23.533  0.00  0.00    +0.000 A 
ATOM     23  C   UNL     1      -3.532  13.340  23.875  0.00  0.00    +0.000 A 
ATOM     24  C   UNL     1      -2.815  14.527  23.779  0.00  0.00    +0.000 A 
ATOM     25  F   UNL     1      -3.405  15.682  24.112  0.00  0.00    +0.000 F 
ATOM     26  C   UNL     1      -1.493  14.534  23.351  0.00  0.00    +0.000 A 
ATOM     27  C   UNL     1      -0.877  13.328  23.008  0.00  0.00    +0.000 A 
ENDBRANCH  18  21
ENDBRANCH   3  17
TORSDOF 4
ENDMDL
MODEL 9
REMARK VINA RESULT:      -7.4      4.007      9.684
REMARK  Name = 
REMARK  6 active torsions:
REMARK  status: ('A' for Active; 'I' for Inactive)
REMARK    1  A    between atoms: C_1  and  O_2
REMARK    2  A    between atoms: O_2  and  C_3
REMARK    3  A    between atoms: C_8  and  C_9
REMARK    4  A    between atoms: N_11  and  N_12
REMARK    5  A    between atoms: C_13  and  C_15
REMARK    6  A    between atoms: C_22  and  C_23
REMARK                            x       y       z     vdW  Elec       q    Type
REMARK                         _______ _______ _______ _____ _____    ______ ____
ROOT
ATOM      1  C   UNL     1       1.485   9.929  18.023  0.00  0.00    +0.000 C 
ATOM      2  O   UNL     1       2.467  10.670  17.987  0.00  0.00    +0.000 OA
ATOM      3  N   UNL     1       1.602   8.565  17.850  0.00  0.00    +0.000 N 
ATOM      4  H   UNL     1       0.788   7.949  17.889  0.00  0.00    +0.000 HD
ENDROOT
BRANCH   1  10
ATOM      5  C   UNL     1      -4.223  11.762  18.801  0.00  0.00    +0.000 A 
ATOM      6  C   UNL     1      -4.392  10.759  17.838  0.00  0.00    +0.000 A 
ATOM      7  C   UNL     1      -3.309  10.019  17.343  0.00  0.00    +0.000 A 
ATOM      8  C   UNL     1      -2.057  10.342  17.858  0.00  0.00    +0.000 A 
ATOM      9  O   UNL     1      -0.878   9.764  17.510  0.00  0.00    +0.000 OA
ATOM     10  C   UNL     1       0.119  10.374  18.237  0.00  0.00    +0.000 A 
ATOM     11  C   UNL     1      -0.437  11.347  19.061  0.00  0.00    +0.000 A 
ATOM     12  C   UNL     1       0.232  12.264  20.020  0.00  0.00    +0.000 C 
ATOM     13  C   UNL     1      -1.842  11.322  18.811  0.00  0.00    +0.000 A 
ATOM     14  C   UNL     1      -2.946  12.045  19.300  0.00  0.00    +0.000 A 
BRANCH   5  16
ATOM     15  C   UNL     1      -5.285  13.204  20.360  0.00  0.00    +0.000 C 
ATOM     16  O   UNL     1      -5.370  12.407  19.183  0.00  0.00    +0.000 OA
ENDBRANCH   5  16
ENDBRANCH   1  10
BRANCH   3  17
ATOM     17  N   UNL     1       2.853   7.969  17.666  0.00  0.00    +0.000 N 
ATOM     18  C   UNL     1       3.093   6.783  18.329  0.00  0.00    +0.000 C 
ATOM     19  O   UNL     1       2.275   6.272  19.092  0.00  0.00    +0.000 OA
ATOM     20  H   UNL     1       3.418   8.322  16.897  0.00  0.00    +0.000 HD
BRANCH  18  21
ATOM     21  C   UNL     1       4.393   6.110  18.067  0.00  0.00    +0.000 A 
ATOM     22  C   UNL     1       5.044   5.336  19.038  0.00  0.00    +0.000 A 
ATOM     23  C   UNL     1       6.261   4.715  18.732  0.00  0.00    +0.000 A 
ATOM     24  C   UNL     1       6.811   4.861  17.463  0.00  0.00    +0.000 A 
ATOM     25  F   UNL     1       7.972   4.260  17.176  0.00  0.00    +0.000 F 
ATOM     26  C   UNL     1       6.171   5.614  16.486  0.00  0.00    +0.000 A 
ATOM     27  C   UNL     1       4.957   6.236  16.787  0.00  0.00    +0.000 A 
ENDBRANCH  18  21
ENDBRANCH   3  17
TORSDOF 4
ENDMDL
