MODEL 1
REMARK VINA RESULT:      -7.4      0.000      0.000
REMARK  Name = 
REMARK  8 active torsions:
REMARK  status: ('A' for Active; 'I' for Inactive)
REMARK    1  A    between atoms: O_1  and  C_2
REMARK    2  A    between atoms: C_2  and  C_3
REMARK    3  A    between atoms: C_3  and  C_4
REMARK    4  A    between atoms: C_4  and  C_5
REMARK    5  A    between atoms: C_5  and  O_6
REMARK    6  A    between atoms: O_6  and  C_7
REMARK    7  A    between atoms: N_15  and  C_16
REMARK    8  A    between atoms: C_16  and  C_17
REMARK                            x       y       z     vdW  Elec       q    Type
REMARK                         _______ _______ _______ _____ _____    ______ ____
ROOT
ATOM      1  C   UNL     1       3.346   3.705  18.394  0.00  0.00    +0.000 C 
ATOM      2  C   UNL     1       4.141   4.485  19.472  0.00  0.00    +0.000 C 
ATOM      3  C   UNL     1       3.276   5.502  20.224  0.00  0.00    +0.000 C 
ATOM      4  N   UNL     1       2.684   6.467  19.284  0.00  0.00    +0.000 NA
ATOM      5  C   UNL     1       1.814   5.773  18.322  0.00  0.00    +0.000 C 
ATOM      6  C   UNL     1       2.598   4.737  17.514  0.00  0.00    +0.000 C 
ENDROOT
BRANCH   1   7
ATOM      7  C   UNL     1       2.321   2.749  19.064  0.00  0.00    +0.000 C 
BRANCH   7   8
ATOM      8  O   UNL     1       1.969   1.673  18.203  0.00  0.00    +0.000 OA
ATOM      9  H   UNL     1       2.335   1.871  17.323  0.00  0.00    +0.000 HD
ENDBRANCH   7   8
ENDBRANCH   1   7
BRANCH   1  10
ATOM     10  C   UNL     1       4.311   2.904  17.457  0.00  0.00    +0.000 C 
BRANCH  10  11
ATOM     11  C   UNL     1       4.752   3.657  16.204  0.00  0.00    +0.000 C 
BRANCH  11  12
ATOM     12  O   UNL     1       6.180   3.759  16.131  0.00  0.00    +0.000 OA
BRANCH  12  13
ATOM     13  C   UNL     1       6.657   4.854  16.818  0.00  0.00    +0.000 A 
ATOM     14  C   UNL     1       7.568   4.596  17.847  0.00  0.00    +0.000 A 
ATOM     15  C   UNL     1       8.070   5.651  18.615  0.00  0.00    +0.000 A 
ATOM     16  C   UNL     1       7.680   6.963  18.350  0.00  0.00    +0.000 A 
ATOM     17  C   UNL     1       6.794   7.227  17.309  0.00  0.00    +0.000 A 
ATOM     18  C   UNL     1       6.295   6.175  16.543  0.00  0.00    +0.000 A 
ENDBRANCH  12  13
ENDBRANCH  11  12
ENDBRANCH  10  11
ENDBRANCH   1  10
BRANCH   4  19
ATOM     19  C   UNL     1       1.900   7.503  19.991  0.00  0.00    +0.000 C 
BRANCH  19  20
ATOM     20  C   UNL     1       1.776   8.786  19.220  0.00  0.00    +0.000 A 
ATOM     21  C   UNL     1       2.186   9.076  17.924  0.00  0.00    +0.000 A 
ATOM     22  C   UNL     1       1.928  10.436  17.671  0.00  0.00    +0.000 A 
ATOM     23  C   UNL     1       1.302  10.937  18.785  0.00  0.00    +0.000 A 
ATOM     24  N   UNL     1       1.144   9.926  19.722  0.00  0.00    +0.000 N 
ATOM     25  C   UNL     1       0.426  10.086  20.959  0.00  0.00    +0.000 A 
ATOM     26  N   UNL     1      -0.162  11.282  21.186  0.00  0.00    +0.000 NA
ATOM     27  C   UNL     1      -0.876  11.405  22.320  0.00  0.00    +0.000 A 
ATOM     28  C   UNL     1      -1.013  10.398  23.244  0.00  0.00    +0.000 A 
ATOM     29  C   UNL     1      -0.368   9.225  22.937  0.00  0.00    +0.000 A 
ATOM     30  N   UNL     1       0.342   9.041  21.809  0.00  0.00    +0.000 NA
ENDBRANCH  19  20
ENDBRANCH   4  19
TORSDOF 8
ENDMDL
MODEL 2
REMARK VINA RESULT:      -7.1      4.254      9.499
REMARK  Name = 
REMARK  8 active torsions:
REMARK  status: ('A' for Active; 'I' for Inactive)
REMARK    1  A    between atoms: O_1  and  C_2
REMARK    2  A    between atoms: C_2  and  C_3
REMARK    3  A    between atoms: C_3  and  C_4
REMARK    4  A    between atoms: C_4  and  C_5
REMARK    5  A    between atoms: C_5  and  O_6
REMARK    6  A    between atoms: O_6  and  C_7
REMARK    7  A    between atoms: N_15  and  C_16
REMARK    8  A    between atoms: C_16  and  C_17
REMARK                            x       y       z     vdW  Elec       q    Type
REMARK                         _______ _______ _______ _____ _____    ______ ____
ROOT
ATOM      1  C   UNL     1       0.118  10.675  19.697  0.00  0.00    +0.000 C 
ATOM      2  C   UNL     1       0.012   9.607  20.815  0.00  0.00    +0.000 C 
ATOM      3  C   UNL     1       1.258   8.719  20.903  0.00  0.00    +0.000 C 
ATOM      4  N   UNL     1       1.494   8.037  19.622  0.00  0.00    +0.000 NA
ATOM      5  C   UNL     1       1.731   9.023  18.555  0.00  0.00    +0.000 C 
ATOM      6  C   UNL     1       0.528   9.956  18.388  0.00  0.00    +0.000 C 
ENDROOT
BRANCH   1   7
ATOM      7  C   UNL     1       1.187  11.740  20.065  0.00  0.00    +0.000 C 
BRANCH   7   8
ATOM      8  O   UNL     1       1.007  12.226  21.389  0.00  0.00    +0.000 OA
ATOM      9  H   UNL     1       1.888  12.441  21.744  0.00  0.00    +0.000 HD
ENDBRANCH   7   8
ENDBRANCH   1   7
BRANCH   1  10
ATOM     10  C   UNL     1      -1.268  11.356  19.440  0.00  0.00    +0.000 C 
BRANCH  10  11
ATOM     11  C   UNL     1      -2.122  10.679  18.371  0.00  0.00    +0.000 C 
BRANCH  11  12
ATOM     12  O   UNL     1      -3.033  11.606  17.765  0.00  0.00    +0.000 OA
BRANCH  12  13
ATOM     13  C   UNL     1      -4.252  11.629  18.408  0.00  0.00    +0.000 A 
ATOM     14  C   UNL     1      -5.253  10.811  17.874  0.00  0.00    +0.000 A 
ATOM     15  C   UNL     1      -6.528  10.805  18.447  0.00  0.00    +0.000 A 
ATOM     16  C   UNL     1      -6.804  11.600  19.559  0.00  0.00    +0.000 A 
ATOM     17  C   UNL     1      -5.803  12.395  20.110  0.00  0.00    +0.000 A 
ATOM     18  C   UNL     1      -4.532  12.399  19.539  0.00  0.00    +0.000 A 
ENDBRANCH  12  13
ENDBRANCH  11  12
ENDBRANCH  10  11
ENDBRANCH   1  10
BRANCH   4  19
ATOM     19  C   UNL     1       2.651   7.118  19.700  0.00  0.00    +0.000 C 
BRANCH  19  20
ATOM     20  C   UNL     1       2.263   5.668  19.660  0.00  0.00    +0.000 A 
ATOM     21  C   UNL     1       1.299   4.995  20.400  0.00  0.00    +0.000 A 
ATOM     22  C   UNL     1       1.358   3.628  20.069  0.00  0.00    +0.000 A 
ATOM     23  C   UNL     1       2.305   3.498  19.083  0.00  0.00    +0.000 A 
ATOM     24  N   UNL     1       2.828   4.746  18.775  0.00  0.00    +0.000 N 
ATOM     25  C   UNL     1       3.763   4.980  17.707  0.00  0.00    +0.000 A 
ATOM     26  N   UNL     1       4.108   3.922  16.940  0.00  0.00    +0.000 NA
ATOM     27  C   UNL     1       4.942   4.160  15.910  0.00  0.00    +0.000 A 
ATOM     28  C   UNL     1       5.460   5.400  15.625  0.00  0.00    +0.000 A 
ATOM     29  C   UNL     1       5.068   6.411  16.468  0.00  0.00    +0.000 A 
ATOM     30  N   UNL     1       4.221   6.233  17.498  0.00  0.00    +0.000 NA
ENDBRANCH  19  20
ENDBRANCH   4  19
TORSDOF 8
ENDMDL
MODEL 3
REMARK VINA RESULT:      -7.0      3.865      6.820
REMARK  Name = 
REMARK  8 active torsions:
REMARK  status: ('A' for Active; 'I' for Inactive)
REMARK    1  A    between atoms: O_1  and  C_2
REMARK    2  A    between atoms: C_2  and  C_3
REMARK    3  A    between atoms: C_3  and  C_4
REMARK    4  A    between atoms: C_4  and  C_5
REMARK    5  A    between atoms: C_5  and  O_6
REMARK    6  A    between atoms: O_6  and  C_7
REMARK    7  A    between atoms: N_15  and  C_16
REMARK    8  A    between atoms: C_16  and  C_17
REMARK                            x       y       z     vdW  Elec       q    Type
REMARK                         _______ _______ _______ _____ _____    ______ ____
ROOT
ATOM      1  C   UNL     1       0.591  10.162  18.785  0.00  0.00    +0.000 C 
ATOM      2  C   UNL     1      -0.615  10.364  17.833  0.00  0.00    +0.000 C 
ATOM      3  C   UNL     1      -1.435  11.612  18.175  0.00  0.00    +0.000 C 
ATOM      4  N   UNL     1      -1.934  11.537  19.557  0.00  0.00    +0.000 NA
ATOM      5  C   UNL     1      -0.809  11.475  20.503  0.00  0.00    +0.000 C 
ATOM      6  C   UNL     1       0.068  10.248  20.241  0.00  0.00    +0.000 C 
ENDROOT
BRANCH   1   7
ATOM      7  C   UNL     1       1.659  11.264  18.548  0.00  0.00    +0.000 C 
BRANCH   7   8
ATOM      8  O   UNL     1       2.424  11.007  17.377  0.00  0.00    +0.000 OA
ATOM      9  H   UNL     1       2.973  11.794  17.209  0.00  0.00    +0.000 HD
ENDBRANCH   7   8
ENDBRANCH   1   7
BRANCH   1  10
ATOM     10  C   UNL     1       1.219   8.740  18.599  0.00  0.00    +0.000 C 
BRANCH  10  11
ATOM     11  C   UNL     1       1.789   8.123  19.873  0.00  0.00    +0.000 C 
BRANCH  11  12
ATOM     12  O   UNL     1       2.778   7.128  19.576  0.00  0.00    +0.000 OA
BRANCH  12  13
ATOM     13  C   UNL     1       2.224   5.877  19.419  0.00  0.00    +0.000 A 
ATOM     14  C   UNL     1       1.671   5.293  20.563  0.00  0.00    +0.000 A 
ATOM     15  C   UNL     1       1.121   4.010  20.494  0.00  0.00    +0.000 A 
ATOM     16  C   UNL     1       1.105   3.313  19.286  0.00  0.00    +0.000 A 
ATOM     17  C   UNL     1       1.630   3.902  18.139  0.00  0.00    +0.000 A 
ATOM     18  C   UNL     1       2.177   5.182  18.208  0.00  0.00    +0.000 A 
ENDBRANCH  12  13
ENDBRANCH  11  12
ENDBRANCH  10  11
ENDBRANCH   1  10
BRANCH   4  19
ATOM     19  C   UNL     1      -2.788  12.697  19.891  0.00  0.00    +0.000 C 
BRANCH  19  20
ATOM     20  C   UNL     1      -4.256  12.422  19.731  0.00  0.00    +0.000 A 
ATOM     21  C   UNL     1      -4.972  12.106  18.583  0.00  0.00    +0.000 A 
ATOM     22  C   UNL     1      -6.336  12.018  18.919  0.00  0.00    +0.000 A 
ATOM     23  C   UNL     1      -6.425  12.211  20.275  0.00  0.00    +0.000 A 
ATOM     24  N   UNL     1      -5.154  12.399  20.801  0.00  0.00    +0.000 N 
ATOM     25  C   UNL     1      -4.880  12.519  22.209  0.00  0.00    +0.000 A 
ATOM     26  N   UNL     1      -5.924  12.392  23.058  0.00  0.00    +0.000 NA
ATOM     27  C   UNL     1      -5.651  12.451  24.374  0.00  0.00    +0.000 A 
ATOM     28  C   UNL     1      -4.389  12.650  24.879  0.00  0.00    +0.000 A 
ATOM     29  C   UNL     1      -3.394  12.784  23.942  0.00  0.00    +0.000 A 
ATOM     30  N   UNL     1      -3.608  12.713  22.616  0.00  0.00    +0.000 NA
ENDBRANCH  19  20
ENDBRANCH   4  19
TORSDOF 8
ENDMDL
MODEL 4
REMARK VINA RESULT:      -6.9      0.999      1.092
REMARK  Name = 
REMARK  8 active torsions:
REMARK  status: ('A' for Active; 'I' for Inactive)
REMARK    1  A    between atoms: O_1  and  C_2
REMARK    2  A    between atoms: C_2  and  C_3
REMARK    3  A    between atoms: C_3  and  C_4
REMARK    4  A    between atoms: C_4  and  C_5
REMARK    5  A    between atoms: C_5  and  O_6
REMARK    6  A    between atoms: O_6  and  C_7
REMARK    7  A    between atoms: N_15  and  C_16
REMARK    8  A    between atoms: C_16  and  C_17
REMARK                            x       y       z     vdW  Elec       q    Type
REMARK                         _______ _______ _______ _____ _____    ______ ____
ROOT
ATOM      1  C   UNL     1       2.657   3.813  19.123  0.00  0.00    +0.000 C 
ATOM      2  C   UNL     1       2.933   4.309  20.565  0.00  0.00    +0.000 C 
ATOM      3  C   UNL     1       2.014   5.463  20.979  0.00  0.00    +0.000 C 
ATOM      4  N   UNL     1       2.165   6.597  20.054  0.00  0.00    +0.000 NA
ATOM      5  C   UNL     1       1.784   6.198  18.690  0.00  0.00    +0.000 C 
ATOM      6  C   UNL     1       2.659   5.047  18.186  0.00  0.00    +0.000 C 
ENDROOT
BRANCH   1   7
ATOM      7  C   UNL     1       1.277   3.104  19.049  0.00  0.00    +0.000 C 
BRANCH   7   8
ATOM      8  O   UNL     1       1.389   1.798  18.500  0.00  0.00    +0.000 OA
ATOM      9  H   UNL     1       0.764   1.739  17.755  0.00  0.00    +0.000 HD
ENDBRANCH   7   8
ENDBRANCH   1   7
BRANCH   1  10
ATOM     10  C   UNL     1       3.793   2.854  18.634  0.00  0.00    +0.000 C 
BRANCH  10  11
ATOM     11  C   UNL     1       4.916   3.539  17.859  0.00  0.00    +0.000 C 
BRANCH  11  12
ATOM     12  O   UNL     1       5.960   3.984  18.735  0.00  0.00    +0.000 OA
BRANCH  12  13
ATOM     13  C   UNL     1       6.500   5.185  18.329  0.00  0.00    +0.000 A 
ATOM     14  C   UNL     1       7.569   5.675  19.086  0.00  0.00    +0.000 A 
ATOM     15  C   UNL     1       8.147   6.905  18.761  0.00  0.00    +0.000 A 
ATOM     16  C   UNL     1       7.676   7.641  17.674  0.00  0.00    +0.000 A 
ATOM     17  C   UNL     1       6.629   7.144  16.901  0.00  0.00    +0.000 A 
ATOM     18  C   UNL     1       6.054   5.917  17.225  0.00  0.00    +0.000 A 
ENDBRANCH  12  13
ENDBRANCH  11  12
ENDBRANCH  10  11
ENDBRANCH   1  10
BRANCH   4  19
ATOM     19  C   UNL     1       1.341   7.753  20.470  0.00  0.00    +0.000 C 
BRANCH  19  20
ATOM     20  C   UNL     1       1.468   8.936  19.555  0.00  0.00    +0.000 A 
ATOM     21  C   UNL     1       2.006   9.004  18.275  0.00  0.00    +0.000 A 
ATOM     22  C   UNL     1       1.977  10.346  17.851  0.00  0.00    +0.000 A 
ATOM     23  C   UNL     1       1.359  11.064  18.845  0.00  0.00    +0.000 A 
ATOM     24  N   UNL     1       0.984  10.208  19.871  0.00  0.00    +0.000 N 
ATOM     25  C   UNL     1       0.216  10.620  21.016  0.00  0.00    +0.000 A 
ATOM     26  N   UNL     1      -0.197  11.906  21.057  0.00  0.00    +0.000 NA
ATOM     27  C   UNL     1      -0.961  12.268  22.105  0.00  0.00    +0.000 A 
ATOM     28  C   UNL     1      -1.313  11.412  23.119  0.00  0.00    +0.000 A 
ATOM     29  C   UNL     1      -0.835  10.130  23.001  0.00  0.00    +0.000 A 
ATOM     30  N   UNL     1      -0.086   9.709  21.965  0.00  0.00    +0.000 NA
ENDBRANCH  19  20
ENDBRANCH   4  19
TORSDOF 8
ENDMDL
MODEL 5
REMARK VINA RESULT:      -6.9      2.467      3.699
REMARK  Name = 
REMARK  8 active torsions:
REMARK  status: ('A' for Active; 'I' for Inactive)
REMARK    1  A    between atoms: O_1  and  C_2
REMARK    2  A    between atoms: C_2  and  C_3
REMARK    3  A    between atoms: C_3  and  C_4
REMARK    4  A    between atoms: C_4  and  C_5
REMARK    5  A    between atoms: C_5  and  O_6
REMARK    6  A    between atoms: O_6  and  C_7
REMARK    7  A    between atoms: N_15  and  C_16
REMARK    8  A    between atoms: C_16  and  C_17
REMARK                            x       y       z     vdW  Elec       q    Type
REMARK                         _______ _______ _______ _____ _____    ______ ____
ROOT
ATOM      1  C   UNL     1       2.923   6.068  19.113  0.00  0.00    +0.000 C 
ATOM      2  C   UNL     1       2.177   6.877  20.205  0.00  0.00    +0.000 C 
ATOM      3  C   UNL     1       1.233   7.931  19.618  0.00  0.00    +0.000 C 
ATOM      4  N   UNL     1       1.977   8.868  18.762  0.00  0.00    +0.000 NA
ATOM      5  C   UNL     1       2.593   8.151  17.635  0.00  0.00    +0.000 C 
ATOM      6  C   UNL     1       3.565   7.076  18.128  0.00  0.00    +0.000 C 
ENDROOT
BRANCH   1   7
ATOM      7  C   UNL     1       1.931   5.150  18.349  0.00  0.00    +0.000 C 
BRANCH   7   8
ATOM      8  O   UNL     1       2.422   3.820  18.245  0.00  0.00    +0.000 OA
ATOM      9  H   UNL     1       1.704   3.220  18.515  0.00  0.00    +0.000 HD
ENDBRANCH   7   8
ENDBRANCH   1   7
BRANCH   1  10
ATOM     10  C   UNL     1       4.083   5.223  19.738  0.00  0.00    +0.000 C 
BRANCH  10  11
ATOM     11  C   UNL     1       5.368   5.198  18.914  0.00  0.00    +0.000 C 
BRANCH  11  12
ATOM     12  O   UNL     1       5.480   3.987  18.155  0.00  0.00    +0.000 OA
BRANCH  12  13
ATOM     13  C   UNL     1       5.840   4.228  16.847  0.00  0.00    +0.000 A 
ATOM     14  C   UNL     1       7.135   4.713  16.636  0.00  0.00    +0.000 A 
ATOM     15  C   UNL     1       7.563   5.017  15.341  0.00  0.00    +0.000 A 
ATOM     16  C   UNL     1       6.712   4.823  14.253  0.00  0.00    +0.000 A 
ATOM     17  C   UNL     1       5.432   4.315  14.456  0.00  0.00    +0.000 A 
ATOM     18  C   UNL     1       5.006   4.011  15.747  0.00  0.00    +0.000 A 
ENDBRANCH  12  13
ENDBRANCH  11  12
ENDBRANCH  10  11
ENDBRANCH   1  10
BRANCH   4  19
ATOM     19  C   UNL     1       1.101   9.938  18.238  0.00  0.00    +0.000 C 
BRANCH  19  20
ATOM     20  C   UNL     1       0.494  10.792  19.314  0.00  0.00    +0.000 A 
ATOM     21  C   UNL     1       1.102  11.387  20.412  0.00  0.00    +0.000 A 
ATOM     22  C   UNL     1       0.108  12.023  21.181  0.00  0.00    +0.000 A 
ATOM     23  C   UNL     1      -1.077  11.868  20.505  0.00  0.00    +0.000 A 
ATOM     24  N   UNL     1      -0.851  11.169  19.327  0.00  0.00    +0.000 N 
ATOM     25  C   UNL     1      -1.863  10.933  18.331  0.00  0.00    +0.000 A 
ATOM     26  N   UNL     1      -3.086  11.467  18.548  0.00  0.00    +0.000 NA
ATOM     27  C   UNL     1      -4.010  11.286  17.587  0.00  0.00    +0.000 A 
ATOM     28  C   UNL     1      -3.774  10.582  16.431  0.00  0.00    +0.000 A 
ATOM     29  C   UNL     1      -2.510  10.062  16.305  0.00  0.00    +0.000 A 
ATOM     30  N   UNL     1      -1.542  10.230  17.224  0.00  0.00    +0.000 NA
ENDBRANCH  19  20
ENDBRANCH   4  19
TORSDOF 8
ENDMDL
MODEL 6
REMARK VINA RESULT:      -6.8      4.110      9.416
REMARK  Name = 
REMARK  8 active torsions:
REMARK  status: ('A' for Active; 'I' for Inactive)
REMARK    1  A    between atoms: O_1  and  C_2
REMARK    2  A    between atoms: C_2  and  C_3
REMARK    3  A    between atoms: C_3  and  C_4
REMARK    4  A    between atoms: C_4  and  C_5
REMARK    5  A    between atoms: C_5  and  O_6
REMARK    6  A    between atoms: O_6  and  C_7
REMARK    7  A    between atoms: N_15  and  C_16
REMARK    8  A    between atoms: C_16  and  C_17
REMARK                            x       y       z     vdW  Elec       q    Type
REMARK                         _______ _______ _______ _____ _____    ______ ____
ROOT
ATOM      1  C   UNL     1       0.377  10.631  18.793  0.00  0.00    +0.000 C 
ATOM      2  C   UNL     1       0.031   9.838  20.079  0.00  0.00    +0.000 C 
ATOM      3  C   UNL     1       1.171   8.919  20.530  0.00  0.00    +0.000 C 
ATOM      4  N   UNL     1       1.512   7.963  19.466  0.00  0.00    +0.000 NA
ATOM      5  C   UNL     1       1.972   8.679  18.265  0.00  0.00    +0.000 C 
ATOM      6  C   UNL     1       0.889   9.622  17.735  0.00  0.00    +0.000 C 
ENDROOT
BRANCH   1   7
ATOM      7  C   UNL     1       1.478  11.685  19.086  0.00  0.00    +0.000 C 
BRANCH   7   8
ATOM      8  O   UNL     1       1.537  12.677  18.069  0.00  0.00    +0.000 OA
ATOM      9  H   UNL     1       2.463  12.971  18.000  0.00  0.00    +0.000 HD
ENDBRANCH   7   8
ENDBRANCH   1   7
BRANCH   1  10
ATOM     10  C   UNL     1      -0.898  11.319  18.201  0.00  0.00    +0.000 C 
BRANCH  10  11
ATOM     11  C   UNL     1      -2.194  10.536  18.394  0.00  0.00    +0.000 C 
BRANCH  11  12
ATOM     12  O   UNL     1      -3.238  11.035  17.547  0.00  0.00    +0.000 OA
BRANCH  12  13
ATOM     13  C   UNL     1      -4.382  11.330  18.256  0.00  0.00    +0.000 A 
ATOM     14  C   UNL     1      -4.228  12.157  19.373  0.00  0.00    +0.000 A 
ATOM     15  C   UNL     1      -5.335  12.473  20.165  0.00  0.00    +0.000 A 
ATOM     16  C   UNL     1      -6.599  11.982  19.839  0.00  0.00    +0.000 A 
ATOM     17  C   UNL     1      -6.762  11.181  18.711  0.00  0.00    +0.000 A 
ATOM     18  C   UNL     1      -5.658  10.867  17.922  0.00  0.00    +0.000 A 
ENDBRANCH  12  13
ENDBRANCH  11  12
ENDBRANCH  10  11
ENDBRANCH   1  10
BRANCH   4  19
ATOM     19  C   UNL     1       2.563   7.017  19.900  0.00  0.00    +0.000 C 
BRANCH  19  20
ATOM     20  C   UNL     1       2.155   5.577  19.780  0.00  0.00    +0.000 A 
ATOM     21  C   UNL     1       1.159   4.886  20.460  0.00  0.00    +0.000 A 
ATOM     22  C   UNL     1       1.207   3.535  20.066  0.00  0.00    +0.000 A 
ATOM     23  C   UNL     1       2.180   3.436  19.103  0.00  0.00    +0.000 A 
ATOM     24  N   UNL     1       2.731   4.689  18.869  0.00  0.00    +0.000 N 
ATOM     25  C   UNL     1       3.700   4.957  17.840  0.00  0.00    +0.000 A 
ATOM     26  N   UNL     1       4.050   3.930  17.033  0.00  0.00    +0.000 NA
ATOM     27  C   UNL     1       4.916   4.203  16.040  0.00  0.00    +0.000 A 
ATOM     28  C   UNL     1       5.462   5.446  15.829  0.00  0.00    +0.000 A 
ATOM     29  C   UNL     1       5.061   6.422  16.707  0.00  0.00    +0.000 A 
ATOM     30  N   UNL     1       4.183   6.210  17.704  0.00  0.00    +0.000 NA
ENDBRANCH  19  20
ENDBRANCH   4  19
TORSDOF 8
ENDMDL
MODEL 7
REMARK VINA RESULT:      -6.8      3.733      9.407
REMARK  Name = 
REMARK  8 active torsions:
REMARK  status: ('A' for Active; 'I' for Inactive)
REMARK    1  A    between atoms: O_1  and  C_2
REMARK    2  A    between atoms: C_2  and  C_3
REMARK    3  A    between atoms: C_3  and  C_4
REMARK    4  A    between atoms: C_4  and  C_5
REMARK    5  A    between atoms: C_5  and  O_6
REMARK    6  A    between atoms: O_6  and  C_7
REMARK    7  A    between atoms: N_15  and  C_16
REMARK    8  A    between atoms: C_16  and  C_17
REMARK                            x       y       z     vdW  Elec       q    Type
REMARK                         _______ _______ _______ _____ _____    ______ ____
ROOT
ATOM      1  C   UNL     1       0.125  10.470  19.651  0.00  0.00    +0.000 C 
ATOM      2  C   UNL     1       0.048   9.378  20.748  0.00  0.00    +0.000 C 
ATOM      3  C   UNL     1       1.322   8.529  20.825  0.00  0.00    +0.000 C 
ATOM      4  N   UNL     1       1.585   7.879  19.532  0.00  0.00    +0.000 NA
ATOM      5  C   UNL     1       1.794   8.892  18.486  0.00  0.00    +0.000 C 
ATOM      6  C   UNL     1       0.563   9.789  18.331  0.00  0.00    +0.000 C 
ENDROOT
BRANCH   1   7
ATOM      7  C   UNL     1       1.158  11.561  20.044  0.00  0.00    +0.000 C 
BRANCH   7   8
ATOM      8  O   UNL     1       1.093  11.867  21.431  0.00  0.00    +0.000 OA
ATOM      9  H   UNL     1       0.155  11.984  21.662  0.00  0.00    +0.000 HD
ENDBRANCH   7   8
ENDBRANCH   1   7
BRANCH   1  10
ATOM     10  C   UNL     1      -1.281  11.111  19.400  0.00  0.00    +0.000 C 
BRANCH  10  11
ATOM     11  C   UNL     1      -1.259  12.614  19.135  0.00  0.00    +0.000 C 
BRANCH  11  12
ATOM     12  O   UNL     1      -1.238  13.361  20.358  0.00  0.00    +0.000 OA
BRANCH  12  13
ATOM     13  C   UNL     1      -2.390  13.185  21.092  0.00  0.00    +0.000 A 
ATOM     14  C   UNL     1      -2.228  12.755  22.413  0.00  0.00    +0.000 A 
ATOM     15  C   UNL     1      -3.350  12.518  23.212  0.00  0.00    +0.000 A 
ATOM     16  C   UNL     1      -4.633  12.723  22.705  0.00  0.00    +0.000 A 
ATOM     17  C   UNL     1      -4.798  13.177  21.399  0.00  0.00    +0.000 A 
ATOM     18  C   UNL     1      -3.679  13.415  20.604  0.00  0.00    +0.000 A 
ENDBRANCH  12  13
ENDBRANCH  11  12
ENDBRANCH  10  11
ENDBRANCH   1  10
BRANCH   4  19
ATOM     19  C   UNL     1       2.771   6.997  19.598  0.00  0.00    +0.000 C 
BRANCH  19  20
ATOM     20  C   UNL     1       2.429   5.536  19.537  0.00  0.00    +0.000 A 
ATOM     21  C   UNL     1       1.499   4.818  20.279  0.00  0.00    +0.000 A 
ATOM     22  C   UNL     1       1.597   3.460  19.921  0.00  0.00    +0.000 A 
ATOM     23  C   UNL     1       2.533   3.379  18.920  0.00  0.00    +0.000 A 
ATOM     24  N   UNL     1       3.010   4.649  18.627  0.00  0.00    +0.000 N 
ATOM     25  C   UNL     1       3.920   4.932  17.550  0.00  0.00    +0.000 A 
ATOM     26  N   UNL     1       4.287   3.900  16.758  0.00  0.00    +0.000 NA
ATOM     27  C   UNL     1       5.096   4.184  15.720  0.00  0.00    +0.000 A 
ATOM     28  C   UNL     1       5.570   5.445  15.451  0.00  0.00    +0.000 A 
ATOM     29  C   UNL     1       5.158   6.427  16.318  0.00  0.00    +0.000 A 
ATOM     30  N   UNL     1       4.334   6.203  17.357  0.00  0.00    +0.000 NA
ENDBRANCH  19  20
ENDBRANCH   4  19
TORSDOF 8
ENDMDL
MODEL 8
REMARK VINA RESULT:      -6.8      4.215      9.613
REMARK  Name = 
REMARK  8 active torsions:
REMARK  status: ('A' for Active; 'I' for Inactive)
REMARK    1  A    between atoms: O_1  and  C_2
REMARK    2  A    between atoms: C_2  and  C_3
REMARK    3  A    between atoms: C_3  and  C_4
REMARK    4  A    between atoms: C_4  and  C_5
REMARK    5  A    between atoms: C_5  and  O_6
REMARK    6  A    between atoms: O_6  and  C_7
REMARK    7  A    between atoms: N_15  and  C_16
REMARK    8  A    between atoms: C_16  and  C_17
REMARK                            x       y       z     vdW  Elec       q    Type
REMARK                         _______ _______ _______ _____ _____    ______ ____
ROOT
ATOM      1  C   UNL     1       0.151  10.581  19.421  0.00  0.00    +0.000 C 
ATOM      2  C   UNL     1      -0.064   9.572  20.578  0.00  0.00    +0.000 C 
ATOM      3  C   UNL     1       1.160   8.682  20.821  0.00  0.00    +0.000 C 
ATOM      4  N   UNL     1       1.501   7.934  19.602  0.00  0.00    +0.000 NA
ATOM      5  C   UNL     1       1.841   8.863  18.512  0.00  0.00    +0.000 C 
ATOM      6  C   UNL     1       0.668   9.792  18.192  0.00  0.00    +0.000 C 
ENDROOT
BRANCH   1   7
ATOM      7  C   UNL     1       1.194  11.656  19.828  0.00  0.00    +0.000 C 
BRANCH   7   8
ATOM      8  O   UNL     1       1.180  11.895  21.230  0.00  0.00    +0.000 OA
ATOM      9  H   UNL     1       2.100  11.836  21.546  0.00  0.00    +0.000 HD
ENDBRANCH   7   8
ENDBRANCH   1   7
BRANCH   1  10
ATOM     10  C   UNL     1      -1.200  11.255  19.008  0.00  0.00    +0.000 C 
BRANCH  10  11
ATOM     11  C   UNL     1      -2.000  11.843  20.168  0.00  0.00    +0.000 C 
BRANCH  11  12
ATOM     12  O   UNL     1      -2.934  12.830  19.712  0.00  0.00    +0.000 OA
BRANCH  12  13
ATOM     13  C   UNL     1      -4.209  12.323  19.597  0.00  0.00    +0.000 A 
ATOM     14  C   UNL     1      -5.053  12.502  20.698  0.00  0.00    +0.000 A 
ATOM     15  C   UNL     1      -6.351  11.984  20.674  0.00  0.00    +0.000 A 
ATOM     16  C   UNL     1      -6.817  11.303  19.550  0.00  0.00    +0.000 A 
ATOM     17  C   UNL     1      -5.989  11.146  18.441  0.00  0.00    +0.000 A 
ATOM     18  C   UNL     1      -4.696  11.664  18.466  0.00  0.00    +0.000 A 
ENDBRANCH  12  13
ENDBRANCH  11  12
ENDBRANCH  10  11
ENDBRANCH   1  10
BRANCH   4  19
ATOM     19  C   UNL     1       2.637   7.014  19.828  0.00  0.00    +0.000 C 
BRANCH  19  20
ATOM     20  C   UNL     1       2.259   5.564  19.724  0.00  0.00    +0.000 A 
ATOM     21  C   UNL     1       1.296   4.853  20.431  0.00  0.00    +0.000 A 
ATOM     22  C   UNL     1       1.366   3.503  20.041  0.00  0.00    +0.000 A 
ATOM     23  C   UNL     1       2.317   3.421  19.055  0.00  0.00    +0.000 A 
ATOM     24  N   UNL     1       2.833   4.685  18.803  0.00  0.00    +0.000 N 
ATOM     25  C   UNL     1       3.771   4.971  17.749  0.00  0.00    +0.000 A 
ATOM     26  N   UNL     1       4.125   3.949  16.938  0.00  0.00    +0.000 NA
ATOM     27  C   UNL     1       4.960   4.237  15.923  0.00  0.00    +0.000 A 
ATOM     28  C   UNL     1       5.471   5.491  15.694  0.00  0.00    +0.000 A 
ATOM     29  C   UNL     1       5.070   6.462  16.578  0.00  0.00    +0.000 A 
ATOM     30  N   UNL     1       4.221   6.234  17.596  0.00  0.00    +0.000 NA
ENDBRANCH  19  20
ENDBRANCH   4  19
TORSDOF 8
ENDMDL
MODEL 9
REMARK VINA RESULT:      -6.8      3.479      9.181
REMARK  Name = 
REMARK  8 active torsions:
REMARK  status: ('A' for Active; 'I' for Inactive)
REMARK    1  A    between atoms: O_1  and  C_2
REMARK    2  A    between atoms: C_2  and  C_3
REMARK    3  A    between atoms: C_3  and  C_4
REMARK    4  A    between atoms: C_4  and  C_5
REMARK    5  A    between atoms: C_5  and  O_6
REMARK    6  A    between atoms: O_6  and  C_7
REMARK    7  A    between atoms: N_15  and  C_16
REMARK    8  A    between atoms: C_16  and  C_17
REMARK                            x       y       z     vdW  Elec       q    Type
REMARK                         _______ _______ _______ _____ _____    ______ ____
ROOT
ATOM      1  C   UNL     1       0.290  10.566  18.844  0.00  0.00    +0.000 C 
ATOM      2  C   UNL     1      -0.031   9.733  20.111  0.00  0.00    +0.000 C 
ATOM      3  C   UNL     1       1.143   8.853  20.552  0.00  0.00    +0.000 C 
ATOM      4  N   UNL     1       1.531   7.934  19.471  0.00  0.00    +0.000 NA
ATOM      5  C   UNL     1       1.969   8.693  18.290  0.00  0.00    +0.000 C 
ATOM      6  C   UNL     1       0.852   9.601  17.770  0.00  0.00    +0.000 C 
ENDROOT
BRANCH   1   7
ATOM      7  C   UNL     1       1.345  11.658  19.167  0.00  0.00    +0.000 C 
BRANCH   7   8
ATOM      8  O   UNL     1       1.683  12.418  18.014  0.00  0.00    +0.000 OA
ATOM      9  H   UNL     1       2.499  12.038  17.642  0.00  0.00    +0.000 HD
ENDBRANCH   7   8
ENDBRANCH   1   7
BRANCH   1  10
ATOM     10  C   UNL     1      -1.008  11.213  18.256  0.00  0.00    +0.000 C 
BRANCH  10  11
ATOM     11  C   UNL     1      -2.061  11.588  19.295  0.00  0.00    +0.000 C 
BRANCH  11  12
ATOM     12  O   UNL     1      -1.894  12.938  19.746  0.00  0.00    +0.000 OA
BRANCH  12  13
ATOM     13  C   UNL     1      -2.091  13.059  21.104  0.00  0.00    +0.000 A 
ATOM     14  C   UNL     1      -3.380  12.785  21.573  0.00  0.00    +0.000 A 
ATOM     15  C   UNL     1      -3.671  12.921  22.933  0.00  0.00    +0.000 A 
ATOM     16  C   UNL     1      -2.678  13.312  23.831  0.00  0.00    +0.000 A 
ATOM     17  C   UNL     1      -1.387  13.560  23.372  0.00  0.00    +0.000 A 
ATOM     18  C   UNL     1      -1.097  13.423  22.016  0.00  0.00    +0.000 A 
ENDBRANCH  12  13
ENDBRANCH  11  12
ENDBRANCH  10  11
ENDBRANCH   1  10
BRANCH   4  19
ATOM     19  C   UNL     1       2.617   7.023  19.895  0.00  0.00    +0.000 C 
BRANCH  19  20
ATOM     20  C   UNL     1       2.241   5.571  19.816  0.00  0.00    +0.000 A 
ATOM     21  C   UNL     1       1.277   4.872  20.533  0.00  0.00    +0.000 A 
ATOM     22  C   UNL     1       1.350   3.514  20.168  0.00  0.00    +0.000 A 
ATOM     23  C   UNL     1       2.305   3.416  19.187  0.00  0.00    +0.000 A 
ATOM     24  N   UNL     1       2.820   4.676  18.913  0.00  0.00    +0.000 N 
ATOM     25  C   UNL     1       3.761   4.944  17.858  0.00  0.00    +0.000 A 
ATOM     26  N   UNL     1       4.119   3.908  17.067  0.00  0.00    +0.000 NA
ATOM     27  C   UNL     1       4.958   4.178  16.050  0.00  0.00    +0.000 A 
ATOM     28  C   UNL     1       5.468   5.429  15.799  0.00  0.00    +0.000 A 
ATOM     29  C   UNL     1       5.062   6.415  16.663  0.00  0.00    +0.000 A 
ATOM     30  N   UNL     1       4.210   6.205  17.683  0.00  0.00    +0.000 NA
ENDBRANCH  19  20
ENDBRANCH   4  19
TORSDOF 8
ENDMDL
