MODEL 1
REMARK VINA RESULT:      -6.8      0.000      0.000
REMARK  Name = 
REMARK  9 active torsions:
REMARK  status: ('A' for Active; 'I' for Inactive)
REMARK    1  A    between atoms: C_1  and  C_2
REMARK    2  A    between atoms: C_2  and  O_3
REMARK    3  A    between atoms: C_2  and  C_13
REMARK    4  A    between atoms: O_3  and  C_4
REMARK    5  A    between atoms: C_4  and  C_6
REMARK    6  A    between atoms: N_15  and  C_16
REMARK    7  A    between atoms: C_16  and  C_17
REMARK    8  A    between atoms: C_16  and  C_18
REMARK    9  A    between atoms: C_16  and  C_19
REMARK                            x       y       z     vdW  Elec       q    Type
REMARK                         _______ _______ _______ _____ _____    ______ ____
ROOT
ATOM      1  C   UNL     1       3.427   7.433  17.633  0.00  0.00    +0.000 C 
ATOM      2  C   UNL     1       4.069   6.049  17.759  0.00  0.00    +0.000 C 
ENDROOT
BRANCH   2   3
ATOM      3  C   UNL     1       3.365   5.287  18.892  0.00  0.00    +0.000 C 
ATOM      4  O   UNL     1       3.495   5.634  20.067  0.00  0.00    +0.000 OA
ATOM      5  N   UNL     1       2.537   4.250  18.513  0.00  0.00    +0.000 N 
ATOM      6  H   UNL     1       2.533   3.996  17.533  0.00  0.00    +0.000 HD
BRANCH   5   7
ATOM      7  C   UNL     1       1.783   3.423  19.475  0.00  0.00    +0.000 C 
ATOM      8  C   UNL     1       0.964   4.314  20.425  0.00  0.00    +0.000 C 
ATOM      9  C   UNL     1       0.812   2.503  18.713  0.00  0.00    +0.000 C 
ATOM     10  C   UNL     1       2.731   2.526  20.291  0.00  0.00    +0.000 C 
ENDBRANCH   5   7
ENDBRANCH   2   3
BRANCH   2  11
ATOM     11  O   UNL     1       5.473   6.176  18.019  0.00  0.00    +0.000 OA
BRANCH  11  12
ATOM     12  C   UNL     1       6.201   5.045  17.835  0.00  0.00    +0.000 C 
ATOM     13  O   UNL     1       6.658   4.326  18.709  0.00  0.00    +0.000 OA
BRANCH  12  14
ATOM     14  C   UNL     1       6.385   4.789  16.390  0.00  0.00    +0.000 A 
ATOM     15  C   UNL     1       5.677   3.807  15.688  0.00  0.00    +0.000 A 
ATOM     16  C   UNL     1       5.902   3.644  14.322  0.00  0.00    +0.000 A 
ATOM     17  C   UNL     1       6.833   4.469  13.711  0.00  0.00    +0.000 A 
ATOM     18 CL   UNL     1       7.163   4.329  12.036  0.00  0.00    +0.000 Cl
ATOM     19  N   UNL     1       7.537   5.424  14.353  0.00  0.00    +0.000 NA
ATOM     20  C   UNL     1       7.298   5.563  15.681  0.00  0.00    +0.000 A 
ENDBRANCH  12  14
ENDBRANCH  11  12
ENDBRANCH   2  11
TORSDOF 5
ENDMDL
MODEL 2
REMARK VINA RESULT:      -6.5      0.244      1.040
REMARK  Name = 
REMARK  9 active torsions:
REMARK  status: ('A' for Active; 'I' for Inactive)
REMARK    1  A    between atoms: C_1  and  C_2
REMARK    2  A    between atoms: C_2  and  O_3
REMARK    3  A    between atoms: C_2  and  C_13
REMARK    4  A    between atoms: O_3  and  C_4
REMARK    5  A    between atoms: C_4  and  C_6
REMARK    6  A    between atoms: N_15  and  C_16
REMARK    7  A    between atoms: C_16  and  C_17
REMARK    8  A    between atoms: C_16  and  C_18
REMARK    9  A    between atoms: C_16  and  C_19
REMARK                            x       y       z     vdW  Elec       q    Type
REMARK                         _______ _______ _______ _____ _____    ______ ____
ROOT
ATOM      1  C   UNL     1       3.520   7.287  17.306  0.00  0.00    +0.000 C 
ATOM      2  C   UNL     1       4.234   5.963  17.587  0.00  0.00    +0.000 C 
ENDROOT
BRANCH   2   3
ATOM      3  C   UNL     1       3.535   5.275  18.769  0.00  0.00    +0.000 C 
ATOM      4  O   UNL     1       3.710   5.664  19.924  0.00  0.00    +0.000 OA
ATOM      5  N   UNL     1       2.660   4.255  18.455  0.00  0.00    +0.000 N 
ATOM      6  H   UNL     1       2.620   3.962  17.487  0.00  0.00    +0.000 HD
BRANCH   5   7
ATOM      7  C   UNL     1       1.904   3.496  19.470  0.00  0.00    +0.000 C 
ATOM      8  C   UNL     1       0.973   2.474  18.796  0.00  0.00    +0.000 C 
ATOM      9  C   UNL     1       2.886   2.733  20.380  0.00  0.00    +0.000 C 
ATOM     10  C   UNL     1       1.080   4.441  20.363  0.00  0.00    +0.000 C 
ENDBRANCH   5   7
ENDBRANCH   2   3
BRANCH   2  11
ATOM     11  O   UNL     1       5.619   6.200  17.875  0.00  0.00    +0.000 OA
BRANCH  11  12
ATOM     12  C   UNL     1       6.440   5.138  17.680  0.00  0.00    +0.000 C 
ATOM     13  O   UNL     1       7.037   4.514  18.543  0.00  0.00    +0.000 OA
BRANCH  12  14
ATOM     14  C   UNL     1       6.533   4.825  16.238  0.00  0.00    +0.000 A 
ATOM     15  C   UNL     1       5.745   3.854  15.610  0.00  0.00    +0.000 A 
ATOM     16  C   UNL     1       5.886   3.635  14.242  0.00  0.00    +0.000 A 
ATOM     17  C   UNL     1       6.818   4.394  13.551  0.00  0.00    +0.000 A 
ATOM     18 CL   UNL     1       7.049   4.182  11.868  0.00  0.00    +0.000 Cl
ATOM     19  N   UNL     1       7.598   5.336  14.120  0.00  0.00    +0.000 NA
ATOM     20  C   UNL     1       7.439   5.530  15.453  0.00  0.00    +0.000 A 
ENDBRANCH  12  14
ENDBRANCH  11  12
ENDBRANCH   2  11
TORSDOF 5
ENDMDL
MODEL 3
REMARK VINA RESULT:      -6.3      2.931      5.900
REMARK  Name = 
REMARK  9 active torsions:
REMARK  status: ('A' for Active; 'I' for Inactive)
REMARK    1  A    between atoms: C_1  and  C_2
REMARK    2  A    between atoms: C_2  and  O_3
REMARK    3  A    between atoms: C_2  and  C_13
REMARK    4  A    between atoms: O_3  and  C_4
REMARK    5  A    between atoms: C_4  and  C_6
REMARK    6  A    between atoms: N_15  and  C_16
REMARK    7  A    between atoms: C_16  and  C_17
REMARK    8  A    between atoms: C_16  and  C_18
REMARK    9  A    between atoms: C_16  and  C_19
REMARK                            x       y       z     vdW  Elec       q    Type
REMARK                         _______ _______ _______ _____ _____    ______ ____
ROOT
ATOM      1  C   UNL     1       4.791   1.912  20.435  0.00  0.00    +0.000 C 
ATOM      2  C   UNL     1       4.071   3.006  19.643  0.00  0.00    +0.000 C 
ENDROOT
BRANCH   2   3
ATOM      3  C   UNL     1       5.127   3.933  19.023  0.00  0.00    +0.000 C 
ATOM      4  O   UNL     1       5.809   4.679  19.727  0.00  0.00    +0.000 OA
ATOM      5  N   UNL     1       5.310   3.829  17.659  0.00  0.00    +0.000 N 
ATOM      6  H   UNL     1       4.668   3.233  17.151  0.00  0.00    +0.000 HD
BRANCH   5   7
ATOM      7  C   UNL     1       6.287   4.642  16.910  0.00  0.00    +0.000 C 
ATOM      8  C   UNL     1       7.688   4.510  17.533  0.00  0.00    +0.000 C 
ATOM      9  C   UNL     1       6.356   4.149  15.452  0.00  0.00    +0.000 C 
ATOM     10  C   UNL     1       5.868   6.122  16.882  0.00  0.00    +0.000 C 
ENDBRANCH   5   7
ENDBRANCH   2   3
BRANCH   2  11
ATOM     11  O   UNL     1       3.186   3.737  20.503  0.00  0.00    +0.000 OA
BRANCH  11  12
ATOM     12  C   UNL     1       1.996   4.084  19.949  0.00  0.00    +0.000 C 
ATOM     13  O   UNL     1       0.998   3.386  19.880  0.00  0.00    +0.000 OA
BRANCH  12  14
ATOM     14  C   UNL     1       2.067   5.459  19.411  0.00  0.00    +0.000 A 
ATOM     15  C   UNL     1       2.255   5.745  18.054  0.00  0.00    +0.000 A 
ATOM     16  C   UNL     1       2.293   7.072  17.632  0.00  0.00    +0.000 A 
ATOM     17  C   UNL     1       2.148   8.066  18.586  0.00  0.00    +0.000 A 
ATOM     18 CL   UNL     1       2.185   9.720  18.143  0.00  0.00    +0.000 Cl
ATOM     19  N   UNL     1       1.969   7.832  19.902  0.00  0.00    +0.000 NA
ATOM     20  C   UNL     1       1.933   6.532  20.287  0.00  0.00    +0.000 A 
ENDBRANCH  12  14
ENDBRANCH  11  12
ENDBRANCH   2  11
TORSDOF 5
ENDMDL
MODEL 4
REMARK VINA RESULT:      -6.2      1.535      1.853
REMARK  Name = 
REMARK  9 active torsions:
REMARK  status: ('A' for Active; 'I' for Inactive)
REMARK    1  A    between atoms: C_1  and  C_2
REMARK    2  A    between atoms: C_2  and  O_3
REMARK    3  A    between atoms: C_2  and  C_13
REMARK    4  A    between atoms: O_3  and  C_4
REMARK    5  A    between atoms: C_4  and  C_6
REMARK    6  A    between atoms: N_15  and  C_16
REMARK    7  A    between atoms: C_16  and  C_17
REMARK    8  A    between atoms: C_16  and  C_18
REMARK    9  A    between atoms: C_16  and  C_19
REMARK                            x       y       z     vdW  Elec       q    Type
REMARK                         _______ _______ _______ _____ _____    ______ ____
ROOT
ATOM      1  C   UNL     1       2.252   6.961  19.857  0.00  0.00    +0.000 C 
ATOM      2  C   UNL     1       2.295   6.471  18.407  0.00  0.00    +0.000 C 
ENDROOT
BRANCH   2   3
ATOM      3  C   UNL     1       2.004   4.963  18.393  0.00  0.00    +0.000 C 
ATOM      4  O   UNL     1       1.719   4.381  17.346  0.00  0.00    +0.000 OA
ATOM      5  N   UNL     1       2.149   4.299  19.595  0.00  0.00    +0.000 N 
ATOM      6  H   UNL     1       2.330   4.864  20.416  0.00  0.00    +0.000 HD
BRANCH   5   7
ATOM      7  C   UNL     1       1.915   2.851  19.753  0.00  0.00    +0.000 C 
ATOM      8  C   UNL     1       0.665   2.419  18.967  0.00  0.00    +0.000 C 
ATOM      9  C   UNL     1       3.126   2.071  19.207  0.00  0.00    +0.000 C 
ATOM     10  C   UNL     1       1.751   2.478  21.237  0.00  0.00    +0.000 C 
ENDBRANCH   5   7
ENDBRANCH   2   3
BRANCH   2  11
ATOM     11  O   UNL     1       3.576   6.753  17.827  0.00  0.00    +0.000 OA
BRANCH  11  12
ATOM     12  C   UNL     1       4.548   5.847  18.102  0.00  0.00    +0.000 C 
ATOM     13  O   UNL     1       4.958   5.537  19.209  0.00  0.00    +0.000 OA
BRANCH  12  14
ATOM     14  C   UNL     1       5.072   5.267  16.847  0.00  0.00    +0.000 A 
ATOM     15  C   UNL     1       5.192   3.890  16.628  0.00  0.00    +0.000 A 
ATOM     16  C   UNL     1       5.682   3.429  15.408  0.00  0.00    +0.000 A 
ATOM     17  C   UNL     1       6.039   4.367  14.452  0.00  0.00    +0.000 A 
ATOM     18 CL   UNL     1       6.650   3.877  12.929  0.00  0.00    +0.000 Cl
ATOM     19  N   UNL     1       5.943   5.701  14.626  0.00  0.00    +0.000 NA
ATOM     20  C   UNL     1       5.461   6.123  15.822  0.00  0.00    +0.000 A 
ENDBRANCH  12  14
ENDBRANCH  11  12
ENDBRANCH   2  11
TORSDOF 5
ENDMDL
MODEL 5
REMARK VINA RESULT:      -6.2      0.871      1.617
REMARK  Name = 
REMARK  9 active torsions:
REMARK  status: ('A' for Active; 'I' for Inactive)
REMARK    1  A    between atoms: C_1  and  C_2
REMARK    2  A    between atoms: C_2  and  O_3
REMARK    3  A    between atoms: C_2  and  C_13
REMARK    4  A    between atoms: O_3  and  C_4
REMARK    5  A    between atoms: C_4  and  C_6
REMARK    6  A    between atoms: N_15  and  C_16
REMARK    7  A    between atoms: C_16  and  C_17
REMARK    8  A    between atoms: C_16  and  C_18
REMARK    9  A    between atoms: C_16  and  C_19
REMARK                            x       y       z     vdW  Elec       q    Type
REMARK                         _______ _______ _______ _____ _____    ______ ____
ROOT
ATOM      1  C   UNL     1       3.194   7.586  17.800  0.00  0.00    +0.000 C 
ATOM      2  C   UNL     1       3.831   6.198  17.892  0.00  0.00    +0.000 C 
ENDROOT
BRANCH   2   3
ATOM      3  C   UNL     1       3.118   5.407  19.000  0.00  0.00    +0.000 C 
ATOM      4  O   UNL     1       2.893   5.916  20.099  0.00  0.00    +0.000 OA
ATOM      5  N   UNL     1       2.689   4.138  18.669  0.00  0.00    +0.000 N 
ATOM      6  H   UNL     1       2.965   3.778  17.764  0.00  0.00    +0.000 HD
BRANCH   5   7
ATOM      7  C   UNL     1       1.983   3.251  19.613  0.00  0.00    +0.000 C 
ATOM      8  C   UNL     1       1.441   2.009  18.883  0.00  0.00    +0.000 C 
ATOM      9  C   UNL     1       2.959   2.783  20.708  0.00  0.00    +0.000 C 
ATOM     10  C   UNL     1       0.826   3.993  20.306  0.00  0.00    +0.000 C 
ENDBRANCH   5   7
ENDBRANCH   2   3
BRANCH   2  11
ATOM     11  O   UNL     1       5.234   6.314  18.166  0.00  0.00    +0.000 OA
BRANCH  11  12
ATOM     12  C   UNL     1       5.945   5.165  18.047  0.00  0.00    +0.000 C 
ATOM     13  O   UNL     1       6.395   4.492  18.960  0.00  0.00    +0.000 OA
BRANCH  12  14
ATOM     14  C   UNL     1       6.118   4.820  16.619  0.00  0.00    +0.000 A 
ATOM     15  C   UNL     1       7.043   5.455  15.783  0.00  0.00    +0.000 A 
ATOM     16  C   UNL     1       7.152   5.056  14.452  0.00  0.00    +0.000 A 
ATOM     17  C   UNL     1       6.324   4.038  14.006  0.00  0.00    +0.000 A 
ATOM     18 CL   UNL     1       6.399   3.493  12.384  0.00  0.00    +0.000 Cl
ATOM     19  N   UNL     1       5.418   3.404  14.779  0.00  0.00    +0.000 NA
ATOM     20  C   UNL     1       5.334   3.810  16.071  0.00  0.00    +0.000 A 
ENDBRANCH  12  14
ENDBRANCH  11  12
ENDBRANCH   2  11
TORSDOF 5
ENDMDL
MODEL 6
REMARK VINA RESULT:      -6.2      2.492      3.300
REMARK  Name = 
REMARK  9 active torsions:
REMARK  status: ('A' for Active; 'I' for Inactive)
REMARK    1  A    between atoms: C_1  and  C_2
REMARK    2  A    between atoms: C_2  and  O_3
REMARK    3  A    between atoms: C_2  and  C_13
REMARK    4  A    between atoms: O_3  and  C_4
REMARK    5  A    between atoms: C_4  and  C_6
REMARK    6  A    between atoms: N_15  and  C_16
REMARK    7  A    between atoms: C_16  and  C_17
REMARK    8  A    between atoms: C_16  and  C_18
REMARK    9  A    between atoms: C_16  and  C_19
REMARK                            x       y       z     vdW  Elec       q    Type
REMARK                         _______ _______ _______ _____ _____    ______ ____
ROOT
ATOM      1  C   UNL     1       2.361   4.741  18.539  0.00  0.00    +0.000 C 
ATOM      2  C   UNL     1       3.200   5.769  19.302  0.00  0.00    +0.000 C 
ENDROOT
BRANCH   2   3
ATOM      3  C   UNL     1       2.366   7.049  19.470  0.00  0.00    +0.000 C 
ATOM      4  O   UNL     1       2.111   7.771  18.505  0.00  0.00    +0.000 OA
ATOM      5  N   UNL     1       1.871   7.298  20.734  0.00  0.00    +0.000 N 
ATOM      6  H   UNL     1       2.177   6.685  21.479  0.00  0.00    +0.000 HD
BRANCH   5   7
ATOM      7  C   UNL     1       1.049   8.478  21.062  0.00  0.00    +0.000 C 
ATOM      8  C   UNL     1      -0.416   8.067  21.290  0.00  0.00    +0.000 C 
ATOM      9  C   UNL     1       1.576   9.131  22.353  0.00  0.00    +0.000 C 
ATOM     10  C   UNL     1       1.125   9.532  19.943  0.00  0.00    +0.000 C 
ENDBRANCH   5   7
ENDBRANCH   2   3
BRANCH   2  11
ATOM     11  O   UNL     1       4.418   6.038  18.596  0.00  0.00    +0.000 OA
BRANCH  11  12
ATOM     12  C   UNL     1       5.251   4.976  18.454  0.00  0.00    +0.000 C 
ATOM     13  O   UNL     1       5.557   4.174  19.321  0.00  0.00    +0.000 OA
BRANCH  12  14
ATOM     14  C   UNL     1       5.767   4.915  17.069  0.00  0.00    +0.000 A 
ATOM     15  C   UNL     1       5.132   4.205  16.044  0.00  0.00    +0.000 A 
ATOM     16  C   UNL     1       5.680   4.215  14.763  0.00  0.00    +0.000 A 
ATOM     17  C   UNL     1       6.847   4.933  14.556  0.00  0.00    +0.000 A 
ATOM     18 CL   UNL     1       7.579   4.992  13.009  0.00  0.00    +0.000 Cl
ATOM     19  N   UNL     1       7.490   5.626  15.518  0.00  0.00    +0.000 NA
ATOM     20  C   UNL     1       6.935   5.602  16.756  0.00  0.00    +0.000 A 
ENDBRANCH  12  14
ENDBRANCH  11  12
ENDBRANCH   2  11
TORSDOF 5
ENDMDL
MODEL 7
REMARK VINA RESULT:      -6.2      4.769      7.680
REMARK  Name = 
REMARK  9 active torsions:
REMARK  status: ('A' for Active; 'I' for Inactive)
REMARK    1  A    between atoms: C_1  and  C_2
REMARK    2  A    between atoms: C_2  and  O_3
REMARK    3  A    between atoms: C_2  and  C_13
REMARK    4  A    between atoms: O_3  and  C_4
REMARK    5  A    between atoms: C_4  and  C_6
REMARK    6  A    between atoms: N_15  and  C_16
REMARK    7  A    between atoms: C_16  and  C_17
REMARK    8  A    between atoms: C_16  and  C_18
REMARK    9  A    between atoms: C_16  and  C_19
REMARK                            x       y       z     vdW  Elec       q    Type
REMARK                         _______ _______ _______ _____ _____    ______ ____
ROOT
ATOM      1  C   UNL     1       2.890   4.961  18.994  0.00  0.00    +0.000 C 
ATOM      2  C   UNL     1       3.138   6.249  18.205  0.00  0.00    +0.000 C 
ENDROOT
BRANCH   2   3
ATOM      3  C   UNL     1       4.570   6.213  17.650  0.00  0.00    +0.000 C 
ATOM      4  O   UNL     1       4.806   6.521  16.481  0.00  0.00    +0.000 OA
ATOM      5  N   UNL     1       5.567   5.886  18.547  0.00  0.00    +0.000 N 
ATOM      6  H   UNL     1       5.279   5.592  19.472  0.00  0.00    +0.000 HD
BRANCH   5   7
ATOM      7  C   UNL     1       6.994   5.813  18.178  0.00  0.00    +0.000 C 
ATOM      8  C   UNL     1       7.437   7.110  17.479  0.00  0.00    +0.000 C 
ATOM      9  C   UNL     1       7.845   5.631  19.449  0.00  0.00    +0.000 C 
ATOM     10  C   UNL     1       7.265   4.608  17.260  0.00  0.00    +0.000 C 
ENDBRANCH   5   7
ENDBRANCH   2   3
BRANCH   2  11
ATOM     11  O   UNL     1       2.942   7.392  19.049  0.00  0.00    +0.000 OA
BRANCH  11  12
ATOM     12  C   UNL     1       2.107   8.340  18.556  0.00  0.00    +0.000 C 
ATOM     13  O   UNL     1       2.021   8.697  17.392  0.00  0.00    +0.000 OA
BRANCH  12  14
ATOM     14  C   UNL     1       1.289   8.914  19.646  0.00  0.00    +0.000 A 
ATOM     15  C   UNL     1       0.349   9.931  19.447  0.00  0.00    +0.000 A 
ATOM     16  C   UNL     1      -0.391  10.403  20.530  0.00  0.00    +0.000 A 
ATOM     17  C   UNL     1      -0.158   9.840  21.775  0.00  0.00    +0.000 A 
ATOM     18 CL   UNL     1      -1.028  10.368  23.152  0.00  0.00    +0.000 Cl
ATOM     19  N   UNL     1       0.740   8.862  22.008  0.00  0.00    +0.000 NA
ATOM     20  C   UNL     1       1.446   8.419  20.937  0.00  0.00    +0.000 A 
ENDBRANCH  12  14
ENDBRANCH  11  12
ENDBRANCH   2  11
TORSDOF 5
ENDMDL
MODEL 8
REMARK VINA RESULT:      -6.2      1.451      1.611
REMARK  Name = 
REMARK  9 active torsions:
REMARK  status: ('A' for Active; 'I' for Inactive)
REMARK    1  A    between atoms: C_1  and  C_2
REMARK    2  A    between atoms: C_2  and  O_3
REMARK    3  A    between atoms: C_2  and  C_13
REMARK    4  A    between atoms: O_3  and  C_4
REMARK    5  A    between atoms: C_4  and  C_6
REMARK    6  A    between atoms: N_15  and  C_16
REMARK    7  A    between atoms: C_16  and  C_17
REMARK    8  A    between atoms: C_16  and  C_18
REMARK    9  A    between atoms: C_16  and  C_19
REMARK                            x       y       z     vdW  Elec       q    Type
REMARK                         _______ _______ _______ _____ _____    ______ ____
ROOT
ATOM      1  C   UNL     1       2.448   6.865  19.745  0.00  0.00    +0.000 C 
ATOM      2  C   UNL     1       2.426   6.362  18.300  0.00  0.00    +0.000 C 
ENDROOT
BRANCH   2   3
ATOM      3  C   UNL     1       2.103   4.860  18.311  0.00  0.00    +0.000 C 
ATOM      4  O   UNL     1       1.829   4.262  17.270  0.00  0.00    +0.000 OA
ATOM      5  N   UNL     1       2.206   4.220  19.530  0.00  0.00    +0.000 N 
ATOM      6  H   UNL     1       2.380   4.798  20.342  0.00  0.00    +0.000 HD
BRANCH   5   7
ATOM      7  C   UNL     1       1.937   2.781  19.712  0.00  0.00    +0.000 C 
ATOM      8  C   UNL     1       1.775   2.448  21.205  0.00  0.00    +0.000 C 
ATOM      9  C   UNL     1       0.632   2.404  18.986  0.00  0.00    +0.000 C 
ATOM     10  C   UNL     1       3.068   1.928  19.109  0.00  0.00    +0.000 C 
ENDBRANCH   5   7
ENDBRANCH   2   3
BRANCH   2  11
ATOM     11  O   UNL     1       3.689   6.612  17.670  0.00  0.00    +0.000 OA
BRANCH  11  12
ATOM     12  C   UNL     1       4.648   5.681  17.907  0.00  0.00    +0.000 C 
ATOM     13  O   UNL     1       4.910   5.169  18.983  0.00  0.00    +0.000 OA
BRANCH  12  14
ATOM     14  C   UNL     1       5.366   5.360  16.655  0.00  0.00    +0.000 A 
ATOM     15  C   UNL     1       4.860   4.497  15.678  0.00  0.00    +0.000 A 
ATOM     16  C   UNL     1       5.597   4.263  14.519  0.00  0.00    +0.000 A 
ATOM     17  C   UNL     1       6.820   4.900  14.384  0.00  0.00    +0.000 A 
ATOM     18 CL   UNL     1       7.784   4.663  12.989  0.00  0.00    +0.000 Cl
ATOM     19  N   UNL     1       7.345   5.736  15.304  0.00  0.00    +0.000 NA
ATOM     20  C   UNL     1       6.605   5.948  16.421  0.00  0.00    +0.000 A 
ENDBRANCH  12  14
ENDBRANCH  11  12
ENDBRANCH   2  11
TORSDOF 5
ENDMDL
MODEL 9
REMARK VINA RESULT:      -6.1      0.965      1.009
REMARK  Name = 
REMARK  9 active torsions:
REMARK  status: ('A' for Active; 'I' for Inactive)
REMARK    1  A    between atoms: C_1  and  C_2
REMARK    2  A    between atoms: C_2  and  O_3
REMARK    3  A    between atoms: C_2  and  C_13
REMARK    4  A    between atoms: O_3  and  C_4
REMARK    5  A    between atoms: C_4  and  C_6
REMARK    6  A    between atoms: N_15  and  C_16
REMARK    7  A    between atoms: C_16  and  C_17
REMARK    8  A    between atoms: C_16  and  C_18
REMARK    9  A    between atoms: C_16  and  C_19
REMARK                            x       y       z     vdW  Elec       q    Type
REMARK                         _______ _______ _______ _____ _____    ______ ____
ROOT
ATOM      1  C   UNL     1       2.292   8.015  18.203  0.00  0.00    +0.000 C 
ATOM      2  C   UNL     1       3.024   6.693  17.958  0.00  0.00    +0.000 C 
ENDROOT
BRANCH   2   3
ATOM      3  C   UNL     1       2.590   5.689  19.037  0.00  0.00    +0.000 C 
ATOM      4  O   UNL     1       2.428   6.043  20.206  0.00  0.00    +0.000 OA
ATOM      5  N   UNL     1       2.330   4.403  18.610  0.00  0.00    +0.000 N 
ATOM      6  H   UNL     1       2.544   4.184  17.645  0.00  0.00    +0.000 HD
BRANCH   5   7
ATOM      7  C   UNL     1       1.898   3.321  19.516  0.00  0.00    +0.000 C 
ATOM      8  C   UNL     1       0.732   3.793  20.401  0.00  0.00    +0.000 C 
ATOM      9  C   UNL     1       1.420   2.115  18.686  0.00  0.00    +0.000 C 
ATOM     10  C   UNL     1       3.064   2.845  20.401  0.00  0.00    +0.000 C 
ENDBRANCH   5   7
ENDBRANCH   2   3
BRANCH   2  11
ATOM     11  O   UNL     1       4.443   6.899  17.989  0.00  0.00    +0.000 OA
BRANCH  11  12
ATOM     12  C   UNL     1       5.188   5.776  18.150  0.00  0.00    +0.000 C 
ATOM     13  O   UNL     1       5.531   5.280  19.210  0.00  0.00    +0.000 OA
BRANCH  12  14
ATOM     14  C   UNL     1       5.552   5.215  16.831  0.00  0.00    +0.000 A 
ATOM     15  C   UNL     1       5.284   3.893  16.459  0.00  0.00    +0.000 A 
ATOM     16  C   UNL     1       5.649   3.451  15.189  0.00  0.00    +0.000 A 
ATOM     17  C   UNL     1       6.274   4.350  14.339  0.00  0.00    +0.000 A 
ATOM     18 CL   UNL     1       6.752   3.880  12.763  0.00  0.00    +0.000 Cl
ATOM     19  N   UNL     1       6.553   5.629  14.662  0.00  0.00    +0.000 NA
ATOM     20  C   UNL     1       6.186   6.034  15.903  0.00  0.00    +0.000 A 
ENDBRANCH  12  14
ENDBRANCH  11  12
ENDBRANCH   2  11
TORSDOF 5
ENDMDL
