MODEL 1
REMARK VINA RESULT:      -7.8      0.000      0.000
REMARK  Name = 
REMARK  4 active torsions:
REMARK  status: ('A' for Active; 'I' for Inactive)
REMARK    1  A    between atoms: C_2  and  C_3
REMARK    2  A    between atoms: C_3  and  N_4
REMARK    3  A    between atoms: N_4  and  C_18
REMARK    4  A    between atoms: C_5  and  C_7
REMARK                            x       y       z     vdW  Elec       q    Type
REMARK                         _______ _______ _______ _____ _____    ______ ____
ROOT
ATOM      1  N   UNL     1       3.467   5.384  17.763  0.00  0.00    +0.000 N 
ATOM      2  C   UNL     1       3.523   6.799  17.883  0.00  0.00    +0.000 C 
ATOM      3  O   UNL     1       4.435   7.442  17.353  0.00  0.00    +0.000 OA
ENDROOT
BRANCH   2   4
ATOM      4  C   UNL     1       2.499   7.632  18.623  0.00  0.00    +0.000 A 
ATOM      5  C   UNL     1       1.876   8.776  18.139  0.00  0.00    +0.000 A 
ATOM      6  C   UNL     1       0.991   9.512  18.958  0.00  0.00    +0.000 A 
ATOM      7  C   UNL     1       0.791   9.178  20.298  0.00  0.00    +0.000 A 
ATOM      8  N   UNL     1      -0.025   9.959  21.108  0.00  0.00    +0.000 N 
ATOM      9  C   UNL     1      -0.105   9.704  22.544  0.00  0.00    +0.000 C 
ATOM     10  C   UNL     1      -1.049  10.808  23.026  0.00  0.00    +0.000 C 
ATOM     11  C   UNL     1      -0.653  12.000  22.170  0.00  0.00    +0.000 C 
ATOM     12  C   UNL     1      -0.192  11.389  20.845  0.00  0.00    +0.000 C 
ATOM     13  N   UNL     1       1.395   8.076  20.790  0.00  0.00    +0.000 NA
ATOM     14  C   UNL     1       2.224   7.349  19.967  0.00  0.00    +0.000 A 
ENDBRANCH   2   4
BRANCH   1  15
ATOM     15  C   UNL     1       2.603   4.524  18.608  0.00  0.00    +0.000 C 
ATOM     16  C   UNL     1       1.819   3.454  17.838  0.00  0.00    +0.000 C 
ATOM     17  C   UNL     1       2.596   2.170  17.568  0.00  0.00    +0.000 C 
ATOM     18  C   UNL     1       3.351   1.643  18.785  0.00  0.00    +0.000 C 
ATOM     19  C   UNL     1       4.119   2.697  19.584  0.00  0.00    +0.000 C 
ATOM     20  C   UNL     1       3.311   3.960  19.842  0.00  0.00    +0.000 C 
ENDBRANCH   1  15
BRANCH   1  21
ATOM     21  C   UNL     1       4.376   4.739  16.745  0.00  0.00    +0.000 C 
BRANCH  21  23
ATOM     22  C   UNL     1       6.981   4.720  17.834  0.00  0.00    +0.000 C 
ATOM     23  C   UNL     1       5.779   4.728  17.331  0.00  0.00    +0.000 C 
ENDBRANCH  21  23
ENDBRANCH   1  21
TORSDOF 4
ENDMDL
MODEL 2
REMARK VINA RESULT:      -7.5      1.708      3.307
REMARK  Name = 
REMARK  4 active torsions:
REMARK  status: ('A' for Active; 'I' for Inactive)
REMARK    1  A    between atoms: C_2  and  C_3
REMARK    2  A    between atoms: C_3  and  N_4
REMARK    3  A    between atoms: N_4  and  C_18
REMARK    4  A    between atoms: C_5  and  C_7
REMARK                            x       y       z     vdW  Elec       q    Type
REMARK                         _______ _______ _______ _____ _____    ______ ____
ROOT
ATOM      1  N   UNL     1       4.240   5.110  18.909  0.00  0.00    +0.000 N 
ATOM      2  C   UNL     1       2.930   5.482  19.318  0.00  0.00    +0.000 C 
ATOM      3  O   UNL     1       2.167   4.651  19.823  0.00  0.00    +0.000 OA
ENDROOT
BRANCH   2   4
ATOM      4  C   UNL     1       2.367   6.881  19.202  0.00  0.00    +0.000 A 
ATOM      5  C   UNL     1       2.464   7.708  18.089  0.00  0.00    +0.000 A 
ATOM      6  C   UNL     1       1.961   9.028  18.130  0.00  0.00    +0.000 A 
ATOM      7  C   UNL     1       1.446   9.575  19.306  0.00  0.00    +0.000 A 
ATOM      8  N   UNL     1       1.026  10.899  19.346  0.00  0.00    +0.000 N 
ATOM      9  C   UNL     1       0.641  11.516  20.613  0.00  0.00    +0.000 C 
ATOM     10  C   UNL     1       0.315  12.952  20.198  0.00  0.00    +0.000 C 
ATOM     11  C   UNL     1       1.360  13.252  19.135  0.00  0.00    +0.000 C 
ATOM     12  C   UNL     1       1.628  11.901  18.465  0.00  0.00    +0.000 C 
ATOM     13  N   UNL     1       1.353   8.791  20.400  0.00  0.00    +0.000 NA
ATOM     14  C   UNL     1       1.812   7.495  20.332  0.00  0.00    +0.000 A 
ENDBRANCH   2   4
BRANCH   1  15
ATOM     15  C   UNL     1       5.091   5.947  18.029  0.00  0.00    +0.000 C 
ATOM     16  C   UNL     1       6.590   5.889  18.348  0.00  0.00    +0.000 C 
ATOM     17  C   UNL     1       7.328   4.716  17.712  0.00  0.00    +0.000 C 
ATOM     18  C   UNL     1       6.989   4.502  16.240  0.00  0.00    +0.000 C 
ATOM     19  C   UNL     1       5.501   4.583  15.894  0.00  0.00    +0.000 C 
ATOM     20  C   UNL     1       4.800   5.769  16.537  0.00  0.00    +0.000 C 
ENDBRANCH   1  15
BRANCH   1  21
ATOM     21  C   UNL     1       4.755   3.769  19.371  0.00  0.00    +0.000 C 
BRANCH  21  23
ATOM     22  C   UNL     1       3.360   1.785  17.924  0.00  0.00    +0.000 C 
ATOM     23  C   UNL     1       4.004   2.701  18.592  0.00  0.00    +0.000 C 
ENDBRANCH  21  23
ENDBRANCH   1  21
TORSDOF 4
ENDMDL
MODEL 3
REMARK VINA RESULT:      -7.5      1.652      3.371
REMARK  Name = 
REMARK  4 active torsions:
REMARK  status: ('A' for Active; 'I' for Inactive)
REMARK    1  A    between atoms: C_2  and  C_3
REMARK    2  A    between atoms: C_3  and  N_4
REMARK    3  A    between atoms: N_4  and  C_18
REMARK    4  A    between atoms: C_5  and  C_7
REMARK                            x       y       z     vdW  Elec       q    Type
REMARK                         _______ _______ _______ _____ _____    ______ ____
ROOT
ATOM      1  N   UNL     1       3.906   4.949  17.816  0.00  0.00    +0.000 N 
ATOM      2  C   UNL     1       2.599   5.344  18.213  0.00  0.00    +0.000 C 
ATOM      3  O   UNL     1       1.654   4.552  18.146  0.00  0.00    +0.000 OA
ENDROOT
BRANCH   2   4
ATOM      4  C   UNL     1       2.252   6.712  18.757  0.00  0.00    +0.000 A 
ATOM      5  C   UNL     1       1.985   7.016  20.087  0.00  0.00    +0.000 A 
ATOM      6  C   UNL     1       1.597   8.322  20.461  0.00  0.00    +0.000 A 
ATOM      7  C   UNL     1       1.372   9.316  19.507  0.00  0.00    +0.000 A 
ATOM      8  N   UNL     1       0.917  10.572  19.889  0.00  0.00    +0.000 N 
ATOM      9  C   UNL     1       0.528  11.556  18.882  0.00  0.00    +0.000 C 
ATOM     10  C   UNL     1       0.053  12.735  19.735  0.00  0.00    +0.000 C 
ATOM     11  C   UNL     1      -0.650  12.059  20.900  0.00  0.00    +0.000 C 
ATOM     12  C   UNL     1       0.100  10.739  21.092  0.00  0.00    +0.000 C 
ATOM     13  N   UNL     1       1.615   9.037  18.210  0.00  0.00    +0.000 NA
ATOM     14  C   UNL     1       2.030   7.771  17.868  0.00  0.00    +0.000 A 
ENDBRANCH   2   4
BRANCH   1  15
ATOM     15  C   UNL     1       5.012   5.907  17.574  0.00  0.00    +0.000 C 
ATOM     16  C   UNL     1       6.380   5.447  18.093  0.00  0.00    +0.000 C 
ATOM     17  C   UNL     1       7.146   4.535  17.140  0.00  0.00    +0.000 C 
ATOM     18  C   UNL     1       7.154   5.025  15.695  0.00  0.00    +0.000 C 
ATOM     19  C   UNL     1       5.806   5.515  15.164  0.00  0.00    +0.000 C 
ATOM     20  C   UNL     1       5.074   6.428  16.136  0.00  0.00    +0.000 C 
ENDBRANCH   1  15
BRANCH   1  21
ATOM     21  C   UNL     1       4.146   3.476  17.592  0.00  0.00    +0.000 C 
BRANCH  21  23
ATOM     22  C   UNL     1       4.333   2.258  20.134  0.00  0.00    +0.000 C 
ATOM     23  C   UNL     1       4.246   2.820  18.961  0.00  0.00    +0.000 C 
ENDBRANCH  21  23
ENDBRANCH   1  21
TORSDOF 4
ENDMDL
MODEL 4
REMARK VINA RESULT:      -7.3      1.474      3.154
REMARK  Name = 
REMARK  4 active torsions:
REMARK  status: ('A' for Active; 'I' for Inactive)
REMARK    1  A    between atoms: C_2  and  C_3
REMARK    2  A    between atoms: C_3  and  N_4
REMARK    3  A    between atoms: N_4  and  C_18
REMARK    4  A    between atoms: C_5  and  C_7
REMARK                            x       y       z     vdW  Elec       q    Type
REMARK                         _______ _______ _______ _____ _____    ______ ____
ROOT
ATOM      1  N   UNL     1       3.748   5.047  17.503  0.00  0.00    +0.000 N 
ATOM      2  C   UNL     1       2.440   5.398  17.935  0.00  0.00    +0.000 C 
ATOM      3  O   UNL     1       1.460   4.730  17.589  0.00  0.00    +0.000 OA
ENDROOT
BRANCH   2   4
ATOM      4  C   UNL     1       2.129   6.565  18.846  0.00  0.00    +0.000 A 
ATOM      5  C   UNL     1       1.883   6.489  20.212  0.00  0.00    +0.000 A 
ATOM      6  C   UNL     1       1.528   7.646  20.942  0.00  0.00    +0.000 A 
ATOM      7  C   UNL     1       1.317   8.871  20.308  0.00  0.00    +0.000 A 
ATOM      8  N   UNL     1       0.895   9.979  21.033  0.00  0.00    +0.000 N 
ATOM      9  C   UNL     1       0.518  11.212  20.348  0.00  0.00    +0.000 C 
ATOM     10  C   UNL     1       0.079  12.115  21.503  0.00  0.00    +0.000 C 
ATOM     11  C   UNL     1      -0.629  11.153  22.444  0.00  0.00    +0.000 C 
ATOM     12  C   UNL     1       0.093   9.818  22.247  0.00  0.00    +0.000 C 
ATOM     13  N   UNL     1       1.541   8.962  18.981  0.00  0.00    +0.000 NA
ATOM     14  C   UNL     1       1.923   7.835  18.291  0.00  0.00    +0.000 A 
ENDBRANCH   2   4
BRANCH   1  15
ATOM     15  C   UNL     1       4.917   5.953  17.612  0.00  0.00    +0.000 C 
ATOM     16  C   UNL     1       5.827   5.677  18.816  0.00  0.00    +0.000 C 
ATOM     17  C   UNL     1       6.869   4.587  18.586  0.00  0.00    +0.000 C 
ATOM     18  C   UNL     1       7.605   4.712  17.255  0.00  0.00    +0.000 C 
ATOM     19  C   UNL     1       6.720   5.013  16.045  0.00  0.00    +0.000 C 
ATOM     20  C   UNL     1       5.700   6.111  16.306  0.00  0.00    +0.000 C 
ENDBRANCH   1  15
BRANCH   1  21
ATOM     21  C   UNL     1       3.924   3.692  16.861  0.00  0.00    +0.000 C 
BRANCH  21  23
ATOM     22  C   UNL     1       3.635   1.754  18.895  0.00  0.00    +0.000 C 
ATOM     23  C   UNL     1       3.768   2.648  17.956  0.00  0.00    +0.000 C 
ENDBRANCH  21  23
ENDBRANCH   1  21
TORSDOF 4
ENDMDL
MODEL 5
REMARK VINA RESULT:      -7.3      1.289      1.674
REMARK  Name = 
REMARK  4 active torsions:
REMARK  status: ('A' for Active; 'I' for Inactive)
REMARK    1  A    between atoms: C_2  and  C_3
REMARK    2  A    between atoms: C_3  and  N_4
REMARK    3  A    between atoms: N_4  and  C_18
REMARK    4  A    between atoms: C_5  and  C_7
REMARK                            x       y       z     vdW  Elec       q    Type
REMARK                         _______ _______ _______ _____ _____    ______ ____
ROOT
ATOM      1  N   UNL     1       3.683   4.797  17.817  0.00  0.00    +0.000 N 
ATOM      2  C   UNL     1       3.968   6.113  18.275  0.00  0.00    +0.000 C 
ATOM      3  O   UNL     1       5.129   6.461  18.509  0.00  0.00    +0.000 OA
ENDROOT
BRANCH   2   4
ATOM      4  C   UNL     1       2.921   7.183  18.492  0.00  0.00    +0.000 A 
ATOM      5  C   UNL     1       2.525   8.136  17.560  0.00  0.00    +0.000 A 
ATOM      6  C   UNL     1       1.588   9.134  17.908  0.00  0.00    +0.000 A 
ATOM      7  C   UNL     1       1.110   9.260  19.213  0.00  0.00    +0.000 A 
ATOM      8  N   UNL     1       0.248  10.295  19.554  0.00  0.00    +0.000 N 
ATOM      9  C   UNL     1      -0.122  10.522  20.948  0.00  0.00    +0.000 C 
ATOM     10  C   UNL     1      -1.015  11.763  20.858  0.00  0.00    +0.000 C 
ATOM     11  C   UNL     1      -0.342  12.596  19.780  0.00  0.00    +0.000 C 
ATOM     12  C   UNL     1       0.287  11.570  18.834  0.00  0.00    +0.000 C 
ATOM     13  N   UNL     1       1.491   8.352  20.135  0.00  0.00    +0.000 NA
ATOM     14  C   UNL     1       2.374   7.362  19.768  0.00  0.00    +0.000 A 
ENDBRANCH   2   4
BRANCH   1  15
ATOM     15  C   UNL     1       2.322   4.209  17.810  0.00  0.00    +0.000 C 
ATOM     16  C   UNL     1       2.272   2.717  17.457  0.00  0.00    +0.000 C 
ATOM     17  C   UNL     1       2.520   1.779  18.634  0.00  0.00    +0.000 C 
ATOM     18  C   UNL     1       1.743   2.155  19.893  0.00  0.00    +0.000 C 
ATOM     19  C   UNL     1       1.757   3.642  20.249  0.00  0.00    +0.000 C 
ATOM     20  C   UNL     1       1.497   4.547  19.054  0.00  0.00    +0.000 C 
ENDBRANCH   1  15
BRANCH   1  21
ATOM     21  C   UNL     1       4.850   3.956  17.358  0.00  0.00    +0.000 C 
BRANCH  21  23
ATOM     22  C   UNL     1       5.510   4.787  14.741  0.00  0.00    +0.000 C 
ATOM     23  C   UNL     1       5.206   4.404  15.949  0.00  0.00    +0.000 C 
ENDBRANCH  21  23
ENDBRANCH   1  21
TORSDOF 4
ENDMDL
MODEL 6
REMARK VINA RESULT:      -7.0      1.719      3.421
REMARK  Name = 
REMARK  4 active torsions:
REMARK  status: ('A' for Active; 'I' for Inactive)
REMARK    1  A    between atoms: C_2  and  C_3
REMARK    2  A    between atoms: C_3  and  N_4
REMARK    3  A    between atoms: N_4  and  C_18
REMARK    4  A    between atoms: C_5  and  C_7
REMARK                            x       y       z     vdW  Elec       q    Type
REMARK                         _______ _______ _______ _____ _____    ______ ____
ROOT
ATOM      1  N   UNL     1       4.156   4.943  19.086  0.00  0.00    +0.000 N 
ATOM      2  C   UNL     1       2.880   5.269  19.623  0.00  0.00    +0.000 C 
ATOM      3  O   UNL     1       2.121   4.383  20.028  0.00  0.00    +0.000 OA
ENDROOT
BRANCH   2   4
ATOM      4  C   UNL     1       2.353   6.680  19.768  0.00  0.00    +0.000 A 
ATOM      5  C   UNL     1       1.766   7.216  20.908  0.00  0.00    +0.000 A 
ATOM      6  C   UNL     1       1.243   8.528  20.896  0.00  0.00    +0.000 A 
ATOM      7  C   UNL     1       1.205   9.286  19.724  0.00  0.00    +0.000 A 
ATOM      8  N   UNL     1       0.617  10.545  19.715  0.00  0.00    +0.000 N 
ATOM      9  C   UNL     1       0.434  11.267  18.459  0.00  0.00    +0.000 C 
ATOM     10  C   UNL     1      -0.281  12.543  18.909  0.00  0.00    +0.000 C 
ATOM     11  C   UNL     1      -1.210  12.051  20.007  0.00  0.00    +0.000 C 
ATOM     12  C   UNL     1      -0.468  10.871  20.641  0.00  0.00    +0.000 C 
ATOM     13  N   UNL     1       1.761   8.779  18.605  0.00  0.00    +0.000 NA
ATOM     14  C   UNL     1       2.302   7.514  18.645  0.00  0.00    +0.000 A 
ENDBRANCH   2   4
BRANCH   1  15
ATOM     15  C   UNL     1       4.984   5.895  18.307  0.00  0.00    +0.000 C 
ATOM     16  C   UNL     1       6.490   5.808  18.586  0.00  0.00    +0.000 C 
ATOM     17  C   UNL     1       7.221   4.734  17.786  0.00  0.00    +0.000 C 
ATOM     18  C   UNL     1       6.852   4.714  16.305  0.00  0.00    +0.000 C 
ATOM     19  C   UNL     1       5.357   4.827  16.004  0.00  0.00    +0.000 C 
ATOM     20  C   UNL     1       4.662   5.913  16.811  0.00  0.00    +0.000 C 
ENDBRANCH   1  15
BRANCH   1  21
ATOM     21  C   UNL     1       4.655   3.534  19.294  0.00  0.00    +0.000 C 
BRANCH  21  23
ATOM     22  C   UNL     1       3.079   1.836  17.679  0.00  0.00    +0.000 C 
ATOM     23  C   UNL     1       3.806   2.619  18.425  0.00  0.00    +0.000 C 
ENDBRANCH  21  23
ENDBRANCH   1  21
TORSDOF 4
ENDMDL
MODEL 7
REMARK VINA RESULT:      -6.9      4.046      6.157
REMARK  Name = 
REMARK  4 active torsions:
REMARK  status: ('A' for Active; 'I' for Inactive)
REMARK    1  A    between atoms: C_2  and  C_3
REMARK    2  A    between atoms: C_3  and  N_4
REMARK    3  A    between atoms: N_4  and  C_18
REMARK    4  A    between atoms: C_5  and  C_7
REMARK                            x       y       z     vdW  Elec       q    Type
REMARK                         _______ _______ _______ _____ _____    ______ ____
ROOT
ATOM      1  N   UNL     1       4.513   4.786  17.411  0.00  0.00    +0.000 N 
ATOM      2  C   UNL     1       5.918   4.832  17.199  0.00  0.00    +0.000 C 
ATOM      3  O   UNL     1       6.512   3.870  16.701  0.00  0.00    +0.000 OA
ENDROOT
BRANCH   2   4
ATOM      4  C   UNL     1       6.791   6.023  17.530  0.00  0.00    +0.000 A 
ATOM      5  C   UNL     1       7.672   6.114  18.602  0.00  0.00    +0.000 A 
ATOM      6  C   UNL     1       8.378   7.312  18.849  0.00  0.00    +0.000 A 
ATOM      7  C   UNL     1       8.143   8.465  18.098  0.00  0.00    +0.000 A 
ATOM      8  N   UNL     1       8.791   9.655  18.405  0.00  0.00    +0.000 N 
ATOM      9  C   UNL     1       8.426  10.895  17.726  0.00  0.00    +0.000 C 
ATOM     10  C   UNL     1       9.332  11.925  18.403  0.00  0.00    +0.000 C 
ATOM     11  C   UNL     1       9.358  11.465  19.852  0.00  0.00    +0.000 C 
ATOM     12  C   UNL     1       9.214   9.943  19.777  0.00  0.00    +0.000 C 
ATOM     13  N   UNL     1       7.283   8.399  17.060  0.00  0.00    +0.000 NA
ATOM     14  C   UNL     1       6.633   7.212  16.809  0.00  0.00    +0.000 A 
ENDBRANCH   2   4
BRANCH   1  15
ATOM     15  C   UNL     1       3.783   5.749  18.270  0.00  0.00    +0.000 C 
ATOM     16  C   UNL     1       2.299   5.920  17.919  0.00  0.00    +0.000 C 
ATOM     17  C   UNL     1       1.376   4.878  18.542  0.00  0.00    +0.000 C 
ATOM     18  C   UNL     1       1.648   4.623  20.022  0.00  0.00    +0.000 C 
ATOM     19  C   UNL     1       3.123   4.476  20.399  0.00  0.00    +0.000 C 
ATOM     20  C   UNL     1       4.012   5.537  19.768  0.00  0.00    +0.000 C 
ENDBRANCH   1  15
BRANCH   1  21
ATOM     21  C   UNL     1       3.750   3.664  16.750  0.00  0.00    +0.000 C 
BRANCH  21  23
ATOM     22  C   UNL     1       3.773   1.468  18.526  0.00  0.00    +0.000 C 
ATOM     23  C   UNL     1       3.763   2.482  17.706  0.00  0.00    +0.000 C 
ENDBRANCH  21  23
ENDBRANCH   1  21
TORSDOF 4
ENDMDL
MODEL 8
REMARK VINA RESULT:      -6.9      2.987      7.932
REMARK  Name = 
REMARK  4 active torsions:
REMARK  status: ('A' for Active; 'I' for Inactive)
REMARK    1  A    between atoms: C_2  and  C_3
REMARK    2  A    between atoms: C_3  and  N_4
REMARK    3  A    between atoms: N_4  and  C_18
REMARK    4  A    between atoms: C_5  and  C_7
REMARK                            x       y       z     vdW  Elec       q    Type
REMARK                         _______ _______ _______ _____ _____    ______ ____
ROOT
ATOM      1  N   UNL     1      -1.225  11.256  18.761  0.00  0.00    +0.000 N 
ATOM      2  C   UNL     1       0.182  11.206  18.960  0.00  0.00    +0.000 C 
ATOM      3  O   UNL     1       0.822  12.234  19.202  0.00  0.00    +0.000 OA
ENDROOT
BRANCH   2   4
ATOM      4  C   UNL     1       1.002   9.935  18.919  0.00  0.00    +0.000 A 
ATOM      5  C   UNL     1       1.639   9.413  17.799  0.00  0.00    +0.000 A 
ATOM      6  C   UNL     1       2.315   8.174  17.871  0.00  0.00    +0.000 A 
ATOM      7  C   UNL     1       2.281   7.392  19.026  0.00  0.00    +0.000 A 
ATOM      8  N   UNL     1       2.887   6.141  19.052  0.00  0.00    +0.000 N 
ATOM      9  C   UNL     1       2.713   5.258  20.201  0.00  0.00    +0.000 C 
ATOM     10  C   UNL     1       3.488   4.007  19.780  0.00  0.00    +0.000 C 
ATOM     11  C   UNL     1       3.192   3.900  18.293  0.00  0.00    +0.000 C 
ATOM     12  C   UNL     1       3.020   5.349  17.828  0.00  0.00    +0.000 C 
ATOM     13  N   UNL     1       1.658   7.876  20.120  0.00  0.00    +0.000 NA
ATOM     14  C   UNL     1       1.039   9.103  20.045  0.00  0.00    +0.000 A 
ENDBRANCH   2   4
BRANCH   1  15
ATOM     15  C   UNL     1      -2.009  10.145  18.171  0.00  0.00    +0.000 C 
ATOM     16  C   UNL     1      -3.498  10.150  18.536  0.00  0.00    +0.000 C 
ATOM     17  C   UNL     1      -4.364  11.044  17.654  0.00  0.00    +0.000 C 
ATOM     18  C   UNL     1      -4.082  10.892  16.162  0.00  0.00    +0.000 C 
ATOM     19  C   UNL     1      -2.602  10.857  15.778  0.00  0.00    +0.000 C 
ATOM     20  C   UNL     1      -1.771   9.950  16.672  0.00  0.00    +0.000 C 
ENDBRANCH   1  15
BRANCH   1  21
ATOM     21  C   UNL     1      -1.931  12.536  19.138  0.00  0.00    +0.000 C 
BRANCH  21  23
ATOM     22  C   UNL     1      -2.362  12.470  21.928  0.00  0.00    +0.000 C 
ATOM     23  C   UNL     1      -2.164  12.501  20.640  0.00  0.00    +0.000 C 
ENDBRANCH  21  23
ENDBRANCH   1  21
TORSDOF 4
ENDMDL
MODEL 9
REMARK VINA RESULT:      -6.8      1.663      2.274
REMARK  Name = 
REMARK  4 active torsions:
REMARK  status: ('A' for Active; 'I' for Inactive)
REMARK    1  A    between atoms: C_2  and  C_3
REMARK    2  A    between atoms: C_3  and  N_4
REMARK    3  A    between atoms: N_4  and  C_18
REMARK    4  A    between atoms: C_5  and  C_7
REMARK                            x       y       z     vdW  Elec       q    Type
REMARK                         _______ _______ _______ _____ _____    ______ ____
ROOT
ATOM      1  N   UNL     1       3.147   5.339  19.470  0.00  0.00    +0.000 N 
ATOM      2  C   UNL     1       3.287   6.593  18.813  0.00  0.00    +0.000 C 
ATOM      3  O   UNL     1       4.274   6.830  18.110  0.00  0.00    +0.000 OA
ENDROOT
BRANCH   2   4
ATOM      4  C   UNL     1       2.270   7.710  18.888  0.00  0.00    +0.000 A 
ATOM      5  C   UNL     1       1.856   8.507  17.827  0.00  0.00    +0.000 A 
ATOM      6  C   UNL     1       0.953   9.572  18.039  0.00  0.00    +0.000 A 
ATOM      7  C   UNL     1       0.528   9.922  19.322  0.00  0.00    +0.000 A 
ATOM      8  N   UNL     1      -0.300  11.021  19.517  0.00  0.00    +0.000 N 
ATOM      9  C   UNL     1      -0.612  11.482  20.868  0.00  0.00    +0.000 C 
ATOM     10  C   UNL     1      -1.483  12.713  20.606  0.00  0.00    +0.000 C 
ATOM     11  C   UNL     1      -0.837  13.341  19.382  0.00  0.00    +0.000 C 
ATOM     12  C   UNL     1      -0.264  12.159  18.597  0.00  0.00    +0.000 C 
ATOM     13  N   UNL     1       0.927   9.167  20.366  0.00  0.00    +0.000 NA
ATOM     14  C   UNL     1       1.776   8.109  20.136  0.00  0.00    +0.000 A 
ENDBRANCH   2   4
BRANCH   1  15
ATOM     15  C   UNL     1       2.171   5.090  20.559  0.00  0.00    +0.000 C 
ATOM     16  C   UNL     1       0.790   4.622  20.083  0.00  0.00    +0.000 C 
ATOM     17  C   UNL     1       0.681   3.122  19.830  0.00  0.00    +0.000 C 
ATOM     18  C   UNL     1       1.288   2.266  20.938  0.00  0.00    +0.000 C 
ATOM     19  C   UNL     1       2.654   2.730  21.447  0.00  0.00    +0.000 C 
ATOM     20  C   UNL     1       2.724   4.229  21.697  0.00  0.00    +0.000 C 
ENDBRANCH   1  15
BRANCH   1  21
ATOM     21  C   UNL     1       4.082   4.231  19.051  0.00  0.00    +0.000 C 
BRANCH  21  23
ATOM     22  C   UNL     1       2.898   2.920  16.847  0.00  0.00    +0.000 C 
ATOM     23  C   UNL     1       3.445   3.525  17.864  0.00  0.00    +0.000 C 
ENDBRANCH  21  23
ENDBRANCH   1  21
TORSDOF 4
ENDMDL
