MODEL 1
REMARK VINA RESULT:      -7.3      0.000      0.000
REMARK  Name = 
REMARK  10 active torsions:
REMARK  status: ('A' for Active; 'I' for Inactive)
REMARK    1  A    between atoms: C_1  and  C_2
REMARK    2  A    between atoms: C_2  and  C_3
REMARK    3  A    between atoms: C_3  and  C_4
REMARK    4  A    between atoms: C_4  and  C_5
REMARK    5  A    between atoms: C_5  and  C_6
REMARK    6  A    between atoms: C_6  and  C_7
REMARK    7  A    between atoms: C_7  and  N_8
REMARK    8  A    between atoms: C_14  and  C_15
REMARK    9  A    between atoms: C_15  and  C_16
REMARK   10  A    between atoms: C_16  and  C_17
REMARK                            x       y       z     vdW  Elec       q    Type
REMARK                         _______ _______ _______ _____ _____    ______ ____
ROOT
ATOM      1  N   UNL     1       3.760   3.502  18.021  0.00  0.00    +0.000 N 
ATOM      2  C   UNL     1       4.388   3.224  19.400  0.00  0.00    +0.000 C 
ATOM      3  C   UNL     1       3.303   2.797  20.385  0.00  0.00    +0.000 C 
ATOM      4  C   UNL     1       1.918   2.899  19.741  0.00  0.00    +0.000 C 
ATOM      5  C   UNL     1       1.889   1.928  18.554  0.00  0.00    +0.000 C 
ATOM      6  C   UNL     1       2.984   2.266  17.542  0.00  0.00    +0.000 C 
ATOM      7  C   UNL     1       1.683   4.325  19.197  0.00  0.00    +0.000 C 
ATOM      8  C   UNL     1       2.770   4.674  18.167  0.00  0.00    +0.000 C 
ENDROOT
BRANCH   1   9
ATOM      9  C   UNL     1       4.830   3.937  16.994  0.00  0.00    +0.000 C 
BRANCH   9  10
ATOM     10  C   UNL     1       4.690   5.397  16.581  0.00  0.00    +0.000 C 
BRANCH  10  11
ATOM     11  C   UNL     1       5.418   6.340  17.537  0.00  0.00    +0.000 C 
BRANCH  11  12
ATOM     12  C   UNL     1       6.751   5.706  17.934  0.00  0.00    +0.000 C 
BRANCH  12  13
ATOM     13  C   UNL     1       7.804   6.750  18.276  0.00  0.00    +0.000 C 
BRANCH  13  15
ATOM     14  C   UNL     1       8.375   9.191  18.080  0.00  0.00    +0.000 C 
ATOM     15  C   UNL     1       7.507   8.063  17.551  0.00  0.00    +0.000 C 
ENDBRANCH  13  15
ENDBRANCH  12  13
ENDBRANCH  11  12
ENDBRANCH  10  11
ENDBRANCH   9  10
ENDBRANCH   1   9
BRANCH   7  16
ATOM     16  C   UNL     1       1.594   5.377  20.319  0.00  0.00    +0.000 C 
BRANCH  16  17
ATOM     17  C   UNL     1       2.618   6.508  20.153  0.00  0.00    +0.000 C 
BRANCH  17  18
ATOM     18  C   UNL     1       1.952   7.807  19.787  0.00  0.00    +0.000 A 
ATOM     19  C   UNL     1       1.158   8.489  20.722  0.00  0.00    +0.000 A 
ATOM     20  C   UNL     1       0.557   9.702  20.382  0.00  0.00    +0.000 A 
ATOM     21  C   UNL     1       0.735  10.229  19.105  0.00  0.00    +0.000 A 
ATOM     22 CL   UNL     1       0.004  11.730  18.689  0.00  0.00    +0.000 Cl
ATOM     23  C   UNL     1       1.508   9.554  18.164  0.00  0.00    +0.000 A 
ATOM     24  C   UNL     1       2.111   8.343  18.504  0.00  0.00    +0.000 A 
ENDBRANCH  17  18
ENDBRANCH  16  17
ENDBRANCH   7  16
TORSDOF 9
ENDMDL
MODEL 2
REMARK VINA RESULT:      -7.3      1.508      2.089
REMARK  Name = 
REMARK  10 active torsions:
REMARK  status: ('A' for Active; 'I' for Inactive)
REMARK    1  A    between atoms: C_1  and  C_2
REMARK    2  A    between atoms: C_2  and  C_3
REMARK    3  A    between atoms: C_3  and  C_4
REMARK    4  A    between atoms: C_4  and  C_5
REMARK    5  A    between atoms: C_5  and  C_6
REMARK    6  A    between atoms: C_6  and  C_7
REMARK    7  A    between atoms: C_7  and  N_8
REMARK    8  A    between atoms: C_14  and  C_15
REMARK    9  A    between atoms: C_15  and  C_16
REMARK   10  A    between atoms: C_16  and  C_17
REMARK                            x       y       z     vdW  Elec       q    Type
REMARK                         _______ _______ _______ _____ _____    ______ ____
ROOT
ATOM      1  N   UNL     1       3.176   3.351  18.898  0.00  0.00    +0.000 N 
ATOM      2  C   UNL     1       3.410   2.974  20.373  0.00  0.00    +0.000 C 
ATOM      3  C   UNL     1       2.113   3.140  21.161  0.00  0.00    +0.000 C 
ATOM      4  C   UNL     1       1.020   3.749  20.280  0.00  0.00    +0.000 C 
ATOM      5  C   UNL     1       0.754   2.766  19.131  0.00  0.00    +0.000 C 
ATOM      6  C   UNL     1       2.025   2.513  18.321  0.00  0.00    +0.000 C 
ATOM      7  C   UNL     1       1.504   5.080  19.666  0.00  0.00    +0.000 C 
ATOM      8  C   UNL     1       2.776   4.838  18.837  0.00  0.00    +0.000 C 
ENDROOT
BRANCH   1   9
ATOM      9  C   UNL     1       4.469   3.194  18.067  0.00  0.00    +0.000 C 
BRANCH   9  10
ATOM     10  C   UNL     1       4.486   4.084  16.831  0.00  0.00    +0.000 C 
BRANCH  10  11
ATOM     11  C   UNL     1       5.734   3.868  15.978  0.00  0.00    +0.000 C 
BRANCH  11  12
ATOM     12  C   UNL     1       6.737   4.979  16.285  0.00  0.00    +0.000 C 
BRANCH  12  13
ATOM     13  C   UNL     1       7.530   4.704  17.555  0.00  0.00    +0.000 C 
BRANCH  13  15
ATOM     14  C   UNL     1       7.509   7.217  17.585  0.00  0.00    +0.000 C 
ATOM     15  C   UNL     1       7.591   5.958  18.427  0.00  0.00    +0.000 C 
ENDBRANCH  13  15
ENDBRANCH  12  13
ENDBRANCH  11  12
ENDBRANCH  10  11
ENDBRANCH   9  10
ENDBRANCH   1   9
BRANCH   7  16
ATOM     16  C   UNL     1       1.710   6.178  20.727  0.00  0.00    +0.000 C 
BRANCH  16  17
ATOM     17  C   UNL     1       1.915   7.567  20.110  0.00  0.00    +0.000 C 
BRANCH  17  18
ATOM     18  C   UNL     1       1.107   8.616  20.826  0.00  0.00    +0.000 A 
ATOM     19  C   UNL     1       1.006   8.606  22.225  0.00  0.00    +0.000 A 
ATOM     20  C   UNL     1       0.269   9.591  22.885  0.00  0.00    +0.000 A 
ATOM     21  C   UNL     1      -0.380  10.579  22.148  0.00  0.00    +0.000 A 
ATOM     22 CL   UNL     1      -1.279  11.800  22.961  0.00  0.00    +0.000 Cl
ATOM     23  C   UNL     1      -0.300  10.590  20.758  0.00  0.00    +0.000 A 
ATOM     24  C   UNL     1       0.438   9.608  20.098  0.00  0.00    +0.000 A 
ENDBRANCH  17  18
ENDBRANCH  16  17
ENDBRANCH   7  16
TORSDOF 9
ENDMDL
MODEL 3
REMARK VINA RESULT:      -7.2      1.539      4.634
REMARK  Name = 
REMARK  10 active torsions:
REMARK  status: ('A' for Active; 'I' for Inactive)
REMARK    1  A    between atoms: C_1  and  C_2
REMARK    2  A    between atoms: C_2  and  C_3
REMARK    3  A    between atoms: C_3  and  C_4
REMARK    4  A    between atoms: C_4  and  C_5
REMARK    5  A    between atoms: C_5  and  C_6
REMARK    6  A    between atoms: C_6  and  C_7
REMARK    7  A    between atoms: C_7  and  N_8
REMARK    8  A    between atoms: C_14  and  C_15
REMARK    9  A    between atoms: C_15  and  C_16
REMARK   10  A    between atoms: C_16  and  C_17
REMARK                            x       y       z     vdW  Elec       q    Type
REMARK                         _______ _______ _______ _____ _____    ______ ____
ROOT
ATOM      1  N   UNL     1       5.004   4.361  17.966  0.00  0.00    +0.000 N 
ATOM      2  C   UNL     1       4.565   4.366  16.490  0.00  0.00    +0.000 C 
ATOM      3  C   UNL     1       5.125   5.599  15.787  0.00  0.00    +0.000 C 
ATOM      4  C   UNL     1       5.838   6.513  16.786  0.00  0.00    +0.000 C 
ATOM      5  C   UNL     1       7.018   5.724  17.372  0.00  0.00    +0.000 C 
ATOM      6  C   UNL     1       6.536   4.444  18.055  0.00  0.00    +0.000 C 
ATOM      7  C   UNL     1       4.890   6.883  17.946  0.00  0.00    +0.000 C 
ATOM      8  C   UNL     1       4.407   5.605  18.652  0.00  0.00    +0.000 C 
ENDROOT
BRANCH   1   9
ATOM      9  C   UNL     1       4.456   3.124  18.712  0.00  0.00    +0.000 C 
BRANCH   9  10
ATOM     10  C   UNL     1       3.619   2.220  17.815  0.00  0.00    +0.000 C 
BRANCH  10  11
ATOM     11  C   UNL     1       2.184   2.075  18.316  0.00  0.00    +0.000 C 
BRANCH  11  12
ATOM     12  C   UNL     1       1.578   3.469  18.480  0.00  0.00    +0.000 C 
BRANCH  12  13
ATOM     13  C   UNL     1       0.761   3.594  19.758  0.00  0.00    +0.000 C 
BRANCH  13  15
ATOM     14  C   UNL     1       2.116   3.094  21.816  0.00  0.00    +0.000 C 
ATOM     15  C   UNL     1       1.616   4.181  20.881  0.00  0.00    +0.000 C 
ENDBRANCH  13  15
ENDBRANCH  12  13
ENDBRANCH  11  12
ENDBRANCH  10  11
ENDBRANCH   9  10
ENDBRANCH   1   9
BRANCH   7  16
ATOM     16  C   UNL     1       3.713   7.766  17.487  0.00  0.00    +0.000 C 
BRANCH  16  17
ATOM     17  C   UNL     1       2.357   7.254  17.989  0.00  0.00    +0.000 C 
BRANCH  17  18
ATOM     18  C   UNL     1       1.764   8.177  19.020  0.00  0.00    +0.000 A 
ATOM     19  C   UNL     1       1.241   9.423  18.643  0.00  0.00    +0.000 A 
ATOM     20  C   UNL     1       0.677  10.268  19.601  0.00  0.00    +0.000 A 
ATOM     21  C   UNL     1       0.648   9.877  20.937  0.00  0.00    +0.000 A 
ATOM     22 CL   UNL     1      -0.057  10.912  22.116  0.00  0.00    +0.000 Cl
ATOM     23  C   UNL     1       1.179   8.649  21.326  0.00  0.00    +0.000 A 
ATOM     24  C   UNL     1       1.740   7.804  20.369  0.00  0.00    +0.000 A 
ENDBRANCH  17  18
ENDBRANCH  16  17
ENDBRANCH   7  16
TORSDOF 9
ENDMDL
MODEL 4
REMARK VINA RESULT:      -7.1      2.972      4.470
REMARK  Name = 
REMARK  10 active torsions:
REMARK  status: ('A' for Active; 'I' for Inactive)
REMARK    1  A    between atoms: C_1  and  C_2
REMARK    2  A    between atoms: C_2  and  C_3
REMARK    3  A    between atoms: C_3  and  C_4
REMARK    4  A    between atoms: C_4  and  C_5
REMARK    5  A    between atoms: C_5  and  C_6
REMARK    6  A    between atoms: C_6  and  C_7
REMARK    7  A    between atoms: C_7  and  N_8
REMARK    8  A    between atoms: C_14  and  C_15
REMARK    9  A    between atoms: C_15  and  C_16
REMARK   10  A    between atoms: C_16  and  C_17
REMARK                            x       y       z     vdW  Elec       q    Type
REMARK                         _______ _______ _______ _____ _____    ______ ____
ROOT
ATOM      1  N   UNL     1       5.717   4.783  16.744  0.00  0.00    +0.000 N 
ATOM      2  C   UNL     1       6.450   5.197  18.034  0.00  0.00    +0.000 C 
ATOM      3  C   UNL     1       5.455   5.287  19.188  0.00  0.00    +0.000 C 
ATOM      4  C   UNL     1       4.026   5.066  18.687  0.00  0.00    +0.000 C 
ATOM      5  C   UNL     1       3.954   3.646  18.109  0.00  0.00    +0.000 C 
ATOM      6  C   UNL     1       4.961   3.466  16.973  0.00  0.00    +0.000 C 
ATOM      7  C   UNL     1       3.695   6.060  17.553  0.00  0.00    +0.000 C 
ATOM      8  C   UNL     1       4.692   5.881  16.397  0.00  0.00    +0.000 C 
ENDROOT
BRANCH   1   9
ATOM      9  C   UNL     1       6.694   4.680  15.551  0.00  0.00    +0.000 C 
BRANCH   9  10
ATOM     10  C   UNL     1       6.218   3.705  14.483  0.00  0.00    +0.000 C 
BRANCH  10  11
ATOM     11  C   UNL     1       6.756   4.055  13.097  0.00  0.00    +0.000 C 
BRANCH  11  12
ATOM     12  C   UNL     1       5.956   3.283  12.049  0.00  0.00    +0.000 C 
BRANCH  12  13
ATOM     13  C   UNL     1       4.465   3.577  12.133  0.00  0.00    +0.000 C 
BRANCH  13  15
ATOM     14  C   UNL     1       3.190   4.099  10.030  0.00  0.00    +0.000 C 
ATOM     15  C   UNL     1       3.738   2.998  10.920  0.00  0.00    +0.000 C 
ENDBRANCH  13  15
ENDBRANCH  12  13
ENDBRANCH  11  12
ENDBRANCH  10  11
ENDBRANCH   9  10
ENDBRANCH   1   9
BRANCH   7  16
ATOM     16  C   UNL     1       3.641   7.519  18.045  0.00  0.00    +0.000 C 
BRANCH  16  17
ATOM     17  C   UNL     1       2.292   8.191  17.762  0.00  0.00    +0.000 C 
BRANCH  17  18
ATOM     18  C   UNL     1       1.618   8.636  19.032  0.00  0.00    +0.000 A 
ATOM     19  C   UNL     1       1.680   7.842  20.187  0.00  0.00    +0.000 A 
ATOM     20  C   UNL     1       1.068   8.268  21.367  0.00  0.00    +0.000 A 
ATOM     21  C   UNL     1       0.380   9.479  21.391  0.00  0.00    +0.000 A 
ATOM     22 CL   UNL     1      -0.365  10.010  22.849  0.00  0.00    +0.000 Cl
ATOM     23  C   UNL     1       0.298  10.268  20.247  0.00  0.00    +0.000 A 
ATOM     24  C   UNL     1       0.912   9.844  19.068  0.00  0.00    +0.000 A 
ENDBRANCH  17  18
ENDBRANCH  16  17
ENDBRANCH   7  16
TORSDOF 9
ENDMDL
MODEL 5
REMARK VINA RESULT:      -7.1      2.590      3.925
REMARK  Name = 
REMARK  10 active torsions:
REMARK  status: ('A' for Active; 'I' for Inactive)
REMARK    1  A    between atoms: C_1  and  C_2
REMARK    2  A    between atoms: C_2  and  C_3
REMARK    3  A    between atoms: C_3  and  C_4
REMARK    4  A    between atoms: C_4  and  C_5
REMARK    5  A    between atoms: C_5  and  C_6
REMARK    6  A    between atoms: C_6  and  C_7
REMARK    7  A    between atoms: C_7  and  N_8
REMARK    8  A    between atoms: C_14  and  C_15
REMARK    9  A    between atoms: C_15  and  C_16
REMARK   10  A    between atoms: C_16  and  C_17
REMARK                            x       y       z     vdW  Elec       q    Type
REMARK                         _______ _______ _______ _____ _____    ______ ____
ROOT
ATOM      1  N   UNL     1       4.658   4.664  17.834  0.00  0.00    +0.000 N 
ATOM      2  C   UNL     1       4.694   4.821  19.366  0.00  0.00    +0.000 C 
ATOM      3  C   UNL     1       3.298   5.157  19.884  0.00  0.00    +0.000 C 
ATOM      4  C   UNL     1       2.325   5.360  18.720  0.00  0.00    +0.000 C 
ATOM      5  C   UNL     1       2.239   4.034  17.953  0.00  0.00    +0.000 C 
ATOM      6  C   UNL     1       3.615   3.607  17.442  0.00  0.00    +0.000 C 
ATOM      7  C   UNL     1       2.863   6.437  17.753  0.00  0.00    +0.000 C 
ATOM      8  C   UNL     1       4.241   6.014  17.220  0.00  0.00    +0.000 C 
ENDROOT
BRANCH   1   9
ATOM      9  C   UNL     1       6.057   4.322  17.272  0.00  0.00    +0.000 C 
BRANCH   9  10
ATOM     10  C   UNL     1       6.332   4.991  15.932  0.00  0.00    +0.000 C 
BRANCH  10  11
ATOM     11  C   UNL     1       6.297   3.999  14.772  0.00  0.00    +0.000 C 
BRANCH  11  12
ATOM     12  C   UNL     1       6.751   4.715  13.500  0.00  0.00    +0.000 C 
BRANCH  12  13
ATOM     13  C   UNL     1       6.879   3.761  12.320  0.00  0.00    +0.000 C 
BRANCH  13  15
ATOM     14  C   UNL     1       5.686   1.780  11.335  0.00  0.00    +0.000 C 
ATOM     15  C   UNL     1       5.522   3.141  11.987  0.00  0.00    +0.000 C 
ENDBRANCH  13  15
ENDBRANCH  12  13
ENDBRANCH  11  12
ENDBRANCH  10  11
ENDBRANCH   9  10
ENDBRANCH   1   9
BRANCH   7  16
ATOM     16  C   UNL     1       2.898   7.839  18.391  0.00  0.00    +0.000 C 
BRANCH  16  17
ATOM     17  C   UNL     1       1.647   8.667  18.072  0.00  0.00    +0.000 C 
BRANCH  17  18
ATOM     18  C   UNL     1       0.999   9.195  19.323  0.00  0.00    +0.000 A 
ATOM     19  C   UNL     1       0.124  10.290  19.265  0.00  0.00    +0.000 A 
ATOM     20  C   UNL     1      -0.488  10.765  20.426  0.00  0.00    +0.000 A 
ATOM     21  C   UNL     1      -0.215  10.157  21.650  0.00  0.00    +0.000 A 
ATOM     22 CL   UNL     1      -0.977  10.734  23.080  0.00  0.00    +0.000 Cl
ATOM     23  C   UNL     1       0.664   9.079  21.723  0.00  0.00    +0.000 A 
ATOM     24  C   UNL     1       1.273   8.603  20.562  0.00  0.00    +0.000 A 
ENDBRANCH  17  18
ENDBRANCH  16  17
ENDBRANCH   7  16
TORSDOF 9
ENDMDL
MODEL 6
REMARK VINA RESULT:      -7.0      3.042      4.954
REMARK  Name = 
REMARK  10 active torsions:
REMARK  status: ('A' for Active; 'I' for Inactive)
REMARK    1  A    between atoms: C_1  and  C_2
REMARK    2  A    between atoms: C_2  and  C_3
REMARK    3  A    between atoms: C_3  and  C_4
REMARK    4  A    between atoms: C_4  and  C_5
REMARK    5  A    between atoms: C_5  and  C_6
REMARK    6  A    between atoms: C_6  and  C_7
REMARK    7  A    between atoms: C_7  and  N_8
REMARK    8  A    between atoms: C_14  and  C_15
REMARK    9  A    between atoms: C_15  and  C_16
REMARK   10  A    between atoms: C_16  and  C_17
REMARK                            x       y       z     vdW  Elec       q    Type
REMARK                         _______ _______ _______ _____ _____    ______ ____
ROOT
ATOM      1  N   UNL     1       5.854   4.902  16.271  0.00  0.00    +0.000 N 
ATOM      2  C   UNL     1       5.677   6.421  16.451  0.00  0.00    +0.000 C 
ATOM      3  C   UNL     1       6.120   6.832  17.853  0.00  0.00    +0.000 C 
ATOM      4  C   UNL     1       6.480   5.600  18.687  0.00  0.00    +0.000 C 
ATOM      5  C   UNL     1       7.664   4.908  18.000  0.00  0.00    +0.000 C 
ATOM      6  C   UNL     1       7.309   4.507  16.568  0.00  0.00    +0.000 C 
ATOM      7  C   UNL     1       5.298   4.608  18.716  0.00  0.00    +0.000 C 
ATOM      8  C   UNL     1       4.938   4.186  17.282  0.00  0.00    +0.000 C 
ENDROOT
BRANCH   1   9
ATOM      9  C   UNL     1       5.416   4.448  14.860  0.00  0.00    +0.000 C 
BRANCH   9  10
ATOM     10  C   UNL     1       6.510   4.633  13.817  0.00  0.00    +0.000 C 
BRANCH  10  11
ATOM     11  C   UNL     1       6.537   3.496  12.798  0.00  0.00    +0.000 C 
BRANCH  11  12
ATOM     12  C   UNL     1       5.179   3.430  12.100  0.00  0.00    +0.000 C 
BRANCH  12  13
ATOM     13  C   UNL     1       5.039   2.186  11.234  0.00  0.00    +0.000 C 
BRANCH  13  15
ATOM     14  C   UNL     1       6.155  -0.066  11.282  0.00  0.00    +0.000 C 
ATOM     15  C   UNL     1       6.367   1.432  11.166  0.00  0.00    +0.000 C 
ENDBRANCH  13  15
ENDBRANCH  12  13
ENDBRANCH  11  12
ENDBRANCH  10  11
ENDBRANCH   9  10
ENDBRANCH   1   9
BRANCH   7  16
ATOM     16  C   UNL     1       4.078   5.165  19.475  0.00  0.00    +0.000 C 
BRANCH  16  17
ATOM     17  C   UNL     1       2.909   5.509  18.545  0.00  0.00    +0.000 C 
BRANCH  17  18
ATOM     18  C   UNL     1       2.341   6.870  18.851  0.00  0.00    +0.000 A 
ATOM     19  C   UNL     1       1.907   7.186  20.147  0.00  0.00    +0.000 A 
ATOM     20  C   UNL     1       1.397   8.454  20.429  0.00  0.00    +0.000 A 
ATOM     21  C   UNL     1       1.306   9.404  19.413  0.00  0.00    +0.000 A 
ATOM     22 CL   UNL     1       0.688  10.971  19.762  0.00  0.00    +0.000 Cl
ATOM     23  C   UNL     1       1.718   9.097  18.119  0.00  0.00    +0.000 A 
ATOM     24  C   UNL     1       2.230   7.830  17.838  0.00  0.00    +0.000 A 
ENDBRANCH  17  18
ENDBRANCH  16  17
ENDBRANCH   7  16
TORSDOF 9
ENDMDL
MODEL 7
REMARK VINA RESULT:      -7.0      3.107      5.126
REMARK  Name = 
REMARK  10 active torsions:
REMARK  status: ('A' for Active; 'I' for Inactive)
REMARK    1  A    between atoms: C_1  and  C_2
REMARK    2  A    between atoms: C_2  and  C_3
REMARK    3  A    between atoms: C_3  and  C_4
REMARK    4  A    between atoms: C_4  and  C_5
REMARK    5  A    between atoms: C_5  and  C_6
REMARK    6  A    between atoms: C_6  and  C_7
REMARK    7  A    between atoms: C_7  and  N_8
REMARK    8  A    between atoms: C_14  and  C_15
REMARK    9  A    between atoms: C_15  and  C_16
REMARK   10  A    between atoms: C_16  and  C_17
REMARK                            x       y       z     vdW  Elec       q    Type
REMARK                         _______ _______ _______ _____ _____    ______ ____
ROOT
ATOM      1  N   UNL     1       6.953   6.403  17.659  0.00  0.00    +0.000 N 
ATOM      2  C   UNL     1       6.640   5.595  18.932  0.00  0.00    +0.000 C 
ATOM      3  C   UNL     1       5.491   4.627  18.660  0.00  0.00    +0.000 C 
ATOM      4  C   UNL     1       4.921   4.846  17.257  0.00  0.00    +0.000 C 
ATOM      5  C   UNL     1       6.042   4.545  16.252  0.00  0.00    +0.000 C 
ATOM      6  C   UNL     1       7.251   5.448  16.493  0.00  0.00    +0.000 C 
ATOM      7  C   UNL     1       4.499   6.319  17.073  0.00  0.00    +0.000 C 
ATOM      8  C   UNL     1       5.709   7.239  17.299  0.00  0.00    +0.000 C 
ENDROOT
BRANCH   1   9
ATOM      9  C   UNL     1       8.114   7.395  17.895  0.00  0.00    +0.000 C 
BRANCH   9  10
ATOM     10  C   UNL     1       7.667   8.850  17.835  0.00  0.00    +0.000 C 
BRANCH  10  11
ATOM     11  C   UNL     1       8.842   9.821  17.928  0.00  0.00    +0.000 C 
BRANCH  11  12
ATOM     12  C   UNL     1       9.144  10.086  19.403  0.00  0.00    +0.000 C 
BRANCH  12  13
ATOM     13  C   UNL     1       9.843  11.422  19.615  0.00  0.00    +0.000 C 
BRANCH  13  15
ATOM     14  C   UNL     1      12.333  11.740  19.490  0.00  0.00    +0.000 C 
ATOM     15  C   UNL     1      11.057  11.540  18.693  0.00  0.00    +0.000 C 
ENDBRANCH  13  15
ENDBRANCH  12  13
ENDBRANCH  11  12
ENDBRANCH  10  11
ENDBRANCH   9  10
ENDBRANCH   1   9
BRANCH   7  16
ATOM     16  C   UNL     1       3.306   6.707  17.968  0.00  0.00    +0.000 C 
BRANCH  16  17
ATOM     17  C   UNL     1       2.082   5.809  17.747  0.00  0.00    +0.000 C 
BRANCH  17  18
ATOM     18  C   UNL     1       1.867   4.873  18.905  0.00  0.00    +0.000 A 
ATOM     19  C   UNL     1       2.307   5.218  20.192  0.00  0.00    +0.000 A 
ATOM     20  C   UNL     1       2.089   4.353  21.266  0.00  0.00    +0.000 A 
ATOM     21  C   UNL     1       1.445   3.136  21.054  0.00  0.00    +0.000 A 
ATOM     22 CL   UNL     1       1.165   2.075  22.379  0.00  0.00    +0.000 Cl
ATOM     23  C   UNL     1       1.017   2.776  19.779  0.00  0.00    +0.000 A 
ATOM     24  C   UNL     1       1.232   3.641  18.706  0.00  0.00    +0.000 A 
ENDBRANCH  17  18
ENDBRANCH  16  17
ENDBRANCH   7  16
TORSDOF 9
ENDMDL
MODEL 8
REMARK VINA RESULT:      -7.0      0.752      1.036
REMARK  Name = 
REMARK  10 active torsions:
REMARK  status: ('A' for Active; 'I' for Inactive)
REMARK    1  A    between atoms: C_1  and  C_2
REMARK    2  A    between atoms: C_2  and  C_3
REMARK    3  A    between atoms: C_3  and  C_4
REMARK    4  A    between atoms: C_4  and  C_5
REMARK    5  A    between atoms: C_5  and  C_6
REMARK    6  A    between atoms: C_6  and  C_7
REMARK    7  A    between atoms: C_7  and  N_8
REMARK    8  A    between atoms: C_14  and  C_15
REMARK    9  A    between atoms: C_15  and  C_16
REMARK   10  A    between atoms: C_16  and  C_17
REMARK                            x       y       z     vdW  Elec       q    Type
REMARK                         _______ _______ _______ _____ _____    ______ ____
ROOT
ATOM      1  N   UNL     1       3.057   3.281  18.110  0.00  0.00    +0.000 N 
ATOM      2  C   UNL     1       4.096   3.169  19.241  0.00  0.00    +0.000 C 
ATOM      3  C   UNL     1       3.387   2.959  20.576  0.00  0.00    +0.000 C 
ATOM      4  C   UNL     1       1.869   3.052  20.402  0.00  0.00    +0.000 C 
ATOM      5  C   UNL     1       1.444   1.921  19.456  0.00  0.00    +0.000 C 
ATOM      6  C   UNL     1       2.153   2.039  18.107  0.00  0.00    +0.000 C 
ATOM      7  C   UNL     1       1.486   4.394  19.742  0.00  0.00    +0.000 C 
ATOM      8  C   UNL     1       2.182   4.521  18.378  0.00  0.00    +0.000 C 
ENDROOT
BRANCH   1   9
ATOM      9  C   UNL     1       3.739   3.493  16.739  0.00  0.00    +0.000 C 
BRANCH   9  10
ATOM     10  C   UNL     1       5.202   3.898  16.867  0.00  0.00    +0.000 C 
BRANCH  10  11
ATOM     11  C   UNL     1       5.520   5.174  16.091  0.00  0.00    +0.000 C 
BRANCH  11  12
ATOM     12  C   UNL     1       7.001   5.504  16.273  0.00  0.00    +0.000 C 
BRANCH  12  13
ATOM     13  C   UNL     1       7.515   5.095  17.646  0.00  0.00    +0.000 C 
BRANCH  13  15
ATOM     14  C   UNL     1       7.714   7.601  17.710  0.00  0.00    +0.000 C 
ATOM     15  C   UNL     1       7.699   6.327  18.534  0.00  0.00    +0.000 C 
ENDBRANCH  13  15
ENDBRANCH  12  13
ENDBRANCH  11  12
ENDBRANCH  10  11
ENDBRANCH   9  10
ENDBRANCH   1   9
BRANCH   7  16
ATOM     16  C   UNL     1       1.779   5.603  20.652  0.00  0.00    +0.000 C 
BRANCH  16  17
ATOM     17  C   UNL     1       2.638   6.670  19.961  0.00  0.00    +0.000 C 
BRANCH  17  18
ATOM     18  C   UNL     1       1.863   7.939  19.728  0.00  0.00    +0.000 A 
ATOM     19  C   UNL     1       1.079   8.493  20.750  0.00  0.00    +0.000 A 
ATOM     20  C   UNL     1       0.375   9.679  20.533  0.00  0.00    +0.000 A 
ATOM     21  C   UNL     1       0.442  10.305  19.291  0.00  0.00    +0.000 A 
ATOM     22 CL   UNL     1      -0.416  11.773  19.026  0.00  0.00    +0.000 Cl
ATOM     23  C   UNL     1       1.204   9.756  18.263  0.00  0.00    +0.000 A 
ATOM     24  C   UNL     1       1.909   8.572  18.480  0.00  0.00    +0.000 A 
ENDBRANCH  17  18
ENDBRANCH  16  17
ENDBRANCH   7  16
TORSDOF 9
ENDMDL
MODEL 9
REMARK VINA RESULT:      -7.0      1.655      2.580
REMARK  Name = 
REMARK  10 active torsions:
REMARK  status: ('A' for Active; 'I' for Inactive)
REMARK    1  A    between atoms: C_1  and  C_2
REMARK    2  A    between atoms: C_2  and  C_3
REMARK    3  A    between atoms: C_3  and  C_4
REMARK    4  A    between atoms: C_4  and  C_5
REMARK    5  A    between atoms: C_5  and  C_6
REMARK    6  A    between atoms: C_6  and  C_7
REMARK    7  A    between atoms: C_7  and  N_8
REMARK    8  A    between atoms: C_14  and  C_15
REMARK    9  A    between atoms: C_15  and  C_16
REMARK   10  A    between atoms: C_16  and  C_17
REMARK                            x       y       z     vdW  Elec       q    Type
REMARK                         _______ _______ _______ _____ _____    ______ ____
ROOT
ATOM      1  N   UNL     1       3.396   3.458  18.245  0.00  0.00    +0.000 N 
ATOM      2  C   UNL     1       4.061   3.140  19.597  0.00  0.00    +0.000 C 
ATOM      3  C   UNL     1       2.989   2.855  20.646  0.00  0.00    +0.000 C 
ATOM      4  C   UNL     1       1.592   3.097  20.070  0.00  0.00    +0.000 C 
ATOM      5  C   UNL     1       1.395   2.111  18.910  0.00  0.00    +0.000 C 
ATOM      6  C   UNL     1       2.465   2.306  17.837  0.00  0.00    +0.000 C 
ATOM      7  C   UNL     1       1.487   4.529  19.502  0.00  0.00    +0.000 C 
ATOM      8  C   UNL     1       2.550   4.735  18.411  0.00  0.00    +0.000 C 
ENDROOT
BRANCH   1   9
ATOM      9  C   UNL     1       4.452   3.751  17.155  0.00  0.00    +0.000 C 
BRANCH   9  10
ATOM     10  C   UNL     1       5.715   4.392  17.717  0.00  0.00    +0.000 C 
BRANCH  10  11
ATOM     11  C   UNL     1       6.335   5.397  16.748  0.00  0.00    +0.000 C 
BRANCH  11  12
ATOM     12  C   UNL     1       5.606   5.300  15.408  0.00  0.00    +0.000 C 
BRANCH  12  13
ATOM     13  C   UNL     1       6.523   4.828  14.289  0.00  0.00    +0.000 C 
BRANCH  13  15
ATOM     14  C   UNL     1       6.481   3.502  12.153  0.00  0.00    +0.000 C 
ATOM     15  C   UNL     1       5.893   3.651  13.545  0.00  0.00    +0.000 C 
ENDBRANCH  13  15
ENDBRANCH  12  13
ENDBRANCH  11  12
ENDBRANCH  10  11
ENDBRANCH   9  10
ENDBRANCH   1   9
BRANCH   7  16
ATOM     16  C   UNL     1       1.573   5.607  20.600  0.00  0.00    +0.000 C 
BRANCH  16  17
ATOM     17  C   UNL     1       2.341   6.854  20.146  0.00  0.00    +0.000 C 
BRANCH  17  18
ATOM     18  C   UNL     1       1.494   8.094  20.251  0.00  0.00    +0.000 A 
ATOM     19  C   UNL     1       0.766   8.363  21.419  0.00  0.00    +0.000 A 
ATOM     20  C   UNL     1      -0.005   9.523  21.517  0.00  0.00    +0.000 A 
ATOM     21  C   UNL     1      -0.060  10.409  20.443  0.00  0.00    +0.000 A 
ATOM     22 CL   UNL     1      -1.000  11.845  20.567  0.00  0.00    +0.000 Cl
ATOM     23  C   UNL     1       0.646  10.145  19.272  0.00  0.00    +0.000 A 
ATOM     24  C   UNL     1       1.418   8.987  19.175  0.00  0.00    +0.000 A 
ENDBRANCH  17  18
ENDBRANCH  16  17
ENDBRANCH   7  16
TORSDOF 9
ENDMDL
