MODEL 1
REMARK VINA RESULT:      -8.7      0.000      0.000
REMARK  Name = 
REMARK  14 active torsions:
REMARK  status: ('A' for Active; 'I' for Inactive)
REMARK    1  A    between atoms: C_1  and  C_2
REMARK    2  A    between atoms: C_2  and  C_3
REMARK    3  A    between atoms: C_3  and  C_4
REMARK    4  A    between atoms: C_4  and  C_5
REMARK    5  A    between atoms: C_5  and  N_6
REMARK    6  A    between atoms: N_6  and  C_7
REMARK    7  A    between atoms: N_6  and  C_8
REMARK    8  A    between atoms: C_8  and  C_9
REMARK    9  A    between atoms: C_11  and  C_12
REMARK   10  A    between atoms: C_12  and  O_14
REMARK   11  A    between atoms: C_17  and  N_18
REMARK   12  A    between atoms: C_19  and  C_21
REMARK   13  A    between atoms: C_28  and  N_29
REMARK   14  A    between atoms: N_29  and  C_30
REMARK                            x       y       z     vdW  Elec       q    Type
REMARK                         _______ _______ _______ _____ _____    ______ ____
ROOT
ATOM      1  N   UNL     1       2.480   7.280  19.098  0.00  0.00    +0.000 N 
ATOM      2  C   UNL     1       1.913   8.101  20.061  0.00  0.00    +0.000 C 
ATOM      3  O   UNL     1       1.918   7.888  21.273  0.00  0.00    +0.000 OA
ATOM      4  H   UNL     1       2.436   7.590  18.123  0.00  0.00    +0.000 HD
ENDROOT
BRANCH   2   5
ATOM      5  C   UNL     1       1.123   9.269  19.548  0.00  0.00    +0.000 A 
ATOM      6  C   UNL     1       0.341   9.920  20.428  0.00  0.00    +0.000 A 
ATOM      7  C   UNL     1      -0.676  10.876  19.987  0.00  0.00    +0.000 A 
ATOM      8  C   UNL     1      -1.482  11.566  20.888  0.00  0.00    +0.000 A 
ATOM      9  C   UNL     1      -2.517  12.353  20.398  0.00  0.00    +0.000 A 
ATOM     10  F   UNL     1      -3.290  13.028  21.260  0.00  0.00    +0.000 F 
ATOM     11  C   UNL     1      -2.783  12.449  19.030  0.00  0.00    +0.000 A 
ATOM     12  C   UNL     1      -1.983  11.774  18.106  0.00  0.00    +0.000 A 
ATOM     13  C   UNL     1      -0.907  11.014  18.612  0.00  0.00    +0.000 A 
ATOM     14  N   UNL     1      -0.036  10.373  17.716  0.00  0.00    +0.000 N 
ATOM     15  C   UNL     1       1.034   9.614  18.102  0.00  0.00    +0.000 A 
ATOM     16  O   UNL     1       1.851   9.198  17.285  0.00  0.00    +0.000 OA
ATOM     17  H   UNL     1      -0.196  10.494  16.725  0.00  0.00    +0.000 HD
BRANCH  12  18
ATOM     18  N   UNL     1      -2.184  11.815  16.715  0.00  0.00    +0.000 N 
ATOM     19  C   UNL     1      -3.220  10.987  16.114  0.00  0.00    +0.000 C 
ATOM     20  H   UNL     1      -2.258  12.784  16.406  0.00  0.00    +0.000 HD
ENDBRANCH  12  18
ENDBRANCH   2   5
BRANCH   1  26
ATOM     21  C   UNL     1       4.182   5.554  18.689  0.00  0.00    +0.000 A 
ATOM     22  C   UNL     1       4.624   4.224  18.872  0.00  0.00    +0.000 A 
ATOM     23  C   UNL     1       3.879   3.303  19.609  0.00  0.00    +0.000 A 
ATOM     24  C   UNL     1       2.716   3.718  20.246  0.00  0.00    +0.000 A 
ATOM     25  C   UNL     1       2.289   5.040  20.106  0.00  0.00    +0.000 A 
ATOM     26  C   UNL     1       2.985   5.970  19.314  0.00  0.00    +0.000 A 
BRANCH  23  27
ATOM     27  C   UNL     1       4.359   1.905  19.677  0.00  0.00    +0.000 C 
ATOM     28  O   UNL     1       5.155   1.521  20.521  0.00  0.00    +0.000 OA
BRANCH  27  29
ATOM     29  O   UNL     1       3.896   1.122  18.683  0.00  0.00    +0.000 OA
ATOM     30  H   UNL     1       2.964   0.852  18.774  0.00  0.00    +0.000 HD
ENDBRANCH  27  29
ENDBRANCH  23  27
BRANCH  21  31
ATOM     31  C   UNL     1       4.999   6.398  17.728  0.00  0.00    +0.000 C 
BRANCH  31  32
ATOM     32  N   UNL     1       5.952   5.676  16.871  0.00  0.00    +0.000 NA
ATOM     33  C   UNL     1       7.235   6.396  16.911  0.00  0.00    +0.000 C 
BRANCH  32  34
ATOM     34  C   UNL     1       5.469   5.545  15.481  0.00  0.00    +0.000 C 
BRANCH  34  35
ATOM     35  C   UNL     1       5.856   4.219  14.808  0.00  0.00    +0.000 C 
BRANCH  35  36
ATOM     36  C   UNL     1       6.763   4.428  13.591  0.00  0.00    +0.000 C 
BRANCH  36  38
ATOM     37  C   UNL     1       4.886   3.562  12.164  0.00  0.00    +0.000 C 
ATOM     38  C   UNL     1       6.379   3.493  12.447  0.00  0.00    +0.000 C 
ENDBRANCH  36  38
ENDBRANCH  35  36
ENDBRANCH  34  35
ENDBRANCH  32  34
ENDBRANCH  31  32
ENDBRANCH  21  31
ENDBRANCH   1  26
TORSDOF 11
ENDMDL
MODEL 2
REMARK VINA RESULT:      -8.2      2.696      4.299
REMARK  Name = 
REMARK  14 active torsions:
REMARK  status: ('A' for Active; 'I' for Inactive)
REMARK    1  A    between atoms: C_1  and  C_2
REMARK    2  A    between atoms: C_2  and  C_3
REMARK    3  A    between atoms: C_3  and  C_4
REMARK    4  A    between atoms: C_4  and  C_5
REMARK    5  A    between atoms: C_5  and  N_6
REMARK    6  A    between atoms: N_6  and  C_7
REMARK    7  A    between atoms: N_6  and  C_8
REMARK    8  A    between atoms: C_8  and  C_9
REMARK    9  A    between atoms: C_11  and  C_12
REMARK   10  A    between atoms: C_12  and  O_14
REMARK   11  A    between atoms: C_17  and  N_18
REMARK   12  A    between atoms: C_19  and  C_21
REMARK   13  A    between atoms: C_28  and  N_29
REMARK   14  A    between atoms: N_29  and  C_30
REMARK                            x       y       z     vdW  Elec       q    Type
REMARK                         _______ _______ _______ _____ _____    ______ ____
ROOT
ATOM      1  N   UNL     1       2.246   7.446  17.945  0.00  0.00    +0.000 N 
ATOM      2  C   UNL     1       2.085   8.822  17.905  0.00  0.00    +0.000 C 
ATOM      3  O   UNL     1       2.972   9.637  17.646  0.00  0.00    +0.000 OA
ATOM      4  H   UNL     1       1.418   6.876  18.140  0.00  0.00    +0.000 HD
ENDROOT
BRANCH   2   5
ATOM      5  C   UNL     1       0.748   9.342  18.342  0.00  0.00    +0.000 A 
ATOM      6  C   UNL     1      -0.250   9.316  17.440  0.00  0.00    +0.000 A 
ATOM      7  C   UNL     1      -1.498  10.049  17.656  0.00  0.00    +0.000 A 
ATOM      8  C   UNL     1      -2.542  10.020  16.737  0.00  0.00    +0.000 A 
ATOM      9  C   UNL     1      -3.641  10.847  16.940  0.00  0.00    +0.000 A 
ATOM     10  F   UNL     1      -4.654  10.814  16.064  0.00  0.00    +0.000 F 
ATOM     11  C   UNL     1      -3.711  11.721  18.027  0.00  0.00    +0.000 A 
ATOM     12  C   UNL     1      -2.680  11.763  18.968  0.00  0.00    +0.000 A 
ATOM     13  C   UNL     1      -1.591  10.886  18.777  0.00  0.00    +0.000 A 
ATOM     14  N   UNL     1      -0.564  10.847  19.733  0.00  0.00    +0.000 N 
ATOM     15  C   UNL     1       0.534  10.035  19.643  0.00  0.00    +0.000 A 
ATOM     16  O   UNL     1       1.327   9.926  20.573  0.00  0.00    +0.000 OA
ATOM     17  H   UNL     1      -0.647  11.437  20.549  0.00  0.00    +0.000 HD
BRANCH  12  18
ATOM     18  N   UNL     1      -2.671  12.615  20.086  0.00  0.00    +0.000 N 
ATOM     19  C   UNL     1      -3.916  12.892  20.788  0.00  0.00    +0.000 C 
ATOM     20  H   UNL     1      -1.937  12.328  20.732  0.00  0.00    +0.000 HD
ENDBRANCH  12  18
ENDBRANCH   2   5
BRANCH   1  26
ATOM     21  C   UNL     1       3.896   5.944  18.979  0.00  0.00    +0.000 A 
ATOM     22  C   UNL     1       5.161   5.316  18.924  0.00  0.00    +0.000 A 
ATOM     23  C   UNL     1       6.029   5.518  17.851  0.00  0.00    +0.000 A 
ATOM     24  C   UNL     1       5.614   6.287  16.771  0.00  0.00    +0.000 A 
ATOM     25  C   UNL     1       4.350   6.881  16.794  0.00  0.00    +0.000 A 
ATOM     26  C   UNL     1       3.484   6.750  17.894  0.00  0.00    +0.000 A 
BRANCH  23  27
ATOM     27  C   UNL     1       7.373   4.901  17.910  0.00  0.00    +0.000 C 
ATOM     28  O   UNL     1       8.031   4.848  18.938  0.00  0.00    +0.000 OA
BRANCH  27  29
ATOM     29  O   UNL     1       7.828   4.475  16.715  0.00  0.00    +0.000 OA
ATOM     30  H   UNL     1       7.144   4.375  16.027  0.00  0.00    +0.000 HD
ENDBRANCH  27  29
ENDBRANCH  23  27
BRANCH  21  31
ATOM     31  C   UNL     1       3.127   5.776  20.277  0.00  0.00    +0.000 C 
BRANCH  31  32
ATOM     32  N   UNL     1       1.685   5.514  20.153  0.00  0.00    +0.000 NA
ATOM     33  C   UNL     1       0.967   6.564  20.893  0.00  0.00    +0.000 C 
BRANCH  32  34
ATOM     34  C   UNL     1       1.314   4.175  20.654  0.00  0.00    +0.000 C 
BRANCH  34  35
ATOM     35  C   UNL     1       1.124   3.124  19.548  0.00  0.00    +0.000 C 
BRANCH  35  36
ATOM     36  C   UNL     1       2.373   2.259  19.347  0.00  0.00    +0.000 C 
BRANCH  36  38
ATOM     37  C   UNL     1       2.620   3.296  17.073  0.00  0.00    +0.000 C 
ATOM     38  C   UNL     1       2.634   1.999  17.866  0.00  0.00    +0.000 C 
ENDBRANCH  36  38
ENDBRANCH  35  36
ENDBRANCH  34  35
ENDBRANCH  32  34
ENDBRANCH  31  32
ENDBRANCH  21  31
ENDBRANCH   1  26
TORSDOF 11
ENDMDL
MODEL 3
REMARK VINA RESULT:      -8.0      2.551      4.374
REMARK  Name = 
REMARK  14 active torsions:
REMARK  status: ('A' for Active; 'I' for Inactive)
REMARK    1  A    between atoms: C_1  and  C_2
REMARK    2  A    between atoms: C_2  and  C_3
REMARK    3  A    between atoms: C_3  and  C_4
REMARK    4  A    between atoms: C_4  and  C_5
REMARK    5  A    between atoms: C_5  and  N_6
REMARK    6  A    between atoms: N_6  and  C_7
REMARK    7  A    between atoms: N_6  and  C_8
REMARK    8  A    between atoms: C_8  and  C_9
REMARK    9  A    between atoms: C_11  and  C_12
REMARK   10  A    between atoms: C_12  and  O_14
REMARK   11  A    between atoms: C_17  and  N_18
REMARK   12  A    between atoms: C_19  and  C_21
REMARK   13  A    between atoms: C_28  and  N_29
REMARK   14  A    between atoms: N_29  and  C_30
REMARK                            x       y       z     vdW  Elec       q    Type
REMARK                         _______ _______ _______ _____ _____    ______ ____
ROOT
ATOM      1  N   UNL     1       2.188   7.458  18.764  0.00  0.00    +0.000 N 
ATOM      2  C   UNL     1       1.816   8.759  18.465  0.00  0.00    +0.000 C 
ATOM      3  O   UNL     1       2.333   9.468  17.600  0.00  0.00    +0.000 OA
ATOM      4  H   UNL     1       1.653   6.964  19.485  0.00  0.00    +0.000 HD
ENDROOT
BRANCH   2   5
ATOM      5  C   UNL     1       0.787   9.374  19.366  0.00  0.00    +0.000 A 
ATOM      6  C   UNL     1      -0.263   9.981  18.782  0.00  0.00    +0.000 A 
ATOM      7  C   UNL     1      -1.164  10.850  19.539  0.00  0.00    +0.000 A 
ATOM      8  C   UNL     1      -2.260  11.472  18.950  0.00  0.00    +0.000 A 
ATOM      9  C   UNL     1      -2.992  12.391  19.693  0.00  0.00    +0.000 A 
ATOM     10  F   UNL     1      -4.055  12.986  19.134  0.00  0.00    +0.000 F 
ATOM     11  C   UNL     1      -2.641  12.722  21.004  0.00  0.00    +0.000 A 
ATOM     12  C   UNL     1      -1.550  12.105  21.620  0.00  0.00    +0.000 A 
ATOM     13  C   UNL     1      -0.843  11.140  20.873  0.00  0.00    +0.000 A 
ATOM     14  N   UNL     1       0.219  10.446  21.475  0.00  0.00    +0.000 N 
ATOM     15  C   UNL     1       0.968   9.494  20.839  0.00  0.00    +0.000 A 
ATOM     16  O   UNL     1       1.785   8.811  21.449  0.00  0.00    +0.000 OA
ATOM     17  H   UNL     1       0.432  10.645  22.443  0.00  0.00    +0.000 HD
BRANCH  12  18
ATOM     18  N   UNL     1      -1.129  12.383  22.933  0.00  0.00    +0.000 N 
ATOM     19  C   UNL     1      -1.437  13.676  23.528  0.00  0.00    +0.000 C 
ATOM     20  H   UNL     1      -1.398  11.617  23.550  0.00  0.00    +0.000 HD
ENDBRANCH  12  18
ENDBRANCH   2   5
BRANCH   1  26
ATOM     21  C   UNL     1       3.816   5.622  18.918  0.00  0.00    +0.000 A 
ATOM     22  C   UNL     1       5.003   5.016  18.448  0.00  0.00    +0.000 A 
ATOM     23  C   UNL     1       5.742   5.572  17.403  0.00  0.00    +0.000 A 
ATOM     24  C   UNL     1       5.262   6.703  16.754  0.00  0.00    +0.000 A 
ATOM     25  C   UNL     1       4.069   7.289  17.183  0.00  0.00    +0.000 A 
ATOM     26  C   UNL     1       3.342   6.788  18.276  0.00  0.00    +0.000 A 
BRANCH  23  27
ATOM     27  C   UNL     1       7.022   4.932  17.030  0.00  0.00    +0.000 C 
ATOM     28  O   UNL     1       7.464   4.954  15.891  0.00  0.00    +0.000 OA
BRANCH  27  29
ATOM     29  O   UNL     1       7.612   4.264  18.042  0.00  0.00    +0.000 OA
ATOM     30  H   UNL     1       7.867   4.817  18.804  0.00  0.00    +0.000 HD
ENDBRANCH  27  29
ENDBRANCH  23  27
BRANCH  21  31
ATOM     31  C   UNL     1       3.207   5.009  20.167  0.00  0.00    +0.000 C 
BRANCH  31  32
ATOM     32  N   UNL     1       1.785   4.645  20.088  0.00  0.00    +0.000 NA
ATOM     33  C   UNL     1       1.487   3.731  21.203  0.00  0.00    +0.000 C 
BRANCH  32  34
ATOM     34  C   UNL     1       1.435   4.024  18.795  0.00  0.00    +0.000 C 
BRANCH  34  35
ATOM     35  C   UNL     1       1.558   2.492  18.783  0.00  0.00    +0.000 C 
BRANCH  35  36
ATOM     36  C   UNL     1       2.379   1.983  17.595  0.00  0.00    +0.000 C 
BRANCH  36  38
ATOM     37  C   UNL     1       4.015   1.592  19.461  0.00  0.00    +0.000 C 
ATOM     38  C   UNL     1       3.852   1.824  17.968  0.00  0.00    +0.000 C 
ENDBRANCH  36  38
ENDBRANCH  35  36
ENDBRANCH  34  35
ENDBRANCH  32  34
ENDBRANCH  31  32
ENDBRANCH  21  31
ENDBRANCH   1  26
TORSDOF 11
ENDMDL
MODEL 4
REMARK VINA RESULT:      -7.9      2.818      4.259
REMARK  Name = 
REMARK  14 active torsions:
REMARK  status: ('A' for Active; 'I' for Inactive)
REMARK    1  A    between atoms: C_1  and  C_2
REMARK    2  A    between atoms: C_2  and  C_3
REMARK    3  A    between atoms: C_3  and  C_4
REMARK    4  A    between atoms: C_4  and  C_5
REMARK    5  A    between atoms: C_5  and  N_6
REMARK    6  A    between atoms: N_6  and  C_7
REMARK    7  A    between atoms: N_6  and  C_8
REMARK    8  A    between atoms: C_8  and  C_9
REMARK    9  A    between atoms: C_11  and  C_12
REMARK   10  A    between atoms: C_12  and  O_14
REMARK   11  A    between atoms: C_17  and  N_18
REMARK   12  A    between atoms: C_19  and  C_21
REMARK   13  A    between atoms: C_28  and  N_29
REMARK   14  A    between atoms: N_29  and  C_30
REMARK                            x       y       z     vdW  Elec       q    Type
REMARK                         _______ _______ _______ _____ _____    ______ ____
ROOT
ATOM      1  N   UNL     1       1.854   7.675  17.968  0.00  0.00    +0.000 N 
ATOM      2  C   UNL     1       1.660   9.035  18.153  0.00  0.00    +0.000 C 
ATOM      3  O   UNL     1       2.553   9.867  18.322  0.00  0.00    +0.000 OA
ATOM      4  H   UNL     1       1.026   7.095  17.804  0.00  0.00    +0.000 HD
ENDROOT
BRANCH   2   5
ATOM      5  C   UNL     1       0.235   9.485  18.284  0.00  0.00    +0.000 A 
ATOM      6  C   UNL     1      -0.554   9.362  17.201  0.00  0.00    +0.000 A 
ATOM      7  C   UNL     1      -1.857  10.022  17.124  0.00  0.00    +0.000 A 
ATOM      8  C   UNL     1      -2.688   9.892  16.015  0.00  0.00    +0.000 A 
ATOM      9  C   UNL     1      -3.848  10.655  15.949  0.00  0.00    +0.000 A 
ATOM     10  F   UNL     1      -4.657  10.525  14.889  0.00  0.00    +0.000 F 
ATOM     11  C   UNL     1      -4.187  11.564  16.954  0.00  0.00    +0.000 A 
ATOM     12  C   UNL     1      -3.374  11.707  18.081  0.00  0.00    +0.000 A 
ATOM     13  C   UNL     1      -2.223  10.894  18.159  0.00  0.00    +0.000 A 
ATOM     14  N   UNL     1      -1.413  10.956  19.304  0.00  0.00    +0.000 N 
ATOM     15  C   UNL     1      -0.278  10.212  19.478  0.00  0.00    +0.000 A 
ATOM     16  O   UNL     1       0.313  10.190  20.554  0.00  0.00    +0.000 OA
ATOM     17  H   UNL     1      -1.694  11.570  20.055  0.00  0.00    +0.000 HD
BRANCH  12  18
ATOM     18  N   UNL     1      -3.641  12.600  19.134  0.00  0.00    +0.000 N 
ATOM     19  C   UNL     1      -4.917  12.527  19.831  0.00  0.00    +0.000 C 
ATOM     20  H   UNL     1      -2.860  12.603  19.789  0.00  0.00    +0.000 HD
ENDBRANCH  12  18
ENDBRANCH   2   5
BRANCH   1  26
ATOM     21  C   UNL     1       3.305   6.196  19.291  0.00  0.00    +0.000 A 
ATOM     22  C   UNL     1       4.559   5.566  19.460  0.00  0.00    +0.000 A 
ATOM     23  C   UNL     1       5.594   5.745  18.541  0.00  0.00    +0.000 A 
ATOM     24  C   UNL     1       5.365   6.491  17.391  0.00  0.00    +0.000 A 
ATOM     25  C   UNL     1       4.117   7.085  17.193  0.00  0.00    +0.000 A 
ATOM     26  C   UNL     1       3.081   6.978  18.136  0.00  0.00    +0.000 A 
BRANCH  23  27
ATOM     27  C   UNL     1       6.907   5.130  18.833  0.00  0.00    +0.000 C 
ATOM     28  O   UNL     1       7.486   4.401  18.042  0.00  0.00    +0.000 OA
BRANCH  27  29
ATOM     29  O   UNL     1       7.364   5.389  20.075  0.00  0.00    +0.000 OA
ATOM     30  H   UNL     1       7.881   6.211  20.158  0.00  0.00    +0.000 HD
ENDBRANCH  27  29
ENDBRANCH  23  27
BRANCH  21  31
ATOM     31  C   UNL     1       2.331   6.056  20.448  0.00  0.00    +0.000 C 
BRANCH  31  32
ATOM     32  N   UNL     1       1.534   4.821  20.485  0.00  0.00    +0.000 NA
ATOM     33  C   UNL     1       2.147   3.913  21.467  0.00  0.00    +0.000 C 
BRANCH  32  34
ATOM     34  C   UNL     1       1.441   4.174  19.160  0.00  0.00    +0.000 C 
BRANCH  34  35
ATOM     35  C   UNL     1       1.319   2.643  19.220  0.00  0.00    +0.000 C 
BRANCH  35  36
ATOM     36  C   UNL     1       2.553   1.938  18.648  0.00  0.00    +0.000 C 
BRANCH  36  38
ATOM     37  C   UNL     1       4.097   3.076  17.027  0.00  0.00    +0.000 C 
ATOM     38  C   UNL     1       2.786   2.325  17.190  0.00  0.00    +0.000 C 
ENDBRANCH  36  38
ENDBRANCH  35  36
ENDBRANCH  34  35
ENDBRANCH  32  34
ENDBRANCH  31  32
ENDBRANCH  21  31
ENDBRANCH   1  26
TORSDOF 11
ENDMDL
MODEL 5
REMARK VINA RESULT:      -7.8      2.499      4.003
REMARK  Name = 
REMARK  14 active torsions:
REMARK  status: ('A' for Active; 'I' for Inactive)
REMARK    1  A    between atoms: C_1  and  C_2
REMARK    2  A    between atoms: C_2  and  C_3
REMARK    3  A    between atoms: C_3  and  C_4
REMARK    4  A    between atoms: C_4  and  C_5
REMARK    5  A    between atoms: C_5  and  N_6
REMARK    6  A    between atoms: N_6  and  C_7
REMARK    7  A    between atoms: N_6  and  C_8
REMARK    8  A    between atoms: C_8  and  C_9
REMARK    9  A    between atoms: C_11  and  C_12
REMARK   10  A    between atoms: C_12  and  O_14
REMARK   11  A    between atoms: C_17  and  N_18
REMARK   12  A    between atoms: C_19  and  C_21
REMARK   13  A    between atoms: C_28  and  N_29
REMARK   14  A    between atoms: N_29  and  C_30
REMARK                            x       y       z     vdW  Elec       q    Type
REMARK                         _______ _______ _______ _____ _____    ______ ____
ROOT
ATOM      1  N   UNL     1       2.239   7.464  18.228  0.00  0.00    +0.000 N 
ATOM      2  C   UNL     1       1.988   8.808  18.002  0.00  0.00    +0.000 C 
ATOM      3  O   UNL     1       2.808   9.628  17.588  0.00  0.00    +0.000 OA
ATOM      4  H   UNL     1       1.458   6.880  18.542  0.00  0.00    +0.000 HD
ENDROOT
BRANCH   2   5
ATOM      5  C   UNL     1       0.637   9.305  18.426  0.00  0.00    +0.000 A 
ATOM      6  C   UNL     1      -0.308   9.413  17.474  0.00  0.00    +0.000 A 
ATOM      7  C   UNL     1      -1.552  10.146  17.710  0.00  0.00    +0.000 A 
ATOM      8  C   UNL     1      -2.543  10.253  16.739  0.00  0.00    +0.000 A 
ATOM      9  C   UNL     1      -3.637  11.077  16.981  0.00  0.00    +0.000 A 
ATOM     10  F   UNL     1      -4.599  11.175  16.053  0.00  0.00    +0.000 F 
ATOM     11  C   UNL     1      -3.752  11.816  18.160  0.00  0.00    +0.000 A 
ATOM     12  C   UNL     1      -2.775  11.720  19.153  0.00  0.00    +0.000 A 
ATOM     13  C   UNL     1      -1.694  10.845  18.917  0.00  0.00    +0.000 A 
ATOM     14  N   UNL     1      -0.723  10.666  19.916  0.00  0.00    +0.000 N 
ATOM     15  C   UNL     1       0.362   9.843  19.787  0.00  0.00    +0.000 A 
ATOM     16  O   UNL     1       1.100   9.604  20.739  0.00  0.00    +0.000 OA
ATOM     17  H   UNL     1      -0.842  11.156  20.791  0.00  0.00    +0.000 HD
BRANCH  12  18
ATOM     18  N   UNL     1      -2.815  12.432  20.365  0.00  0.00    +0.000 N 
ATOM     19  C   UNL     1      -2.219  13.758  20.439  0.00  0.00    +0.000 C 
ATOM     20  H   UNL     1      -3.765  12.431  20.734  0.00  0.00    +0.000 HD
ENDBRANCH  12  18
ENDBRANCH   2   5
BRANCH   1  26
ATOM     21  C   UNL     1       3.839   5.852  19.171  0.00  0.00    +0.000 A 
ATOM     22  C   UNL     1       5.139   5.298  19.172  0.00  0.00    +0.000 A 
ATOM     23  C   UNL     1       6.123   5.746  18.290  0.00  0.00    +0.000 A 
ATOM     24  C   UNL     1       5.800   6.700  17.333  0.00  0.00    +0.000 A 
ATOM     25  C   UNL     1       4.507   7.226  17.295  0.00  0.00    +0.000 A 
ATOM     26  C   UNL     1       3.517   6.842  18.216  0.00  0.00    +0.000 A 
BRANCH  23  27
ATOM     27  C   UNL     1       7.486   5.184  18.415  0.00  0.00    +0.000 C 
ATOM     28  O   UNL     1       7.968   4.429  17.585  0.00  0.00    +0.000 OA
BRANCH  27  29
ATOM     29  O   UNL     1       8.112   5.525  19.559  0.00  0.00    +0.000 OA
ATOM     30  H   UNL     1       7.702   5.174  20.371  0.00  0.00    +0.000 HD
ENDBRANCH  27  29
ENDBRANCH  23  27
BRANCH  21  31
ATOM     31  C   UNL     1       2.922   5.395  20.292  0.00  0.00    +0.000 C 
BRANCH  31  32
ATOM     32  N   UNL     1       1.701   4.682  19.888  0.00  0.00    +0.000 NA
ATOM     33  C   UNL     1       1.392   3.686  20.926  0.00  0.00    +0.000 C 
BRANCH  32  34
ATOM     34  C   UNL     1       1.840   4.036  18.567  0.00  0.00    +0.000 C 
BRANCH  34  35
ATOM     35  C   UNL     1       2.338   2.583  18.631  0.00  0.00    +0.000 C 
BRANCH  35  36
ATOM     36  C   UNL     1       3.533   2.337  17.705  0.00  0.00    +0.000 C 
BRANCH  36  38
ATOM     37  C   UNL     1       5.002   3.408  15.971  0.00  0.00    +0.000 C 
ATOM     38  C   UNL     1       3.631   3.415  16.628  0.00  0.00    +0.000 C 
ENDBRANCH  36  38
ENDBRANCH  35  36
ENDBRANCH  34  35
ENDBRANCH  32  34
ENDBRANCH  31  32
ENDBRANCH  21  31
ENDBRANCH   1  26
TORSDOF 11
ENDMDL
MODEL 6
REMARK VINA RESULT:      -7.8      3.571      9.253
REMARK  Name = 
REMARK  14 active torsions:
REMARK  status: ('A' for Active; 'I' for Inactive)
REMARK    1  A    between atoms: C_1  and  C_2
REMARK    2  A    between atoms: C_2  and  C_3
REMARK    3  A    between atoms: C_3  and  C_4
REMARK    4  A    between atoms: C_4  and  C_5
REMARK    5  A    between atoms: C_5  and  N_6
REMARK    6  A    between atoms: N_6  and  C_7
REMARK    7  A    between atoms: N_6  and  C_8
REMARK    8  A    between atoms: C_8  and  C_9
REMARK    9  A    between atoms: C_11  and  C_12
REMARK   10  A    between atoms: C_12  and  O_14
REMARK   11  A    between atoms: C_17  and  N_18
REMARK   12  A    between atoms: C_19  and  C_21
REMARK   13  A    between atoms: C_28  and  N_29
REMARK   14  A    between atoms: N_29  and  C_30
REMARK                            x       y       z     vdW  Elec       q    Type
REMARK                         _______ _______ _______ _____ _____    ______ ____
ROOT
ATOM      1  N   UNL     1       0.073   9.294  20.856  0.00  0.00    +0.000 N 
ATOM      2  C   UNL     1       1.207   8.578  21.207  0.00  0.00    +0.000 C 
ATOM      3  O   UNL     1       1.872   8.751  22.228  0.00  0.00    +0.000 OA
ATOM      4  H   UNL     1      -0.410   9.027  19.993  0.00  0.00    +0.000 HD
ENDROOT
BRANCH   2   5
ATOM      5  C   UNL     1       1.716   7.607  20.182  0.00  0.00    +0.000 A 
ATOM      6  C   UNL     1       1.903   6.334  20.576  0.00  0.00    +0.000 A 
ATOM      7  C   UNL     1       2.655   5.382  19.759  0.00  0.00    +0.000 A 
ATOM      8  C   UNL     1       2.843   4.060  20.148  0.00  0.00    +0.000 A 
ATOM      9  C   UNL     1       3.682   3.248  19.393  0.00  0.00    +0.000 A 
ATOM     10  F   UNL     1       3.859   1.971  19.758  0.00  0.00    +0.000 F 
ATOM     11  C   UNL     1       4.357   3.733  18.270  0.00  0.00    +0.000 A 
ATOM     12  C   UNL     1       4.178   5.054  17.854  0.00  0.00    +0.000 A 
ATOM     13  C   UNL     1       3.288   5.855  18.601  0.00  0.00    +0.000 A 
ATOM     14  N   UNL     1       3.026   7.169  18.180  0.00  0.00    +0.000 N 
ATOM     15  C   UNL     1       2.183   8.026  18.832  0.00  0.00    +0.000 A 
ATOM     16  O   UNL     1       1.870   9.109  18.345  0.00  0.00    +0.000 OA
ATOM     17  H   UNL     1       3.469   7.497  17.333  0.00  0.00    +0.000 HD
BRANCH  12  18
ATOM     18  N   UNL     1       4.821   5.620  16.738  0.00  0.00    +0.000 N 
ATOM     19  C   UNL     1       6.257   5.852  16.778  0.00  0.00    +0.000 C 
ATOM     20  H   UNL     1       4.548   5.118  15.893  0.00  0.00    +0.000 HD
ENDBRANCH  12  18
ENDBRANCH   2   5
BRANCH   1  26
ATOM     21  C   UNL     1      -0.143  11.742  20.939  0.00  0.00    +0.000 A 
ATOM     22  C   UNL     1      -0.573  12.895  21.634  0.00  0.00    +0.000 A 
ATOM     23  C   UNL     1      -1.195  12.806  22.880  0.00  0.00    +0.000 A 
ATOM     24  C   UNL     1      -1.474  11.555  23.416  0.00  0.00    +0.000 A 
ATOM     25  C   UNL     1      -1.090  10.406  22.721  0.00  0.00    +0.000 A 
ATOM     26  C   UNL     1      -0.401  10.470  21.497  0.00  0.00    +0.000 A 
BRANCH  23  27
ATOM     27  C   UNL     1      -1.532  14.061  23.588  0.00  0.00    +0.000 C 
ATOM     28  O   UNL     1      -2.668  14.336  23.941  0.00  0.00    +0.000 OA
BRANCH  27  29
ATOM     29  O   UNL     1      -0.485  14.897  23.739  0.00  0.00    +0.000 OA
ATOM     30  H   UNL     1       0.166  14.621  24.411  0.00  0.00    +0.000 HD
ENDBRANCH  27  29
ENDBRANCH  23  27
BRANCH  21  31
ATOM     31  C   UNL     1       0.669  11.990  19.680  0.00  0.00    +0.000 C 
BRANCH  31  32
ATOM     32  N   UNL     1      -0.093  12.303  18.462  0.00  0.00    +0.000 NA
ATOM     33  C   UNL     1      -0.266  13.763  18.396  0.00  0.00    +0.000 C 
BRANCH  32  34
ATOM     34  C   UNL     1      -1.402  11.619  18.428  0.00  0.00    +0.000 C 
BRANCH  34  35
ATOM     35  C   UNL     1      -1.367  10.234  17.762  0.00  0.00    +0.000 C 
BRANCH  35  36
ATOM     36  C   UNL     1      -2.639   9.943  16.959  0.00  0.00    +0.000 C 
BRANCH  36  38
ATOM     37  C   UNL     1      -3.355  10.150  14.561  0.00  0.00    +0.000 C 
ATOM     38  C   UNL     1      -2.761  10.876  15.757  0.00  0.00    +0.000 C 
ENDBRANCH  36  38
ENDBRANCH  35  36
ENDBRANCH  34  35
ENDBRANCH  32  34
ENDBRANCH  31  32
ENDBRANCH  21  31
ENDBRANCH   1  26
TORSDOF 11
ENDMDL
MODEL 7
REMARK VINA RESULT:      -7.7      3.633     10.539
REMARK  Name = 
REMARK  14 active torsions:
REMARK  status: ('A' for Active; 'I' for Inactive)
REMARK    1  A    between atoms: C_1  and  C_2
REMARK    2  A    between atoms: C_2  and  C_3
REMARK    3  A    between atoms: C_3  and  C_4
REMARK    4  A    between atoms: C_4  and  C_5
REMARK    5  A    between atoms: C_5  and  N_6
REMARK    6  A    between atoms: N_6  and  C_7
REMARK    7  A    between atoms: N_6  and  C_8
REMARK    8  A    between atoms: C_8  and  C_9
REMARK    9  A    between atoms: C_11  and  C_12
REMARK   10  A    between atoms: C_12  and  O_14
REMARK   11  A    between atoms: C_17  and  N_18
REMARK   12  A    between atoms: C_19  and  C_21
REMARK   13  A    between atoms: C_28  and  N_29
REMARK   14  A    between atoms: N_29  and  C_30
REMARK                            x       y       z     vdW  Elec       q    Type
REMARK                         _______ _______ _______ _____ _____    ______ ____
ROOT
ATOM      1  N   UNL     1       0.377   9.180  18.814  0.00  0.00    +0.000 N 
ATOM      2  C   UNL     1       1.603   9.304  18.181  0.00  0.00    +0.000 C 
ATOM      3  O   UNL     1       1.931  10.227  17.434  0.00  0.00    +0.000 OA
ATOM      4  H   UNL     1       0.243   8.379  19.439  0.00  0.00    +0.000 HD
ENDROOT
BRANCH   2   5
ATOM      5  C   UNL     1       2.542   8.143  18.330  0.00  0.00    +0.000 A 
ATOM      6  C   UNL     1       3.428   7.933  17.340  0.00  0.00    +0.000 A 
ATOM      7  C   UNL     1       4.186   6.685  17.241  0.00  0.00    +0.000 A 
ATOM      8  C   UNL     1       5.115   6.462  16.230  0.00  0.00    +0.000 A 
ATOM      9  C   UNL     1       5.697   5.205  16.116  0.00  0.00    +0.000 A 
ATOM     10  F   UNL     1       6.600   4.987  15.150  0.00  0.00    +0.000 F 
ATOM     11  C   UNL     1       5.354   4.156  16.973  0.00  0.00    +0.000 A 
ATOM     12  C   UNL     1       4.431   4.358  18.001  0.00  0.00    +0.000 A 
ATOM     13  C   UNL     1       3.881   5.650  18.137  0.00  0.00    +0.000 A 
ATOM     14  N   UNL     1       3.000   5.916  19.197  0.00  0.00    +0.000 N 
ATOM     15  C   UNL     1       2.413   7.132  19.417  0.00  0.00    +0.000 A 
ATOM     16  O   UNL     1       1.770   7.357  20.438  0.00  0.00    +0.000 OA
ATOM     17  H   UNL     1       2.801   5.172  19.851  0.00  0.00    +0.000 HD
BRANCH  12  18
ATOM     18  N   UNL     1       4.030   3.357  18.904  0.00  0.00    +0.000 N 
ATOM     19  C   UNL     1       3.602   2.061  18.397  0.00  0.00    +0.000 C 
ATOM     20  H   UNL     1       4.730   3.256  19.639  0.00  0.00    +0.000 HD
ENDBRANCH  12  18
ENDBRANCH   2   5
BRANCH   1  26
ATOM     21  C   UNL     1      -1.136  11.009  19.455  0.00  0.00    +0.000 A 
ATOM     22  C   UNL     1      -2.322  11.740  19.211  0.00  0.00    +0.000 A 
ATOM     23  C   UNL     1      -3.166  11.426  18.146  0.00  0.00    +0.000 A 
ATOM     24  C   UNL     1      -2.796  10.427  17.253  0.00  0.00    +0.000 A 
ATOM     25  C   UNL     1      -1.607   9.724  17.459  0.00  0.00    +0.000 A 
ATOM     26  C   UNL     1      -0.774   9.974  18.563  0.00  0.00    +0.000 A 
BRANCH  23  27
ATOM     27  C   UNL     1      -4.435  12.174  18.011  0.00  0.00    +0.000 C 
ATOM     28  O   UNL     1      -5.133  12.116  17.011  0.00  0.00    +0.000 OA
BRANCH  27  29
ATOM     29  O   UNL     1      -4.706  12.977  19.060  0.00  0.00    +0.000 OA
ATOM     30  H   UNL     1      -4.981  12.512  19.872  0.00  0.00    +0.000 HD
ENDBRANCH  27  29
ENDBRANCH  23  27
BRANCH  21  31
ATOM     31  C   UNL     1      -0.403  11.344  20.742  0.00  0.00    +0.000 C 
BRANCH  31  32
ATOM     32  N   UNL     1      -1.101  12.236  21.679  0.00  0.00    +0.000 NA
ATOM     33  C   UNL     1      -0.210  13.368  21.979  0.00  0.00    +0.000 C 
BRANCH  32  34
ATOM     34  C   UNL     1      -1.503  11.543  22.920  0.00  0.00    +0.000 C 
BRANCH  34  35
ATOM     35  C   UNL     1      -2.851  12.013  23.490  0.00  0.00    +0.000 C 
BRANCH  35  36
ATOM     36  C   UNL     1      -3.737  12.665  22.425  0.00  0.00    +0.000 C 
BRANCH  36  38
ATOM     37  C   UNL     1      -3.633  14.447  24.192  0.00  0.00    +0.000 C 
ATOM     38  C   UNL     1      -4.012  14.131  22.754  0.00  0.00    +0.000 C 
ENDBRANCH  36  38
ENDBRANCH  35  36
ENDBRANCH  34  35
ENDBRANCH  32  34
ENDBRANCH  31  32
ENDBRANCH  21  31
ENDBRANCH   1  26
TORSDOF 11
ENDMDL
MODEL 8
REMARK VINA RESULT:      -7.7      3.596      9.293
REMARK  Name = 
REMARK  14 active torsions:
REMARK  status: ('A' for Active; 'I' for Inactive)
REMARK    1  A    between atoms: C_1  and  C_2
REMARK    2  A    between atoms: C_2  and  C_3
REMARK    3  A    between atoms: C_3  and  C_4
REMARK    4  A    between atoms: C_4  and  C_5
REMARK    5  A    between atoms: C_5  and  N_6
REMARK    6  A    between atoms: N_6  and  C_7
REMARK    7  A    between atoms: N_6  and  C_8
REMARK    8  A    between atoms: C_8  and  C_9
REMARK    9  A    between atoms: C_11  and  C_12
REMARK   10  A    between atoms: C_12  and  O_14
REMARK   11  A    between atoms: C_17  and  N_18
REMARK   12  A    between atoms: C_19  and  C_21
REMARK   13  A    between atoms: C_28  and  N_29
REMARK   14  A    between atoms: N_29  and  C_30
REMARK                            x       y       z     vdW  Elec       q    Type
REMARK                         _______ _______ _______ _____ _____    ______ ____
ROOT
ATOM      1  N   UNL     1      -0.096   9.915  21.205  0.00  0.00    +0.000 N 
ATOM      2  C   UNL     1       0.990   9.132  21.566  0.00  0.00    +0.000 C 
ATOM      3  O   UNL     1       1.706   9.315  22.551  0.00  0.00    +0.000 OA
ATOM      4  H   UNL     1      -0.631   9.634  20.378  0.00  0.00    +0.000 HD
ENDROOT
BRANCH   2   5
ATOM      5  C   UNL     1       1.381   8.060  20.593  0.00  0.00    +0.000 A 
ATOM      6  C   UNL     1       1.386   6.791  21.040  0.00  0.00    +0.000 A 
ATOM      7  C   UNL     1       2.016   5.712  20.278  0.00  0.00    +0.000 A 
ATOM      8  C   UNL     1       2.016   4.394  20.723  0.00  0.00    +0.000 A 
ATOM      9  C   UNL     1       2.750   3.446  20.020  0.00  0.00    +0.000 A 
ATOM     10  F   UNL     1       2.744   2.172  20.439  0.00  0.00    +0.000 F 
ATOM     11  C   UNL     1       3.505   3.787  18.896  0.00  0.00    +0.000 A 
ATOM     12  C   UNL     1       3.515   5.102  18.425  0.00  0.00    +0.000 A 
ATOM     13  C   UNL     1       2.730   6.046  19.118  0.00  0.00    +0.000 A 
ATOM     14  N   UNL     1       2.657   7.364  18.640  0.00  0.00    +0.000 N 
ATOM     15  C   UNL     1       1.926   8.355  19.238  0.00  0.00    +0.000 A 
ATOM     16  O   UNL     1       1.773   9.449  18.702  0.00  0.00    +0.000 OA
ATOM     17  H   UNL     1       3.156   7.594  17.792  0.00  0.00    +0.000 HD
BRANCH  12  18
ATOM     18  N   UNL     1       4.250   5.528  17.304  0.00  0.00    +0.000 N 
ATOM     19  C   UNL     1       4.904   4.543  16.456  0.00  0.00    +0.000 C 
ATOM     20  H   UNL     1       3.690   6.179  16.753  0.00  0.00    +0.000 HD
ENDBRANCH  12  18
ENDBRANCH   2   5
BRANCH   1  26
ATOM     21  C   UNL     1       0.185  12.353  21.357  0.00  0.00    +0.000 A 
ATOM     22  C   UNL     1      -0.144  13.571  21.995  0.00  0.00    +0.000 A 
ATOM     23  C   UNL     1      -1.038  13.615  23.066  0.00  0.00    +0.000 A 
ATOM     24  C   UNL     1      -1.683  12.451  23.465  0.00  0.00    +0.000 A 
ATOM     25  C   UNL     1      -1.397  11.247  22.817  0.00  0.00    +0.000 A 
ATOM     26  C   UNL     1      -0.450  11.164  21.781  0.00  0.00    +0.000 A 
BRANCH  23  27
ATOM     27  C   UNL     1      -1.260  14.912  23.742  0.00  0.00    +0.000 C 
ATOM     28  O   UNL     1      -0.347  15.584  24.198  0.00  0.00    +0.000 OA
BRANCH  27  29
ATOM     29  O   UNL     1      -2.560  15.242  23.871  0.00  0.00    +0.000 OA
ATOM     30  H   UNL     1      -2.964  15.638  23.076  0.00  0.00    +0.000 HD
ENDBRANCH  27  29
ENDBRANCH  23  27
BRANCH  21  31
ATOM     31  C   UNL     1       1.295  12.424  20.323  0.00  0.00    +0.000 C 
BRANCH  31  32
ATOM     32  N   UNL     1       0.882  12.348  18.914  0.00  0.00    +0.000 NA
ATOM     33  C   UNL     1       1.968  12.904  18.091  0.00  0.00    +0.000 C 
BRANCH  32  34
ATOM     34  C   UNL     1      -0.385  13.066  18.662  0.00  0.00    +0.000 C 
BRANCH  34  35
ATOM     35  C   UNL     1      -1.502  12.180  18.088  0.00  0.00    +0.000 C 
BRANCH  35  36
ATOM     36  C   UNL     1      -1.105  10.701  18.043  0.00  0.00    +0.000 C 
BRANCH  36  38
ATOM     37  C   UNL     1      -3.482  10.236  17.376  0.00  0.00    +0.000 C 
ATOM     38  C   UNL     1      -2.021   9.910  17.111  0.00  0.00    +0.000 C 
ENDBRANCH  36  38
ENDBRANCH  35  36
ENDBRANCH  34  35
ENDBRANCH  32  34
ENDBRANCH  31  32
ENDBRANCH  21  31
ENDBRANCH   1  26
TORSDOF 11
ENDMDL
MODEL 9
REMARK VINA RESULT:      -7.6      1.476      2.768
REMARK  Name = 
REMARK  14 active torsions:
REMARK  status: ('A' for Active; 'I' for Inactive)
REMARK    1  A    between atoms: C_1  and  C_2
REMARK    2  A    between atoms: C_2  and  C_3
REMARK    3  A    between atoms: C_3  and  C_4
REMARK    4  A    between atoms: C_4  and  C_5
REMARK    5  A    between atoms: C_5  and  N_6
REMARK    6  A    between atoms: N_6  and  C_7
REMARK    7  A    between atoms: N_6  and  C_8
REMARK    8  A    between atoms: C_8  and  C_9
REMARK    9  A    between atoms: C_11  and  C_12
REMARK   10  A    between atoms: C_12  and  O_14
REMARK   11  A    between atoms: C_17  and  N_18
REMARK   12  A    between atoms: C_19  and  C_21
REMARK   13  A    between atoms: C_28  and  N_29
REMARK   14  A    between atoms: N_29  and  C_30
REMARK                            x       y       z     vdW  Elec       q    Type
REMARK                         _______ _______ _______ _____ _____    ______ ____
ROOT
ATOM      1  N   UNL     1       2.029   7.598  19.433  0.00  0.00    +0.000 N 
ATOM      2  C   UNL     1       1.606   8.375  20.500  0.00  0.00    +0.000 C 
ATOM      3  O   UNL     1       1.784   8.110  21.690  0.00  0.00    +0.000 OA
ATOM      4  H   UNL     1       1.847   7.949  18.488  0.00  0.00    +0.000 HD
ENDROOT
BRANCH   2   5
ATOM      5  C   UNL     1       0.755   9.561  20.155  0.00  0.00    +0.000 A 
ATOM      6  C   UNL     1       0.125  10.185  21.167  0.00  0.00    +0.000 A 
ATOM      7  C   UNL     1      -0.941  11.157  20.922  0.00  0.00    +0.000 A 
ATOM      8  C   UNL     1      -1.591  11.818  21.959  0.00  0.00    +0.000 A 
ATOM      9  C   UNL     1      -2.685  12.624  21.663  0.00  0.00    +0.000 A 
ATOM     10  F   UNL     1      -3.308  13.272  22.657  0.00  0.00    +0.000 F 
ATOM     11  C   UNL     1      -3.160  12.766  20.358  0.00  0.00    +0.000 A 
ATOM     12  C   UNL     1      -2.520  12.119  19.299  0.00  0.00    +0.000 A 
ATOM     13  C   UNL     1      -1.383  11.341  19.605  0.00  0.00    +0.000 A 
ATOM     14  N   UNL     1      -0.668  10.728  18.564  0.00  0.00    +0.000 N 
ATOM     15  C   UNL     1       0.444   9.954  18.753  0.00  0.00    +0.000 A 
ATOM     16  O   UNL     1       1.120   9.563  17.805  0.00  0.00    +0.000 OA
ATOM     17  H   UNL     1      -0.979  10.881  17.615  0.00  0.00    +0.000 HD
BRANCH  12  18
ATOM     18  N   UNL     1      -2.935  12.207  17.958  0.00  0.00    +0.000 N 
ATOM     19  C   UNL     1      -4.124  11.486  17.526  0.00  0.00    +0.000 C 
ATOM     20  H   UNL     1      -2.969  13.185  17.672  0.00  0.00    +0.000 HD
ENDBRANCH  12  18
ENDBRANCH   2   5
BRANCH   1  26
ATOM     21  C   UNL     1       3.569   5.858  18.630  0.00  0.00    +0.000 A 
ATOM     22  C   UNL     1       4.027   4.522  18.698  0.00  0.00    +0.000 A 
ATOM     23  C   UNL     1       3.464   3.603  19.584  0.00  0.00    +0.000 A 
ATOM     24  C   UNL     1       2.486   4.025  20.476  0.00  0.00    +0.000 A 
ATOM     25  C   UNL     1       2.053   5.352  20.447  0.00  0.00    +0.000 A 
ATOM     26  C   UNL     1       2.555   6.281  19.518  0.00  0.00    +0.000 A 
BRANCH  23  27
ATOM     27  C   UNL     1       3.932   2.200  19.532  0.00  0.00    +0.000 C 
ATOM     28  O   UNL     1       4.912   1.808  20.145  0.00  0.00    +0.000 OA
BRANCH  27  29
ATOM     29  O   UNL     1       3.222   1.422  18.691  0.00  0.00    +0.000 OA
ATOM     30  H   UNL     1       2.431   1.845  18.309  0.00  0.00    +0.000 HD
ENDBRANCH  27  29
ENDBRANCH  23  27
BRANCH  21  31
ATOM     31  C   UNL     1       4.149   6.701  17.508  0.00  0.00    +0.000 C 
BRANCH  31  32
ATOM     32  N   UNL     1       5.555   6.448  17.160  0.00  0.00    +0.000 NA
ATOM     33  C   UNL     1       5.582   5.479  16.052  0.00  0.00    +0.000 C 
BRANCH  32  34
ATOM     34  C   UNL     1       6.336   5.950  18.310  0.00  0.00    +0.000 C 
BRANCH  34  35
ATOM     35  C   UNL     1       7.741   6.564  18.425  0.00  0.00    +0.000 C 
BRANCH  35  36
ATOM     36  C   UNL     1       7.819   7.959  17.797  0.00  0.00    +0.000 C 
BRANCH  36  38
ATOM     37  C   UNL     1       8.697  10.298  18.053  0.00  0.00    +0.000 C 
ATOM     38  C   UNL     1       8.708   8.887  18.620  0.00  0.00    +0.000 C 
ENDBRANCH  36  38
ENDBRANCH  35  36
ENDBRANCH  34  35
ENDBRANCH  32  34
ENDBRANCH  31  32
ENDBRANCH  21  31
ENDBRANCH   1  26
TORSDOF 11
ENDMDL
