MODEL 1
REMARK VINA RESULT:      -7.8      0.000      0.000
REMARK  Name = 
REMARK  5 active torsions:
REMARK  status: ('A' for Active; 'I' for Inactive)
REMARK    1  A    between atoms: C_1  and  O_2
REMARK    2  A    between atoms: O_2  and  C_3
REMARK    3  A    between atoms: C_3  and  C_5
REMARK    4  A    between atoms: C_5  and  C_16
REMARK    5  A    between atoms: C_11  and  C_12
REMARK                            x       y       z     vdW  Elec       q    Type
REMARK                         _______ _______ _______ _____ _____    ______ ____
ROOT
ATOM      1  C   UNL     1       5.958   4.846  16.377  0.00  0.00    +0.000 C 
ATOM      2  C   UNL     1       5.075   4.305  17.237  0.00  0.00    +0.000 C 
ATOM      3  O   UNL     1       3.731   4.082  16.881  0.00  0.00    +0.000 OA
ATOM      4  C   UNL     1       3.006   3.704  17.987  0.00  0.00    +0.000 A 
ATOM      5  C   UNL     1       1.632   3.518  18.004  0.00  0.00    +0.000 A 
ATOM      6  C   UNL     1       1.014   3.193  19.220  0.00  0.00    +0.000 A 
ATOM      7  C   UNL     1       1.766   3.063  20.406  0.00  0.00    +0.000 A 
ATOM      8  C   UNL     1       1.126   2.753  21.725  0.00  0.00    +0.000 C 
ATOM      9  C   UNL     1       3.152   3.243  20.364  0.00  0.00    +0.000 A 
ATOM     10  C   UNL     1       3.750   3.551  19.156  0.00  0.00    +0.000 A 
ATOM     11  S   UNL     1       5.459   3.816  18.877  0.00  0.00    +0.000 S 
ENDROOT
BRANCH   1  12
ATOM     12  C   UNL     1       5.636   5.131  14.966  0.00  0.00    +0.000 C 
ATOM     13  F   UNL     1       4.846   4.207  14.358  0.00  0.00    +0.000 F 
ATOM     14  F   UNL     1       5.002   6.325  14.825  0.00  0.00    +0.000 F 
ATOM     15  F   UNL     1       6.760   5.208  14.197  0.00  0.00    +0.000 F 
ENDBRANCH   1  12
BRANCH   1  16
ATOM     16  C   UNL     1       7.349   5.147  16.748  0.00  0.00    +0.000 C 
ATOM     17  O   UNL     1       8.183   4.296  17.006  0.00  0.00    +0.000 OA
BRANCH  16  19
ATOM     18  C   UNL     1       7.746   7.124  18.013  0.00  0.00    +0.000 C 
ATOM     19  O   UNL     1       7.563   6.488  16.745  0.00  0.00    +0.000 OA
ENDBRANCH  16  19
ENDBRANCH   1  16
TORSDOF 3
ENDMDL
MODEL 2
REMARK VINA RESULT:      -7.3      1.026      1.322
REMARK  Name = 
REMARK  5 active torsions:
REMARK  status: ('A' for Active; 'I' for Inactive)
REMARK    1  A    between atoms: C_1  and  O_2
REMARK    2  A    between atoms: O_2  and  C_3
REMARK    3  A    between atoms: C_3  and  C_5
REMARK    4  A    between atoms: C_5  and  C_16
REMARK    5  A    between atoms: C_11  and  C_12
REMARK                            x       y       z     vdW  Elec       q    Type
REMARK                         _______ _______ _______ _____ _____    ______ ____
ROOT
ATOM      1  C   UNL     1       5.931   5.125  16.491  0.00  0.00    +0.000 C 
ATOM      2  C   UNL     1       5.177   4.515  17.424  0.00  0.00    +0.000 C 
ATOM      3  O   UNL     1       4.402   3.377  17.127  0.00  0.00    +0.000 OA
ATOM      4  C   UNL     1       3.589   3.068  18.193  0.00  0.00    +0.000 A 
ATOM      5  C   UNL     1       2.622   2.075  18.184  0.00  0.00    +0.000 A 
ATOM      6  C   UNL     1       1.819   1.910  19.323  0.00  0.00    +0.000 A 
ATOM      7  C   UNL     1       1.982   2.739  20.453  0.00  0.00    +0.000 A 
ATOM      8  C   UNL     1       1.113   2.609  21.668  0.00  0.00    +0.000 C 
ATOM      9  C   UNL     1       2.971   3.727  20.444  0.00  0.00    +0.000 A 
ATOM     10  C   UNL     1       3.763   3.869  19.320  0.00  0.00    +0.000 A 
ATOM     11  S   UNL     1       5.053   5.034  19.096  0.00  0.00    +0.000 S 
ENDROOT
BRANCH   1  12
ATOM     12  C   UNL     1       6.112   4.593  15.128  0.00  0.00    +0.000 C 
ATOM     13  F   UNL     1       6.250   3.242  15.051  0.00  0.00    +0.000 F 
ATOM     14  F   UNL     1       5.066   4.913  14.319  0.00  0.00    +0.000 F 
ATOM     15  F   UNL     1       7.224   5.106  14.529  0.00  0.00    +0.000 F 
ENDBRANCH   1  12
BRANCH   1  16
ATOM     16  C   UNL     1       6.696   6.351  16.763  0.00  0.00    +0.000 C 
ATOM     17  O   UNL     1       6.325   7.468  16.446  0.00  0.00    +0.000 OA
BRANCH  16  19
ATOM     18  C   UNL     1       8.118   6.785  18.623  0.00  0.00    +0.000 C 
ATOM     19  O   UNL     1       7.847   6.058  17.421  0.00  0.00    +0.000 OA
ENDBRANCH  16  19
ENDBRANCH   1  16
TORSDOF 3
ENDMDL
MODEL 3
REMARK VINA RESULT:      -7.2      0.793      1.018
REMARK  Name = 
REMARK  5 active torsions:
REMARK  status: ('A' for Active; 'I' for Inactive)
REMARK    1  A    between atoms: C_1  and  O_2
REMARK    2  A    between atoms: O_2  and  C_3
REMARK    3  A    between atoms: C_3  and  C_5
REMARK    4  A    between atoms: C_5  and  C_16
REMARK    5  A    between atoms: C_11  and  C_12
REMARK                            x       y       z     vdW  Elec       q    Type
REMARK                         _______ _______ _______ _____ _____    ______ ____
ROOT
ATOM      1  C   UNL     1       6.104   4.875  16.513  0.00  0.00    +0.000 C 
ATOM      2  C   UNL     1       5.256   4.296  17.383  0.00  0.00    +0.000 C 
ATOM      3  O   UNL     1       4.183   3.492  16.952  0.00  0.00    +0.000 OA
ATOM      4  C   UNL     1       3.367   3.184  18.016  0.00  0.00    +0.000 A 
ATOM      5  C   UNL     1       2.163   2.503  17.915  0.00  0.00    +0.000 A 
ATOM      6  C   UNL     1       1.401   2.313  19.077  0.00  0.00    +0.000 A 
ATOM      7  C   UNL     1       1.840   2.806  20.323  0.00  0.00    +0.000 A 
ATOM      8  C   UNL     1       1.027   2.649  21.573  0.00  0.00    +0.000 C 
ATOM      9  C   UNL     1       3.063   3.480  20.404  0.00  0.00    +0.000 A 
ATOM     10  C   UNL     1       3.809   3.649  19.253  0.00  0.00    +0.000 A 
ATOM     11  S   UNL     1       5.359   4.457  19.127  0.00  0.00    +0.000 S 
ENDROOT
BRANCH   1  12
ATOM     12  C   UNL     1       6.066   4.620  15.061  0.00  0.00    +0.000 C 
ATOM     13  F   UNL     1       4.966   5.098  14.421  0.00  0.00    +0.000 F 
ATOM     14  F   UNL     1       7.140   5.163  14.426  0.00  0.00    +0.000 F 
ATOM     15  F   UNL     1       6.098   3.286  14.781  0.00  0.00    +0.000 F 
ENDBRANCH   1  12
BRANCH   1  16
ATOM     16  C   UNL     1       7.191   5.770  16.937  0.00  0.00    +0.000 C 
ATOM     17  O   UNL     1       8.233   5.384  17.438  0.00  0.00    +0.000 OA
BRANCH  16  19
ATOM     18  C   UNL     1       7.501   8.068  17.479  0.00  0.00    +0.000 C 
ATOM     19  O   UNL     1       6.871   7.064  16.677  0.00  0.00    +0.000 OA
ENDBRANCH  16  19
ENDBRANCH   1  16
TORSDOF 3
ENDMDL
MODEL 4
REMARK VINA RESULT:      -6.9      2.194      2.846
REMARK  Name = 
REMARK  5 active torsions:
REMARK  status: ('A' for Active; 'I' for Inactive)
REMARK    1  A    between atoms: C_1  and  O_2
REMARK    2  A    between atoms: O_2  and  C_3
REMARK    3  A    between atoms: C_3  and  C_5
REMARK    4  A    between atoms: C_5  and  C_16
REMARK    5  A    between atoms: C_11  and  C_12
REMARK                            x       y       z     vdW  Elec       q    Type
REMARK                         _______ _______ _______ _____ _____    ______ ____
ROOT
ATOM      1  C   UNL     1       6.506   5.807  17.101  0.00  0.00    +0.000 C 
ATOM      2  C   UNL     1       5.303   5.427  17.570  0.00  0.00    +0.000 C 
ATOM      3  O   UNL     1       4.636   6.148  18.579  0.00  0.00    +0.000 OA
ATOM      4  C   UNL     1       3.530   5.450  19.006  0.00  0.00    +0.000 A 
ATOM      5  C   UNL     1       2.721   5.827  20.066  0.00  0.00    +0.000 A 
ATOM      6  C   UNL     1       1.660   4.986  20.433  0.00  0.00    +0.000 A 
ATOM      7  C   UNL     1       1.421   3.777  19.747  0.00  0.00    +0.000 A 
ATOM      8  C   UNL     1       0.318   2.842  20.143  0.00  0.00    +0.000 C 
ATOM      9  C   UNL     1       2.243   3.422  18.673  0.00  0.00    +0.000 A 
ATOM     10  C   UNL     1       3.276   4.267  18.314  0.00  0.00    +0.000 A 
ATOM     11  S   UNL     1       4.419   4.019  17.010  0.00  0.00    +0.000 S 
ENDROOT
BRANCH   1  12
ATOM     12  C   UNL     1       7.166   7.064  17.503  0.00  0.00    +0.000 C 
ATOM     13  F   UNL     1       8.153   7.487  16.670  0.00  0.00    +0.000 F 
ATOM     14  F   UNL     1       6.280   8.091  17.595  0.00  0.00    +0.000 F 
ATOM     15  F   UNL     1       7.750   6.957  18.731  0.00  0.00    +0.000 F 
ENDBRANCH   1  12
BRANCH   1  16
ATOM     16  C   UNL     1       7.249   5.034  16.095  0.00  0.00    +0.000 C 
ATOM     17  O   UNL     1       8.068   4.174  16.367  0.00  0.00    +0.000 OA
BRANCH  16  19
ATOM     18  C   UNL     1       6.598   4.362  13.905  0.00  0.00    +0.000 C 
ATOM     19  O   UNL     1       6.881   5.406  14.842  0.00  0.00    +0.000 OA
ENDBRANCH  16  19
ENDBRANCH   1  16
TORSDOF 3
ENDMDL
MODEL 5
REMARK VINA RESULT:      -6.9      2.605      3.390
REMARK  Name = 
REMARK  5 active torsions:
REMARK  status: ('A' for Active; 'I' for Inactive)
REMARK    1  A    between atoms: C_1  and  O_2
REMARK    2  A    between atoms: O_2  and  C_3
REMARK    3  A    between atoms: C_3  and  C_5
REMARK    4  A    between atoms: C_5  and  C_16
REMARK    5  A    between atoms: C_11  and  C_12
REMARK                            x       y       z     vdW  Elec       q    Type
REMARK                         _______ _______ _______ _____ _____    ______ ____
ROOT
ATOM      1  C   UNL     1       6.746   5.809  18.097  0.00  0.00    +0.000 C 
ATOM      2  C   UNL     1       5.555   5.248  18.374  0.00  0.00    +0.000 C 
ATOM      3  O   UNL     1       5.360   4.437  19.510  0.00  0.00    +0.000 OA
ATOM      4  C   UNL     1       4.121   3.841  19.457  0.00  0.00    +0.000 A 
ATOM      5  C   UNL     1       3.662   2.896  20.361  0.00  0.00    +0.000 A 
ATOM      6  C   UNL     1       2.399   2.324  20.150  0.00  0.00    +0.000 A 
ATOM      7  C   UNL     1       1.611   2.692  19.040  0.00  0.00    +0.000 A 
ATOM      8  C   UNL     1       0.274   2.068  18.771  0.00  0.00    +0.000 C 
ATOM      9  C   UNL     1       2.088   3.656  18.148  0.00  0.00    +0.000 A 
ATOM     10  C   UNL     1       3.329   4.221  18.375  0.00  0.00    +0.000 A 
ATOM     11  S   UNL     1       4.115   5.439  17.390  0.00  0.00    +0.000 S 
ENDROOT
BRANCH   1  12
ATOM     12  C   UNL     1       7.904   5.732  19.009  0.00  0.00    +0.000 C 
ATOM     13  F   UNL     1       7.591   5.626  20.328  0.00  0.00    +0.000 F 
ATOM     14  F   UNL     1       8.702   4.670  18.722  0.00  0.00    +0.000 F 
ATOM     15  F   UNL     1       8.696   6.837  18.912  0.00  0.00    +0.000 F 
ENDBRANCH   1  12
BRANCH   1  16
ATOM     16  C   UNL     1       6.989   6.605  16.885  0.00  0.00    +0.000 C 
ATOM     17  O   UNL     1       6.630   7.761  16.748  0.00  0.00    +0.000 OA
BRANCH  16  19
ATOM     18  C   UNL     1       6.906   5.069  15.068  0.00  0.00    +0.000 C 
ATOM     19  O   UNL     1       7.674   5.876  15.966  0.00  0.00    +0.000 OA
ENDBRANCH  16  19
ENDBRANCH   1  16
TORSDOF 3
ENDMDL
MODEL 6
REMARK VINA RESULT:      -6.9      3.057      6.137
REMARK  Name = 
REMARK  5 active torsions:
REMARK  status: ('A' for Active; 'I' for Inactive)
REMARK    1  A    between atoms: C_1  and  O_2
REMARK    2  A    between atoms: O_2  and  C_3
REMARK    3  A    between atoms: C_3  and  C_5
REMARK    4  A    between atoms: C_5  and  C_16
REMARK    5  A    between atoms: C_11  and  C_12
REMARK                            x       y       z     vdW  Elec       q    Type
REMARK                         _______ _______ _______ _____ _____    ______ ____
ROOT
ATOM      1  C   UNL     1       2.870   3.420  18.601  0.00  0.00    +0.000 C 
ATOM      2  C   UNL     1       3.878   4.256  18.289  0.00  0.00    +0.000 C 
ATOM      3  O   UNL     1       5.225   3.920  18.529  0.00  0.00    +0.000 OA
ATOM      4  C   UNL     1       6.032   5.010  18.300  0.00  0.00    +0.000 A 
ATOM      5  C   UNL     1       7.394   5.049  18.553  0.00  0.00    +0.000 A 
ATOM      6  C   UNL     1       8.083   6.250  18.330  0.00  0.00    +0.000 A 
ATOM      7  C   UNL     1       7.409   7.400  17.867  0.00  0.00    +0.000 A 
ATOM      8  C   UNL     1       8.115   8.706  17.657  0.00  0.00    +0.000 C 
ATOM      9  C   UNL     1       6.037   7.334  17.608  0.00  0.00    +0.000 A 
ATOM     10  C   UNL     1       5.373   6.141  17.819  0.00  0.00    +0.000 A 
ATOM     11  S   UNL     1       3.667   5.838  17.561  0.00  0.00    +0.000 S 
ENDROOT
BRANCH   1  12
ATOM     12  C   UNL     1       3.086   2.047  19.096  0.00  0.00    +0.000 C 
ATOM     13  F   UNL     1       1.952   1.340  19.343  0.00  0.00    +0.000 F 
ATOM     14  F   UNL     1       3.813   1.305  18.219  0.00  0.00    +0.000 F 
ATOM     15  F   UNL     1       3.783   2.037  20.268  0.00  0.00    +0.000 F 
ENDBRANCH   1  12
BRANCH   1  16
ATOM     16  C   UNL     1       1.455   3.776  18.418  0.00  0.00    +0.000 C 
ATOM     17  O   UNL     1       0.931   3.942  17.330  0.00  0.00    +0.000 OA
BRANCH  16  19
ATOM     18  C   UNL     1       1.314   4.869  20.528  0.00  0.00    +0.000 C 
ATOM     19  O   UNL     1       0.830   3.876  19.619  0.00  0.00    +0.000 OA
ENDBRANCH  16  19
ENDBRANCH   1  16
TORSDOF 3
ENDMDL
MODEL 7
REMARK VINA RESULT:      -6.9      3.251      6.252
REMARK  Name = 
REMARK  5 active torsions:
REMARK  status: ('A' for Active; 'I' for Inactive)
REMARK    1  A    between atoms: C_1  and  O_2
REMARK    2  A    between atoms: O_2  and  C_3
REMARK    3  A    between atoms: C_3  and  C_5
REMARK    4  A    between atoms: C_5  and  C_16
REMARK    5  A    between atoms: C_11  and  C_12
REMARK                            x       y       z     vdW  Elec       q    Type
REMARK                         _______ _______ _______ _____ _____    ______ ____
ROOT
ATOM      1  C   UNL     1       3.085   3.495  18.952  0.00  0.00    +0.000 C 
ATOM      2  C   UNL     1       4.089   4.315  18.593  0.00  0.00    +0.000 C 
ATOM      3  O   UNL     1       5.410   4.112  19.037  0.00  0.00    +0.000 OA
ATOM      4  C   UNL     1       6.196   5.186  18.688  0.00  0.00    +0.000 A 
ATOM      5  C   UNL     1       7.517   5.354  19.072  0.00  0.00    +0.000 A 
ATOM      6  C   UNL     1       8.181   6.531  18.695  0.00  0.00    +0.000 A 
ATOM      7  C   UNL     1       7.523   7.529  17.948  0.00  0.00    +0.000 A 
ATOM      8  C   UNL     1       8.198   8.812  17.564  0.00  0.00    +0.000 C 
ATOM      9  C   UNL     1       6.194   7.334  17.561  0.00  0.00    +0.000 A 
ATOM     10  C   UNL     1       5.556   6.164  17.928  0.00  0.00    +0.000 A 
ATOM     11  S   UNL     1       3.904   5.716  17.552  0.00  0.00    +0.000 S 
ENDROOT
BRANCH   1  12
ATOM     12  C   UNL     1       3.294   2.256  19.725  0.00  0.00    +0.000 C 
ATOM     13  F   UNL     1       4.368   1.515  19.344  0.00  0.00    +0.000 F 
ATOM     14  F   UNL     1       3.459   2.512  21.050  0.00  0.00    +0.000 F 
ATOM     15  F   UNL     1       2.223   1.417  19.632  0.00  0.00    +0.000 F 
ENDBRANCH   1  12
BRANCH   1  16
ATOM     16  C   UNL     1       1.688   3.725  18.553  0.00  0.00    +0.000 C 
ATOM     17  O   UNL     1       1.293   3.670  17.401  0.00  0.00    +0.000 OA
BRANCH  16  19
ATOM     18  C   UNL     1       1.321   5.073  20.480  0.00  0.00    +0.000 C 
ATOM     19  O   UNL     1       0.919   3.987  19.641  0.00  0.00    +0.000 OA
ENDBRANCH  16  19
ENDBRANCH   1  16
TORSDOF 3
ENDMDL
MODEL 8
REMARK VINA RESULT:      -6.7      3.923      4.495
REMARK  Name = 
REMARK  5 active torsions:
REMARK  status: ('A' for Active; 'I' for Inactive)
REMARK    1  A    between atoms: C_1  and  O_2
REMARK    2  A    between atoms: O_2  and  C_3
REMARK    3  A    between atoms: C_3  and  C_5
REMARK    4  A    between atoms: C_5  and  C_16
REMARK    5  A    between atoms: C_11  and  C_12
REMARK                            x       y       z     vdW  Elec       q    Type
REMARK                         _______ _______ _______ _____ _____    ______ ____
ROOT
ATOM      1  C   UNL     1       4.697   5.437  17.740  0.00  0.00    +0.000 C 
ATOM      2  C   UNL     1       3.726   6.244  18.206  0.00  0.00    +0.000 C 
ATOM      3  O   UNL     1       3.296   7.379  17.492  0.00  0.00    +0.000 OA
ATOM      4  C   UNL     1       2.441   8.128  18.266  0.00  0.00    +0.000 A 
ATOM      5  C   UNL     1       1.927   9.364  17.905  0.00  0.00    +0.000 A 
ATOM      6  C   UNL     1       1.114  10.047  18.822  0.00  0.00    +0.000 A 
ATOM      7  C   UNL     1       0.828   9.497  20.089  0.00  0.00    +0.000 A 
ATOM      8  C   UNL     1      -0.007  10.223  21.101  0.00  0.00    +0.000 C 
ATOM      9  C   UNL     1       1.346   8.244  20.428  0.00  0.00    +0.000 A 
ATOM     10  C   UNL     1       2.135   7.577  19.510  0.00  0.00    +0.000 A 
ATOM     11  S   UNL     1       2.883   6.007  19.726  0.00  0.00    +0.000 S 
ENDROOT
BRANCH   1  12
ATOM     12  C   UNL     1       5.299   5.592  16.402  0.00  0.00    +0.000 C 
ATOM     13  F   UNL     1       5.080   6.795  15.808  0.00  0.00    +0.000 F 
ATOM     14  F   UNL     1       6.649   5.425  16.435  0.00  0.00    +0.000 F 
ATOM     15  F   UNL     1       4.825   4.662  15.524  0.00  0.00    +0.000 F 
ENDBRANCH   1  12
BRANCH   1  16
ATOM     16  C   UNL     1       5.206   4.284  18.497  0.00  0.00    +0.000 C 
ATOM     17  O   UNL     1       6.146   4.342  19.271  0.00  0.00    +0.000 OA
BRANCH  16  19
ATOM     18  C   UNL     1       3.990   2.416  19.334  0.00  0.00    +0.000 C 
ATOM     19  O   UNL     1       4.477   3.173  18.221  0.00  0.00    +0.000 OA
ENDBRANCH  16  19
ENDBRANCH   1  16
TORSDOF 3
ENDMDL
MODEL 9
REMARK VINA RESULT:      -6.7      1.751      2.422
REMARK  Name = 
REMARK  5 active torsions:
REMARK  status: ('A' for Active; 'I' for Inactive)
REMARK    1  A    between atoms: C_1  and  O_2
REMARK    2  A    between atoms: O_2  and  C_3
REMARK    3  A    between atoms: C_3  and  C_5
REMARK    4  A    between atoms: C_5  and  C_16
REMARK    5  A    between atoms: C_11  and  C_12
REMARK                            x       y       z     vdW  Elec       q    Type
REMARK                         _______ _______ _______ _____ _____    ______ ____
ROOT
ATOM      1  C   UNL     1       6.322   5.523  17.401  0.00  0.00    +0.000 C 
ATOM      2  C   UNL     1       5.268   5.025  18.075  0.00  0.00    +0.000 C 
ATOM      3  O   UNL     1       4.230   5.852  18.548  0.00  0.00    +0.000 OA
ATOM      4  C   UNL     1       3.384   5.131  19.358  0.00  0.00    +0.000 A 
ATOM      5  C   UNL     1       2.327   5.671  20.074  0.00  0.00    +0.000 A 
ATOM      6  C   UNL     1       1.584   4.827  20.912  0.00  0.00    +0.000 A 
ATOM      7  C   UNL     1       1.904   3.459  21.035  0.00  0.00    +0.000 A 
ATOM      8  C   UNL     1       1.149   2.544  21.952  0.00  0.00    +0.000 C 
ATOM      9  C   UNL     1       2.967   2.933  20.295  0.00  0.00    +0.000 A 
ATOM     10  C   UNL     1       3.683   3.773  19.463  0.00  0.00    +0.000 A 
ATOM     11  S   UNL     1       5.043   3.327  18.453  0.00  0.00    +0.000 S 
ENDROOT
BRANCH   1  12
ATOM     12  C   UNL     1       6.421   6.936  16.991  0.00  0.00    +0.000 C 
ATOM     13  F   UNL     1       5.941   7.832  17.894  0.00  0.00    +0.000 F 
ATOM     14  F   UNL     1       7.708   7.299  16.743  0.00  0.00    +0.000 F 
ATOM     15  F   UNL     1       5.732   7.177  15.840  0.00  0.00    +0.000 F 
ENDBRANCH   1  12
BRANCH   1  16
ATOM     16  C   UNL     1       7.447   4.688  16.956  0.00  0.00    +0.000 C 
ATOM     17  O   UNL     1       8.226   4.136  17.714  0.00  0.00    +0.000 OA
BRANCH  16  19
ATOM     18  C   UNL     1       6.415   3.905  14.959  0.00  0.00    +0.000 C 
ATOM     19  O   UNL     1       7.478   4.615  15.600  0.00  0.00    +0.000 OA
ENDBRANCH  16  19
ENDBRANCH   1  16
TORSDOF 3
ENDMDL
