MODEL 1
REMARK VINA RESULT:      -8.2      0.000      0.000
REMARK  Name = 
REMARK  5 active torsions:
REMARK  status: ('A' for Active; 'I' for Inactive)
REMARK    1  A    between atoms: C_1  and  C_2
REMARK    2  A    between atoms: C_2  and  C_3
REMARK    3  A    between atoms: C_3  and  C_4
REMARK    4  A    between atoms: C_6  and  N_7
REMARK    5  A    between atoms: N_7  and  C_8
REMARK                            x       y       z     vdW  Elec       q    Type
REMARK                         _______ _______ _______ _____ _____    ______ ____
ROOT
ATOM      1  C   UNL     1       6.557   4.669  15.201  0.00  0.00    +0.000 A 
ATOM      2  C   UNL     1       5.317   5.397  15.619  0.00  0.00    +0.000 A 
ATOM      3  C   UNL     1       5.258   5.838  16.885  0.00  0.00    +0.000 A 
ATOM      4  N   UNL     1       6.349   5.532  17.735  0.00  0.00    +0.000 N 
ATOM      5  N   UNL     1       6.513   5.827  19.056  0.00  0.00    +0.000 NA
ATOM      6  C   UNL     1       7.678   5.236  19.323  0.00  0.00    +0.000 A 
ATOM      7  N   UNL     1       8.282   4.605  18.277  0.00  0.00    +0.000 NA
ATOM      8  C   UNL     1       7.451   4.793  17.281  0.00  0.00    +0.000 A 
ATOM      9  N   UNL     1       7.555   4.383  15.980  0.00  0.00    +0.000 NA
ENDROOT
BRANCH   3  10
ATOM     10  N   UNL     1       4.200   6.614  17.371  0.00  0.00    +0.000 N 
ATOM     11  H   UNL     1       4.553   7.445  17.860  0.00  0.00    +0.000 HD
BRANCH  10  12
ATOM     12  C   UNL     1       2.996   6.043  18.004  0.00  0.00    +0.000 C 
ATOM     13  C   UNL     1       3.177   6.125  19.531  0.00  0.00    +0.000 C 
ATOM     14  C   UNL     1       1.954   5.578  20.269  0.00  0.00    +0.000 C 
ATOM     15  C   UNL     1       1.531   4.272  19.712  0.00  0.00    +0.000 A 
ATOM     16  N   UNL     1       0.790   3.340  20.266  0.00  0.00    +0.000 NA
ATOM     17  C   UNL     1       0.729   2.379  19.294  0.00  0.00    +0.000 A 
ATOM     18  N   UNL     1       1.379   2.667  18.163  0.00  0.00    +0.000 NA
ATOM     19  N   UNL     1       1.879   3.879  18.451  0.00  0.00    +0.000 N 
ATOM     20  C   UNL     1       2.746   4.592  17.543  0.00  0.00    +0.000 C 
ENDBRANCH  10  12
ENDBRANCH   3  10
BRANCH   1  21
ATOM     21  C   UNL     1       6.644   4.287  13.733  0.00  0.00    +0.000 C 
BRANCH  21  23
ATOM     22  C   UNL     1       5.456   3.072  11.885  0.00  0.00    +0.000 C 
ATOM     23  C   UNL     1       5.298   3.797  13.211  0.00  0.00    +0.000 C 
ENDBRANCH  21  23
ENDBRANCH   1  21
TORSDOF 4
ENDMDL
MODEL 2
REMARK VINA RESULT:      -8.2      2.070      4.027
REMARK  Name = 
REMARK  5 active torsions:
REMARK  status: ('A' for Active; 'I' for Inactive)
REMARK    1  A    between atoms: C_1  and  C_2
REMARK    2  A    between atoms: C_2  and  C_3
REMARK    3  A    between atoms: C_3  and  C_4
REMARK    4  A    between atoms: C_6  and  N_7
REMARK    5  A    between atoms: N_7  and  C_8
REMARK                            x       y       z     vdW  Elec       q    Type
REMARK                         _______ _______ _______ _____ _____    ______ ____
ROOT
ATOM      1  C   UNL     1       7.162   5.968  17.094  0.00  0.00    +0.000 A 
ATOM      2  C   UNL     1       6.197   4.906  17.521  0.00  0.00    +0.000 A 
ATOM      3  C   UNL     1       5.792   4.030  16.588  0.00  0.00    +0.000 A 
ATOM      4  N   UNL     1       6.269   4.216  15.267  0.00  0.00    +0.000 N 
ATOM      5  N   UNL     1       5.980   3.498  14.144  0.00  0.00    +0.000 NA
ATOM      6  C   UNL     1       6.654   4.170  13.211  0.00  0.00    +0.000 A 
ATOM      7  N   UNL     1       7.366   5.247  13.647  0.00  0.00    +0.000 NA
ATOM      8  C   UNL     1       7.127   5.275  14.936  0.00  0.00    +0.000 A 
ATOM      9  N   UNL     1       7.595   6.144  15.882  0.00  0.00    +0.000 NA
ENDROOT
BRANCH   3  10
ATOM     10  N   UNL     1       4.971   2.936  16.878  0.00  0.00    +0.000 N 
ATOM     11  H   UNL     1       4.900   2.309  16.067  0.00  0.00    +0.000 HD
BRANCH  10  12
ATOM     12  C   UNL     1       3.709   3.043  17.635  0.00  0.00    +0.000 C 
ATOM     13  C   UNL     1       3.213   4.496  17.529  0.00  0.00    +0.000 C 
ATOM     14  C   UNL     1       1.887   4.690  18.265  0.00  0.00    +0.000 C 
ATOM     15  C   UNL     1       1.934   4.093  19.621  0.00  0.00    +0.000 A 
ATOM     16  N   UNL     1       1.173   4.346  20.661  0.00  0.00    +0.000 NA
ATOM     17  C   UNL     1       1.669   3.501  21.617  0.00  0.00    +0.000 A 
ATOM     18  N   UNL     1       2.687   2.731  21.225  0.00  0.00    +0.000 NA
ATOM     19  N   UNL     1       2.836   3.121  19.950  0.00  0.00    +0.000 N 
ATOM     20  C   UNL     1       3.892   2.615  19.105  0.00  0.00    +0.000 C 
ENDBRANCH  10  12
ENDBRANCH   3  10
BRANCH   1  21
ATOM     21  C   UNL     1       7.692   6.870  18.196  0.00  0.00    +0.000 C 
BRANCH  21  23
ATOM     22  C   UNL     1       8.709   9.132  18.586  0.00  0.00    +0.000 C 
ATOM     23  C   UNL     1       7.736   8.325  17.744  0.00  0.00    +0.000 C 
ENDBRANCH  21  23
ENDBRANCH   1  21
TORSDOF 4
ENDMDL
MODEL 3
REMARK VINA RESULT:      -8.2      2.334      4.067
REMARK  Name = 
REMARK  5 active torsions:
REMARK  status: ('A' for Active; 'I' for Inactive)
REMARK    1  A    between atoms: C_1  and  C_2
REMARK    2  A    between atoms: C_2  and  C_3
REMARK    3  A    between atoms: C_3  and  C_4
REMARK    4  A    between atoms: C_6  and  N_7
REMARK    5  A    between atoms: N_7  and  C_8
REMARK                            x       y       z     vdW  Elec       q    Type
REMARK                         _______ _______ _______ _____ _____    ______ ____
ROOT
ATOM      1  C   UNL     1       7.704   6.903  17.825  0.00  0.00    +0.000 A 
ATOM      2  C   UNL     1       7.042   5.871  18.684  0.00  0.00    +0.000 A 
ATOM      3  C   UNL     1       6.557   4.780  18.073  0.00  0.00    +0.000 A 
ATOM      4  N   UNL     1       6.664   4.719  16.661  0.00  0.00    +0.000 N 
ATOM      5  N   UNL     1       6.220   3.750  15.811  0.00  0.00    +0.000 NA
ATOM      6  C   UNL     1       6.538   4.265  14.623  0.00  0.00    +0.000 A 
ATOM      7  N   UNL     1       7.166   5.475  14.645  0.00  0.00    +0.000 NA
ATOM      8  C   UNL     1       7.247   5.758  15.922  0.00  0.00    +0.000 A 
ATOM      9  N   UNL     1       7.797   6.852  16.531  0.00  0.00    +0.000 NA
ENDROOT
BRANCH   3  10
ATOM     10  N   UNL     1       6.003   3.700  18.770  0.00  0.00    +0.000 N 
ATOM     11  H   UNL     1       6.244   2.811  18.316  0.00  0.00    +0.000 HD
BRANCH  10  12
ATOM     12  C   UNL     1       4.640   3.708  19.333  0.00  0.00    +0.000 C 
ATOM     13  C   UNL     1       4.499   2.483  20.255  0.00  0.00    +0.000 C 
ATOM     14  C   UNL     1       3.117   2.429  20.907  0.00  0.00    +0.000 C 
ATOM     15  C   UNL     1       2.044   2.645  19.908  0.00  0.00    +0.000 A 
ATOM     16  N   UNL     1       0.772   2.329  19.982  0.00  0.00    +0.000 NA
ATOM     17  C   UNL     1       0.275   2.771  18.787  0.00  0.00    +0.000 A 
ATOM     18  N   UNL     1       1.165   3.355  17.979  0.00  0.00    +0.000 NA
ATOM     19  N   UNL     1       2.284   3.267  18.716  0.00  0.00    +0.000 N 
ATOM     20  C   UNL     1       3.569   3.705  18.223  0.00  0.00    +0.000 C 
ENDBRANCH  10  12
ENDBRANCH   3  10
BRANCH   1  21
ATOM     21  C   UNL     1       8.346   8.069  18.557  0.00  0.00    +0.000 C 
BRANCH  21  23
ATOM     22  C   UNL     1       9.076  10.458  18.298  0.00  0.00    +0.000 C 
ATOM     23  C   UNL     1       8.123   9.380  17.811  0.00  0.00    +0.000 C 
ENDBRANCH  21  23
ENDBRANCH   1  21
TORSDOF 4
ENDMDL
MODEL 4
REMARK VINA RESULT:      -7.9      1.827      2.224
REMARK  Name = 
REMARK  5 active torsions:
REMARK  status: ('A' for Active; 'I' for Inactive)
REMARK    1  A    between atoms: C_1  and  C_2
REMARK    2  A    between atoms: C_2  and  C_3
REMARK    3  A    between atoms: C_3  and  C_4
REMARK    4  A    between atoms: C_6  and  N_7
REMARK    5  A    between atoms: N_7  and  C_8
REMARK                            x       y       z     vdW  Elec       q    Type
REMARK                         _______ _______ _______ _____ _____    ______ ____
ROOT
ATOM      1  C   UNL     1       6.470   4.444  14.135  0.00  0.00    +0.000 A 
ATOM      2  C   UNL     1       5.256   3.911  14.830  0.00  0.00    +0.000 A 
ATOM      3  C   UNL     1       4.969   4.414  16.041  0.00  0.00    +0.000 A 
ATOM      4  N   UNL     1       5.867   5.367  16.583  0.00  0.00    +0.000 N 
ATOM      5  N   UNL     1       5.823   5.990  17.795  0.00  0.00    +0.000 NA
ATOM      6  C   UNL     1       6.947   6.707  17.771  0.00  0.00    +0.000 A 
ATOM      7  N   UNL     1       7.696   6.609  16.637  0.00  0.00    +0.000 NA
ATOM      8  C   UNL     1       7.017   5.771  15.891  0.00  0.00    +0.000 A 
ATOM      9  N   UNL     1       7.298   5.313  14.633  0.00  0.00    +0.000 NA
ENDROOT
BRANCH   3  10
ATOM     10  N   UNL     1       3.813   4.072  16.751  0.00  0.00    +0.000 N 
ATOM     11  H   UNL     1       2.992   4.554  16.364  0.00  0.00    +0.000 HD
BRANCH  10  12
ATOM     12  C   UNL     1       3.767   3.949  18.221  0.00  0.00    +0.000 C 
ATOM     13  C   UNL     1       4.386   2.592  18.604  0.00  0.00    +0.000 C 
ATOM     14  C   UNL     1       4.405   2.394  20.120  0.00  0.00    +0.000 C 
ATOM     15  C   UNL     1       3.092   2.728  20.720  0.00  0.00    +0.000 A 
ATOM     16  N   UNL     1       2.600   2.363  21.882  0.00  0.00    +0.000 NA
ATOM     17  C   UNL     1       1.373   2.968  21.900  0.00  0.00    +0.000 A 
ATOM     18  N   UNL     1       1.081   3.698  20.820  0.00  0.00    +0.000 NA
ATOM     19  N   UNL     1       2.192   3.533  20.084  0.00  0.00    +0.000 N 
ATOM     20  C   UNL     1       2.326   4.083  18.756  0.00  0.00    +0.000 C 
ENDBRANCH  10  12
ENDBRANCH   3  10
BRANCH   1  21
ATOM     21  C   UNL     1       6.702   3.943  12.720  0.00  0.00    +0.000 C 
BRANCH  21  23
ATOM     22  C   UNL     1       5.785   1.950  11.499  0.00  0.00    +0.000 C 
ATOM     23  C   UNL     1       5.451   3.277  12.159  0.00  0.00    +0.000 C 
ENDBRANCH  21  23
ENDBRANCH   1  21
TORSDOF 4
ENDMDL
MODEL 5
REMARK VINA RESULT:      -7.9      2.143      3.998
REMARK  Name = 
REMARK  5 active torsions:
REMARK  status: ('A' for Active; 'I' for Inactive)
REMARK    1  A    between atoms: C_1  and  C_2
REMARK    2  A    between atoms: C_2  and  C_3
REMARK    3  A    between atoms: C_3  and  C_4
REMARK    4  A    between atoms: C_6  and  N_7
REMARK    5  A    between atoms: N_7  and  C_8
REMARK                            x       y       z     vdW  Elec       q    Type
REMARK                         _______ _______ _______ _____ _____    ______ ____
ROOT
ATOM      1  C   UNL     1       7.268   6.841  17.364  0.00  0.00    +0.000 A 
ATOM      2  C   UNL     1       5.826   6.748  17.757  0.00  0.00    +0.000 A 
ATOM      3  C   UNL     1       5.045   5.925  17.041  0.00  0.00    +0.000 A 
ATOM      4  N   UNL     1       5.636   5.254  15.942  0.00  0.00    +0.000 N 
ATOM      5  N   UNL     1       5.056   4.407  15.045  0.00  0.00    +0.000 NA
ATOM      6  C   UNL     1       6.070   4.153  14.217  0.00  0.00    +0.000 A 
ATOM      7  N   UNL     1       7.255   4.754  14.521  0.00  0.00    +0.000 NA
ATOM      8  C   UNL     1       6.983   5.442  15.604  0.00  0.00    +0.000 A 
ATOM      9  N   UNL     1       7.810   6.233  16.353  0.00  0.00    +0.000 NA
ENDROOT
BRANCH   3  10
ATOM     10  N   UNL     1       3.707   5.675  17.364  0.00  0.00    +0.000 N 
ATOM     11  H   UNL     1       3.240   6.536  17.674  0.00  0.00    +0.000 HD
BRANCH  10  12
ATOM     12  C   UNL     1       3.257   4.479  18.102  0.00  0.00    +0.000 C 
ATOM     13  C   UNL     1       1.782   4.225  17.742  0.00  0.00    +0.000 C 
ATOM     14  C   UNL     1       1.242   2.978  18.445  0.00  0.00    +0.000 C 
ATOM     15  C   UNL     1       1.591   2.982  19.885  0.00  0.00    +0.000 A 
ATOM     16  N   UNL     1       1.035   2.315  20.870  0.00  0.00    +0.000 NA
ATOM     17  C   UNL     1       1.770   2.703  21.957  0.00  0.00    +0.000 A 
ATOM     18  N   UNL     1       2.758   3.564  21.701  0.00  0.00    +0.000 NA
ATOM     19  N   UNL     1       2.628   3.725  20.374  0.00  0.00    +0.000 N 
ATOM     20  C   UNL     1       3.446   4.648  19.624  0.00  0.00    +0.000 C 
ENDBRANCH  10  12
ENDBRANCH   3  10
BRANCH   1  21
ATOM     21  C   UNL     1       8.151   7.689  18.265  0.00  0.00    +0.000 C 
BRANCH  21  23
ATOM     22  C   UNL     1       9.026   9.996  18.729  0.00  0.00    +0.000 C 
ATOM     23  C   UNL     1       8.121   9.154  17.847  0.00  0.00    +0.000 C 
ENDBRANCH  21  23
ENDBRANCH   1  21
TORSDOF 4
ENDMDL
MODEL 6
REMARK VINA RESULT:      -7.7      2.178      3.842
REMARK  Name = 
REMARK  5 active torsions:
REMARK  status: ('A' for Active; 'I' for Inactive)
REMARK    1  A    between atoms: C_1  and  C_2
REMARK    2  A    between atoms: C_2  and  C_3
REMARK    3  A    between atoms: C_3  and  C_4
REMARK    4  A    between atoms: C_6  and  N_7
REMARK    5  A    between atoms: N_7  and  C_8
REMARK                            x       y       z     vdW  Elec       q    Type
REMARK                         _______ _______ _______ _____ _____    ______ ____
ROOT
ATOM      1  C   UNL     1       7.205   6.894  17.494  0.00  0.00    +0.000 A 
ATOM      2  C   UNL     1       5.744   7.131  17.725  0.00  0.00    +0.000 A 
ATOM      3  C   UNL     1       4.881   6.378  17.026  0.00  0.00    +0.000 A 
ATOM      4  N   UNL     1       5.420   5.461  16.091  0.00  0.00    +0.000 N 
ATOM      5  N   UNL     1       4.764   4.621  15.241  0.00  0.00    +0.000 NA
ATOM      6  C   UNL     1       5.776   4.068  14.572  0.00  0.00    +0.000 A 
ATOM      7  N   UNL     1       7.026   4.470  14.937  0.00  0.00    +0.000 NA
ATOM      8  C   UNL     1       6.803   5.342  15.892  0.00  0.00    +0.000 A 
ATOM      9  N   UNL     1       7.701   6.059  16.632  0.00  0.00    +0.000 NA
ENDROOT
BRANCH   3  10
ATOM     10  N   UNL     1       3.496   6.432  17.220  0.00  0.00    +0.000 N 
ATOM     11  H   UNL     1       3.161   7.402  17.178  0.00  0.00    +0.000 HD
BRANCH  10  12
ATOM     12  C   UNL     1       2.782   5.620  18.223  0.00  0.00    +0.000 C 
ATOM     13  C   UNL     1       2.562   6.492  19.473  0.00  0.00    +0.000 C 
ATOM     14  C   UNL     1       1.798   5.732  20.558  0.00  0.00    +0.000 C 
ATOM     15  C   UNL     1       2.371   4.383  20.772  0.00  0.00    +0.000 A 
ATOM     16  N   UNL     1       2.248   3.591  21.812  0.00  0.00    +0.000 NA
ATOM     17  C   UNL     1       2.976   2.491  21.448  0.00  0.00    +0.000 A 
ATOM     18  N   UNL     1       3.534   2.551  20.236  0.00  0.00    +0.000 NA
ATOM     19  N   UNL     1       3.132   3.763  19.822  0.00  0.00    +0.000 N 
ATOM     20  C   UNL     1       3.556   4.330  18.564  0.00  0.00    +0.000 C 
ENDBRANCH  10  12
ENDBRANCH   3  10
BRANCH   1  21
ATOM     21  C   UNL     1       8.156   7.677  18.383  0.00  0.00    +0.000 C 
BRANCH  21  23
ATOM     22  C   UNL     1       9.048   9.955  18.950  0.00  0.00    +0.000 C 
ATOM     23  C   UNL     1       8.210   9.145  17.975  0.00  0.00    +0.000 C 
ENDBRANCH  21  23
ENDBRANCH   1  21
TORSDOF 4
ENDMDL
MODEL 7
REMARK VINA RESULT:      -7.7      2.312      4.216
REMARK  Name = 
REMARK  5 active torsions:
REMARK  status: ('A' for Active; 'I' for Inactive)
REMARK    1  A    between atoms: C_1  and  C_2
REMARK    2  A    between atoms: C_2  and  C_3
REMARK    3  A    between atoms: C_3  and  C_4
REMARK    4  A    between atoms: C_6  and  N_7
REMARK    5  A    between atoms: N_7  and  C_8
REMARK                            x       y       z     vdW  Elec       q    Type
REMARK                         _______ _______ _______ _____ _____    ______ ____
ROOT
ATOM      1  C   UNL     1       7.563   6.720  17.785  0.00  0.00    +0.000 A 
ATOM      2  C   UNL     1       7.012   5.633  18.655  0.00  0.00    +0.000 A 
ATOM      3  C   UNL     1       6.425   4.593  18.042  0.00  0.00    +0.000 A 
ATOM      4  N   UNL     1       6.329   4.635  16.630  0.00  0.00    +0.000 N 
ATOM      5  N   UNL     1       5.750   3.735  15.785  0.00  0.00    +0.000 NA
ATOM      6  C   UNL     1       5.906   4.334  14.603  0.00  0.00    +0.000 A 
ATOM      7  N   UNL     1       6.552   5.534  14.621  0.00  0.00    +0.000 NA
ATOM      8  C   UNL     1       6.820   5.721  15.891  0.00  0.00    +0.000 A 
ATOM      9  N   UNL     1       7.470   6.764  16.491  0.00  0.00    +0.000 NA
ENDROOT
BRANCH   3  10
ATOM     10  N   UNL     1       5.957   3.470  18.733  0.00  0.00    +0.000 N 
ATOM     11  H   UNL     1       6.093   2.617  18.176  0.00  0.00    +0.000 HD
BRANCH  10  12
ATOM     12  C   UNL     1       4.703   3.455  19.510  0.00  0.00    +0.000 C 
ATOM     13  C   UNL     1       3.729   2.481  18.823  0.00  0.00    +0.000 C 
ATOM     14  C   UNL     1       2.406   2.382  19.584  0.00  0.00    +0.000 C 
ATOM     15  C   UNL     1       1.884   3.726  19.926  0.00  0.00    +0.000 A 
ATOM     16  N   UNL     1       0.658   4.079  20.238  0.00  0.00    +0.000 NA
ATOM     17  C   UNL     1       0.773   5.425  20.458  0.00  0.00    +0.000 A 
ATOM     18  N   UNL     1       2.003   5.925  20.312  0.00  0.00    +0.000 NA
ATOM     19  N   UNL     1       2.694   4.824  19.977  0.00  0.00    +0.000 N 
ATOM     20  C   UNL     1       4.096   4.868  19.632  0.00  0.00    +0.000 C 
ENDBRANCH  10  12
ENDBRANCH   3  10
BRANCH   1  21
ATOM     21  C   UNL     1       8.324   7.824  18.500  0.00  0.00    +0.000 C 
BRANCH  21  23
ATOM     22  C   UNL     1       8.938  10.259  18.488  0.00  0.00    +0.000 C 
ATOM     23  C   UNL     1       8.159   9.160  17.785  0.00  0.00    +0.000 C 
ENDBRANCH  21  23
ENDBRANCH   1  21
TORSDOF 4
ENDMDL
MODEL 8
REMARK VINA RESULT:      -7.6      1.856      2.326
REMARK  Name = 
REMARK  5 active torsions:
REMARK  status: ('A' for Active; 'I' for Inactive)
REMARK    1  A    between atoms: C_1  and  C_2
REMARK    2  A    between atoms: C_2  and  C_3
REMARK    3  A    between atoms: C_3  and  C_4
REMARK    4  A    between atoms: C_6  and  N_7
REMARK    5  A    between atoms: N_7  and  C_8
REMARK                            x       y       z     vdW  Elec       q    Type
REMARK                         _______ _______ _______ _____ _____    ______ ____
ROOT
ATOM      1  C   UNL     1       5.904   4.792  15.008  0.00  0.00    +0.000 A 
ATOM      2  C   UNL     1       5.610   3.853  16.136  0.00  0.00    +0.000 A 
ATOM      3  C   UNL     1       6.000   4.225  17.365  0.00  0.00    +0.000 A 
ATOM      4  N   UNL     1       6.704   5.448  17.484  0.00  0.00    +0.000 N 
ATOM      5  N   UNL     1       7.237   6.023  18.601  0.00  0.00    +0.000 NA
ATOM      6  C   UNL     1       7.825   7.106  18.093  0.00  0.00    +0.000 A 
ATOM      7  N   UNL     1       7.697   7.282  16.748  0.00  0.00    +0.000 NA
ATOM      8  C   UNL     1       6.992   6.244  16.367  0.00  0.00    +0.000 A 
ATOM      9  N   UNL     1       6.555   5.910  15.114  0.00  0.00    +0.000 NA
ENDROOT
BRANCH   3  10
ATOM     10  N   UNL     1       5.701   3.485  18.514  0.00  0.00    +0.000 N 
ATOM     11  H   UNL     1       6.407   2.756  18.672  0.00  0.00    +0.000 HD
BRANCH  10  12
ATOM     12  C   UNL     1       4.336   3.051  18.870  0.00  0.00    +0.000 C 
ATOM     13  C   UNL     1       3.359   4.165  18.451  0.00  0.00    +0.000 C 
ATOM     14  C   UNL     1       1.910   3.782  18.759  0.00  0.00    +0.000 C 
ATOM     15  C   UNL     1       1.777   3.254  20.137  0.00  0.00    +0.000 A 
ATOM     16  N   UNL     1       0.701   3.161  20.884  0.00  0.00    +0.000 NA
ATOM     17  C   UNL     1       1.176   2.598  22.038  0.00  0.00    +0.000 A 
ATOM     18  N   UNL     1       2.483   2.325  22.044  0.00  0.00    +0.000 NA
ATOM     19  N   UNL     1       2.845   2.748  20.822  0.00  0.00    +0.000 N 
ATOM     20  C   UNL     1       4.218   2.733  20.375  0.00  0.00    +0.000 C 
ENDBRANCH  10  12
ENDBRANCH   3  10
BRANCH   1  21
ATOM     21  C   UNL     1       5.347   4.399  13.650  0.00  0.00    +0.000 C 
BRANCH  21  23
ATOM     22  C   UNL     1       7.109   4.080  11.889  0.00  0.00    +0.000 C 
ATOM     23  C   UNL     1       6.259   3.399  12.948  0.00  0.00    +0.000 C 
ENDBRANCH  21  23
ENDBRANCH   1  21
TORSDOF 4
ENDMDL
MODEL 9
REMARK VINA RESULT:      -7.6      1.598      2.152
REMARK  Name = 
REMARK  5 active torsions:
REMARK  status: ('A' for Active; 'I' for Inactive)
REMARK    1  A    between atoms: C_1  and  C_2
REMARK    2  A    between atoms: C_2  and  C_3
REMARK    3  A    between atoms: C_3  and  C_4
REMARK    4  A    between atoms: C_6  and  N_7
REMARK    5  A    between atoms: N_7  and  C_8
REMARK                            x       y       z     vdW  Elec       q    Type
REMARK                         _______ _______ _______ _____ _____    ______ ____
ROOT
ATOM      1  C   UNL     1       6.396   4.505  14.099  0.00  0.00    +0.000 A 
ATOM      2  C   UNL     1       5.782   3.415  14.921  0.00  0.00    +0.000 A 
ATOM      3  C   UNL     1       5.790   3.571  16.254  0.00  0.00    +0.000 A 
ATOM      4  N   UNL     1       6.424   4.726  16.774  0.00  0.00    +0.000 N 
ATOM      5  N   UNL     1       6.601   5.092  18.076  0.00  0.00    +0.000 NA
ATOM      6  C   UNL     1       7.311   6.213  17.948  0.00  0.00    +0.000 A 
ATOM      7  N   UNL     1       7.588   6.604  16.672  0.00  0.00    +0.000 NA
ATOM      8  C   UNL     1       7.029   5.673  15.936  0.00  0.00    +0.000 A 
ATOM      9  N   UNL     1       6.984   5.561  14.574  0.00  0.00    +0.000 NA
ENDROOT
BRANCH   3  10
ATOM     10  N   UNL     1       5.164   2.674  17.127  0.00  0.00    +0.000 N 
ATOM     11  H   UNL     1       5.368   1.704  16.860  0.00  0.00    +0.000 HD
BRANCH  10  12
ATOM     12  C   UNL     1       3.790   2.855  17.633  0.00  0.00    +0.000 C 
ATOM     13  C   UNL     1       3.427   4.345  17.501  0.00  0.00    +0.000 C 
ATOM     14  C   UNL     1       1.999   4.618  17.978  0.00  0.00    +0.000 C 
ATOM     15  C   UNL     1       1.741   3.977  19.288  0.00  0.00    +0.000 A 
ATOM     16  N   UNL     1       0.812   4.255  20.174  0.00  0.00    +0.000 NA
ATOM     17  C   UNL     1       1.052   3.346  21.167  0.00  0.00    +0.000 A 
ATOM     18  N   UNL     1       2.071   2.511  20.944  0.00  0.00    +0.000 NA
ATOM     19  N   UNL     1       2.492   2.929  19.739  0.00  0.00    +0.000 N 
ATOM     20  C   UNL     1       3.654   2.368  19.090  0.00  0.00    +0.000 C 
ENDBRANCH  10  12
ENDBRANCH   3  10
BRANCH   1  21
ATOM     21  C   UNL     1       6.267   4.357  12.592  0.00  0.00    +0.000 C 
BRANCH  21  23
ATOM     22  C   UNL     1       4.395   3.177  11.407  0.00  0.00    +0.000 C 
ATOM     23  C   UNL     1       5.666   3.007  12.220  0.00  0.00    +0.000 C 
ENDBRANCH  21  23
ENDBRANCH   1  21
TORSDOF 4
ENDMDL
