MODEL 1
REMARK VINA RESULT:      -8.0      0.000      0.000
REMARK  Name = 
REMARK  5 active torsions:
REMARK  status: ('A' for Active; 'I' for Inactive)
REMARK    1  A    between atoms: C_2  and  C_18
REMARK    2  A    between atoms: N_3  and  C_4
REMARK    3  A    between atoms: C_4  and  C_5
REMARK    4  A    between atoms: C_6  and  C_7
REMARK    5  A    between atoms: C_7  and  N_8
REMARK                            x       y       z     vdW  Elec       q    Type
REMARK                         _______ _______ _______ _____ _____    ______ ____
ROOT
ATOM      1  C   UNL     1       2.105   9.400  18.005  0.00  0.00    +0.000 C 
ENDROOT
BRANCH   1   4
ATOM      2  O   UNL     1       0.486  11.080  19.490  0.00  0.00    +0.000 OA
ATOM      3  C   UNL     1      -0.000  10.529  18.507  0.00  0.00    +0.000 C 
ATOM      4  N   UNL     1       0.721   9.676  17.706  0.00  0.00    +0.000 N 
ATOM      5  H   UNL     1       0.360   9.360  16.820  0.00  0.00    +0.000 HD
BRANCH   3   6
ATOM      6  C   UNL     1      -1.429  10.793  18.104  0.00  0.00    +0.000 A 
ATOM      7  C   UNL     1      -2.021  10.020  17.018  0.00  0.00    +0.000 A 
ATOM      8  C   UNL     1      -3.273  10.253  16.590  0.00  0.00    +0.000 A 
ATOM      9  C   UNL     1      -4.080  11.319  17.228  0.00  0.00    +0.000 A 
ATOM     10  O   UNL     1      -5.226  11.557  16.865  0.00  0.00    +0.000 OA
ATOM     11  N   UNL     1      -3.454  12.015  18.232  0.00  0.00    +0.000 N 
ATOM     12  C   UNL     1      -2.166  11.773  18.655  0.00  0.00    +0.000 A 
ATOM     13  H   UNL     1      -4.002  12.757  18.652  0.00  0.00    +0.000 HD
ENDBRANCH   3   6
ENDBRANCH   1   4
BRANCH   1  14
ATOM     14  C   UNL     1       2.254   8.011  18.606  0.00  0.00    +0.000 C 
ATOM     15  C   UNL     1       2.382   6.820  19.121  0.00  0.00    +0.000 C 
BRANCH  15  16
ATOM     16  C   UNL     1       2.531   5.432  19.721  0.00  0.00    +0.000 C 
BRANCH  16  17
ATOM     17  N   UNL     1       3.469   4.604  18.949  0.00  0.00    +0.000 NA
ATOM     18  C   UNL     1       4.786   4.479  19.596  0.00  0.00    +0.000 C 
ATOM     19  C   UNL     1       5.912   5.307  18.962  0.00  0.00    +0.000 C 
ATOM     20  C   UNL     1       6.022   4.933  17.511  0.00  0.00    +0.000 A 
ATOM     21  C   UNL     1       7.253   4.818  16.864  0.00  0.00    +0.000 A 
ATOM     22  C   UNL     1       7.294   4.479  15.512  0.00  0.00    +0.000 A 
ATOM     23  C   UNL     1       6.107   4.272  14.806  0.00  0.00    +0.000 A 
ATOM     24  C   UNL     1       4.875   4.400  15.448  0.00  0.00    +0.000 A 
ATOM     25  C   UNL     1       4.823   4.720  16.810  0.00  0.00    +0.000 A 
ATOM     26  C   UNL     1       3.507   4.982  17.520  0.00  0.00    +0.000 C 
ENDBRANCH  16  17
ENDBRANCH  15  16
ENDBRANCH   1  14
TORSDOF 5
ENDMDL
MODEL 2
REMARK VINA RESULT:      -7.8      6.010      8.873
REMARK  Name = 
REMARK  5 active torsions:
REMARK  status: ('A' for Active; 'I' for Inactive)
REMARK    1  A    between atoms: C_2  and  C_18
REMARK    2  A    between atoms: N_3  and  C_4
REMARK    3  A    between atoms: C_4  and  C_5
REMARK    4  A    between atoms: C_6  and  C_7
REMARK    5  A    between atoms: C_7  and  N_8
REMARK                            x       y       z     vdW  Elec       q    Type
REMARK                         _______ _______ _______ _____ _____    ______ ____
ROOT
ATOM      1  C   UNL     1       8.264   8.205  18.799  0.00  0.00    +0.000 C 
ENDROOT
BRANCH   1   4
ATOM      2  O   UNL     1       9.377  10.315  20.199  0.00  0.00    +0.000 OA
ATOM      3  C   UNL     1       9.294  10.411  18.978  0.00  0.00    +0.000 C 
ATOM      4  N   UNL     1       8.756   9.418  18.193  0.00  0.00    +0.000 N 
ATOM      5  H   UNL     1       8.841   9.442  17.189  0.00  0.00    +0.000 HD
BRANCH   3   6
ATOM      6  C   UNL     1       9.820  11.631  18.263  0.00  0.00    +0.000 A 
ATOM      7  C   UNL     1      11.254  11.758  18.024  0.00  0.00    +0.000 A 
ATOM      8  C   UNL     1      11.775  12.847  17.438  0.00  0.00    +0.000 A 
ATOM      9  C   UNL     1      10.882  13.954  17.020  0.00  0.00    +0.000 A 
ATOM     10  O   UNL     1      11.323  14.961  16.479  0.00  0.00    +0.000 OA
ATOM     11  N   UNL     1       9.548  13.772  17.289  0.00  0.00    +0.000 N 
ATOM     12  C   UNL     1       9.027  12.654  17.902  0.00  0.00    +0.000 A 
ATOM     13  H   UNL     1       8.943  14.540  17.021  0.00  0.00    +0.000 HD
ENDBRANCH   3   6
ENDBRANCH   1   4
BRANCH   1  14
ATOM     14  C   UNL     1       7.732   7.256  17.737  0.00  0.00    +0.000 C 
ATOM     15  C   UNL     1       7.277   6.441  16.827  0.00  0.00    +0.000 C 
BRANCH  15  16
ATOM     16  C   UNL     1       6.746   5.491  15.766  0.00  0.00    +0.000 C 
BRANCH  16  17
ATOM     17  N   UNL     1       5.295   5.292  15.892  0.00  0.00    +0.000 NA
ATOM     18  C   UNL     1       4.605   6.463  16.461  0.00  0.00    +0.000 C 
ATOM     19  C   UNL     1       4.160   6.317  17.922  0.00  0.00    +0.000 C 
ATOM     20  C   UNL     1       3.279   5.105  18.035  0.00  0.00    +0.000 A 
ATOM     21  C   UNL     1       2.147   5.081  18.852  0.00  0.00    +0.000 A 
ATOM     22  C   UNL     1       1.373   3.924  18.926  0.00  0.00    +0.000 A 
ATOM     23  C   UNL     1       1.739   2.789  18.199  0.00  0.00    +0.000 A 
ATOM     24  C   UNL     1       2.878   2.807  17.393  0.00  0.00    +0.000 A 
ATOM     25  C   UNL     1       3.651   3.970  17.295  0.00  0.00    +0.000 A 
ATOM     26  C   UNL     1       4.957   3.999  16.524  0.00  0.00    +0.000 C 
ENDBRANCH  16  17
ENDBRANCH  15  16
ENDBRANCH   1  14
TORSDOF 5
ENDMDL
MODEL 3
REMARK VINA RESULT:      -7.8      1.481      1.796
REMARK  Name = 
REMARK  5 active torsions:
REMARK  status: ('A' for Active; 'I' for Inactive)
REMARK    1  A    between atoms: C_2  and  C_18
REMARK    2  A    between atoms: N_3  and  C_4
REMARK    3  A    between atoms: C_4  and  C_5
REMARK    4  A    between atoms: C_6  and  C_7
REMARK    5  A    between atoms: C_7  and  N_8
REMARK                            x       y       z     vdW  Elec       q    Type
REMARK                         _______ _______ _______ _____ _____    ______ ____
ROOT
ATOM      1  C   UNL     1       0.875   9.571  21.352  0.00  0.00    +0.000 C 
ENDROOT
BRANCH   1   4
ATOM      2  O   UNL     1       0.880  10.404  18.715  0.00  0.00    +0.000 OA
ATOM      3  C   UNL     1      -0.196  10.353  19.303  0.00  0.00    +0.000 C 
ATOM      4  N   UNL     1      -0.304   9.952  20.614  0.00  0.00    +0.000 N 
ATOM      5  H   UNL     1      -1.201   9.762  21.030  0.00  0.00    +0.000 HD
BRANCH   3   6
ATOM      6  C   UNL     1      -1.480  10.699  18.591  0.00  0.00    +0.000 A 
ATOM      7  C   UNL     1      -1.837   9.983  17.370  0.00  0.00    +0.000 A 
ATOM      8  C   UNL     1      -2.944  10.289  16.674  0.00  0.00    +0.000 A 
ATOM      9  C   UNL     1      -3.830  11.379  17.147  0.00  0.00    +0.000 A 
ATOM     10  O   UNL     1      -4.850  11.683  16.539  0.00  0.00    +0.000 OA
ATOM     11  N   UNL     1      -3.425  12.017  18.293  0.00  0.00    +0.000 N 
ATOM     12  C   UNL     1      -2.281  11.701  18.992  0.00  0.00    +0.000 A 
ATOM     13  H   UNL     1      -4.022  12.776  18.601  0.00  0.00    +0.000 HD
ENDBRANCH   3   6
ENDBRANCH   1   4
BRANCH   1  14
ATOM     14  C   UNL     1       1.275   8.142  21.020  0.00  0.00    +0.000 C 
ATOM     15  C   UNL     1       1.617   6.917  20.735  0.00  0.00    +0.000 C 
BRANCH  15  16
ATOM     16  C   UNL     1       2.015   5.488  20.402  0.00  0.00    +0.000 C 
BRANCH  16  17
ATOM     17  N   UNL     1       2.282   5.319  18.967  0.00  0.00    +0.000 NA
ATOM     18  C   UNL     1       2.373   3.905  18.565  0.00  0.00    +0.000 C 
ATOM     19  C   UNL     1       3.793   3.390  18.290  0.00  0.00    +0.000 C 
ATOM     20  C   UNL     1       4.420   4.259  17.236  0.00  0.00    +0.000 A 
ATOM     21  C   UNL     1       5.234   3.737  16.229  0.00  0.00    +0.000 A 
ATOM     22  C   UNL     1       5.799   4.592  15.285  0.00  0.00    +0.000 A 
ATOM     23  C   UNL     1       5.564   5.967  15.356  0.00  0.00    +0.000 A 
ATOM     24  C   UNL     1       4.762   6.492  16.370  0.00  0.00    +0.000 A 
ATOM     25  C   UNL     1       4.173   5.640  17.312  0.00  0.00    +0.000 A 
ATOM     26  C   UNL     1       3.390   6.176  18.496  0.00  0.00    +0.000 C 
ENDBRANCH  16  17
ENDBRANCH  15  16
ENDBRANCH   1  14
TORSDOF 5
ENDMDL
MODEL 4
REMARK VINA RESULT:      -7.8      3.090      9.366
REMARK  Name = 
REMARK  5 active torsions:
REMARK  status: ('A' for Active; 'I' for Inactive)
REMARK    1  A    between atoms: C_2  and  C_18
REMARK    2  A    between atoms: N_3  and  C_4
REMARK    3  A    between atoms: C_4  and  C_5
REMARK    4  A    between atoms: C_6  and  C_7
REMARK    5  A    between atoms: C_7  and  N_8
REMARK                            x       y       z     vdW  Elec       q    Type
REMARK                         _______ _______ _______ _____ _____    ______ ____
ROOT
ATOM      1  C   UNL     1       1.513   6.827  20.831  0.00  0.00    +0.000 C 
ENDROOT
BRANCH   1   4
ATOM      2  O   UNL     1       2.222   4.366  19.788  0.00  0.00    +0.000 OA
ATOM      3  C   UNL     1       2.975   5.315  19.592  0.00  0.00    +0.000 C 
ATOM      4  N   UNL     1       2.712   6.578  20.069  0.00  0.00    +0.000 N 
ATOM      5  H   UNL     1       3.251   7.374  19.768  0.00  0.00    +0.000 HD
BRANCH   3   6
ATOM      6  C   UNL     1       4.230   5.147  18.774  0.00  0.00    +0.000 A 
ATOM      7  C   UNL     1       4.362   5.864  17.510  0.00  0.00    +0.000 A 
ATOM      8  C   UNL     1       5.439   5.707  16.722  0.00  0.00    +0.000 A 
ATOM      9  C   UNL     1       6.523   4.787  17.136  0.00  0.00    +0.000 A 
ATOM     10  O   UNL     1       7.521   4.622  16.444  0.00  0.00    +0.000 OA
ATOM     11  N   UNL     1       6.326   4.136  18.328  0.00  0.00    +0.000 N 
ATOM     12  C   UNL     1       5.211   4.296  19.123  0.00  0.00    +0.000 A 
ATOM     13  H   UNL     1       7.060   3.491  18.598  0.00  0.00    +0.000 HD
ENDBRANCH   3   6
ENDBRANCH   1   4
BRANCH   1  14
ATOM     14  C   UNL     1       1.174   8.310  20.823  0.00  0.00    +0.000 C 
ATOM     15  C   UNL     1       0.883   9.580  20.816  0.00  0.00    +0.000 C 
BRANCH  15  16
ATOM     16  C   UNL     1       0.544  11.062  20.808  0.00  0.00    +0.000 C 
BRANCH  16  17
ATOM     17  N   UNL     1      -0.106  11.464  19.553  0.00  0.00    +0.000 NA
ATOM     18  C   UNL     1      -1.070  12.563  19.734  0.00  0.00    +0.000 C 
ATOM     19  C   UNL     1      -2.549  12.154  19.683  0.00  0.00    +0.000 C 
ATOM     20  C   UNL     1      -2.808  11.462  18.374  0.00  0.00    +0.000 A 
ATOM     21  C   UNL     1      -3.987  11.655  17.652  0.00  0.00    +0.000 A 
ATOM     22  C   UNL     1      -4.179  10.976  16.449  0.00  0.00    +0.000 A 
ATOM     23  C   UNL     1      -3.202  10.095  15.979  0.00  0.00    +0.000 A 
ATOM     24  C   UNL     1      -2.030   9.892  16.707  0.00  0.00    +0.000 A 
ATOM     25  C   UNL     1      -1.818  10.583  17.906  0.00  0.00    +0.000 A 
ATOM     26  C   UNL     1      -0.613  10.306  18.786  0.00  0.00    +0.000 C 
ENDBRANCH  16  17
ENDBRANCH  15  16
ENDBRANCH   1  14
TORSDOF 5
ENDMDL
MODEL 5
REMARK VINA RESULT:      -7.7      7.122      9.432
REMARK  Name = 
REMARK  5 active torsions:
REMARK  status: ('A' for Active; 'I' for Inactive)
REMARK    1  A    between atoms: C_2  and  C_18
REMARK    2  A    between atoms: N_3  and  C_4
REMARK    3  A    between atoms: C_4  and  C_5
REMARK    4  A    between atoms: C_6  and  C_7
REMARK    5  A    between atoms: C_7  and  N_8
REMARK                            x       y       z     vdW  Elec       q    Type
REMARK                         _______ _______ _______ _____ _____    ______ ____
ROOT
ATOM      1  C   UNL     1       9.473  10.378  19.792  0.00  0.00    +0.000 C 
ENDROOT
BRANCH   1   4
ATOM      2  O   UNL     1      11.849  11.548  18.996  0.00  0.00    +0.000 OA
ATOM      3  C   UNL     1      10.813  12.191  18.857  0.00  0.00    +0.000 C 
ATOM      4  N   UNL     1       9.582  11.698  19.222  0.00  0.00    +0.000 N 
ATOM      5  H   UNL     1       8.731  12.167  18.956  0.00  0.00    +0.000 HD
BRANCH   3   6
ATOM      6  C   UNL     1      10.836  13.565  18.235  0.00  0.00    +0.000 A 
ATOM      7  C   UNL     1      10.524  14.729  19.058  0.00  0.00    +0.000 A 
ATOM      8  C   UNL     1      10.483  15.966  18.538  0.00  0.00    +0.000 A 
ATOM      9  C   UNL     1      10.759  16.166  17.096  0.00  0.00    +0.000 A 
ATOM     10  O   UNL     1      10.734  17.281  16.589  0.00  0.00    +0.000 OA
ATOM     11  N   UNL     1      11.032  15.026  16.382  0.00  0.00    +0.000 N 
ATOM     12  C   UNL     1      11.060  13.760  16.924  0.00  0.00    +0.000 A 
ATOM     13  H   UNL     1      11.199  15.165  15.392  0.00  0.00    +0.000 HD
ENDBRANCH   3   6
ENDBRANCH   1   4
BRANCH   1  14
ATOM     14  C   UNL     1       8.784   9.432  18.820  0.00  0.00    +0.000 C 
ATOM     15  C   UNL     1       8.193   8.621  17.988  0.00  0.00    +0.000 C 
BRANCH  15  16
ATOM     16  C   UNL     1       7.505   7.675  17.017  0.00  0.00    +0.000 C 
BRANCH  16  17
ATOM     17  N   UNL     1       6.630   6.724  17.715  0.00  0.00    +0.000 NA
ATOM     18  C   UNL     1       7.064   5.325  17.556  0.00  0.00    +0.000 C 
ATOM     19  C   UNL     1       6.224   4.482  16.586  0.00  0.00    +0.000 C 
ATOM     20  C   UNL     1       4.791   4.521  17.038  0.00  0.00    +0.000 A 
ATOM     21  C   UNL     1       3.962   3.400  16.975  0.00  0.00    +0.000 A 
ATOM     22  C   UNL     1       2.636   3.497  17.397  0.00  0.00    +0.000 A 
ATOM     23  C   UNL     1       2.137   4.715  17.864  0.00  0.00    +0.000 A 
ATOM     24  C   UNL     1       2.962   5.840  17.913  0.00  0.00    +0.000 A 
ATOM     25  C   UNL     1       4.300   5.749  17.511  0.00  0.00    +0.000 A 
ATOM     26  C   UNL     1       5.198   6.969  17.439  0.00  0.00    +0.000 C 
ENDBRANCH  16  17
ENDBRANCH  15  16
ENDBRANCH   1  14
TORSDOF 5
ENDMDL
MODEL 6
REMARK VINA RESULT:      -7.6      3.254      5.229
REMARK  Name = 
REMARK  5 active torsions:
REMARK  status: ('A' for Active; 'I' for Inactive)
REMARK    1  A    between atoms: C_2  and  C_18
REMARK    2  A    between atoms: N_3  and  C_4
REMARK    3  A    between atoms: C_4  and  C_5
REMARK    4  A    between atoms: C_6  and  C_7
REMARK    5  A    between atoms: C_7  and  N_8
REMARK                            x       y       z     vdW  Elec       q    Type
REMARK                         _______ _______ _______ _____ _____    ______ ____
ROOT
ATOM      1  C   UNL     1       0.864   9.703  18.285  0.00  0.00    +0.000 C 
ENDROOT
BRANCH   1   4
ATOM      2  O   UNL     1       0.824  11.662  20.237  0.00  0.00    +0.000 OA
ATOM      3  C   UNL     1       1.191  11.977  19.109  0.00  0.00    +0.000 C 
ATOM      4  N   UNL     1       1.246  11.077  18.070  0.00  0.00    +0.000 N 
ATOM      5  H   UNL     1       1.698  11.309  17.201  0.00  0.00    +0.000 HD
BRANCH   3   6
ATOM      6  C   UNL     1       1.643  13.385  18.811  0.00  0.00    +0.000 A 
ATOM      7  C   UNL     1       2.972  13.607  18.252  0.00  0.00    +0.000 A 
ATOM      8  C   UNL     1       3.438  14.844  18.017  0.00  0.00    +0.000 A 
ATOM      9  C   UNL     1       2.590  16.019  18.330  0.00  0.00    +0.000 A 
ATOM     10  O   UNL     1       2.982  17.162  18.125  0.00  0.00    +0.000 OA
ATOM     11  N   UNL     1       1.359  15.736  18.865  0.00  0.00    +0.000 N 
ATOM     12  C   UNL     1       0.896  14.462  19.112  0.00  0.00    +0.000 A 
ATOM     13  H   UNL     1       0.791  16.542  19.098  0.00  0.00    +0.000 HD
ENDBRANCH   3   6
ENDBRANCH   1   4
BRANCH   1  14
ATOM     14  C   UNL     1       2.021   8.770  17.962  0.00  0.00    +0.000 C 
ATOM     15  C   UNL     1       3.013   7.971  17.686  0.00  0.00    +0.000 C 
BRANCH  15  16
ATOM     16  C   UNL     1       4.170   7.040  17.363  0.00  0.00    +0.000 C 
BRANCH  16  17
ATOM     17  N   UNL     1       4.093   5.791  18.134  0.00  0.00    +0.000 NA
ATOM     18  C   UNL     1       3.733   4.629  17.304  0.00  0.00    +0.000 C 
ATOM     19  C   UNL     1       2.291   4.128  17.464  0.00  0.00    +0.000 C 
ATOM     20  C   UNL     1       2.054   3.810  18.913  0.00  0.00    +0.000 A 
ATOM     21  C   UNL     1       1.302   2.705  19.319  0.00  0.00    +0.000 A 
ATOM     22  C   UNL     1       1.105   2.466  20.678  0.00  0.00    +0.000 A 
ATOM     23  C   UNL     1       1.643   3.336  21.628  0.00  0.00    +0.000 A 
ATOM     24  C   UNL     1       2.383   4.448  21.223  0.00  0.00    +0.000 A 
ATOM     25  C   UNL     1       2.604   4.687  19.862  0.00  0.00    +0.000 A 
ATOM     26  C   UNL     1       3.302   5.943  19.374  0.00  0.00    +0.000 C 
ENDBRANCH  16  17
ENDBRANCH  15  16
ENDBRANCH   1  14
TORSDOF 5
ENDMDL
MODEL 7
REMARK VINA RESULT:      -7.6      6.766      9.103
REMARK  Name = 
REMARK  5 active torsions:
REMARK  status: ('A' for Active; 'I' for Inactive)
REMARK    1  A    between atoms: C_2  and  C_18
REMARK    2  A    between atoms: N_3  and  C_4
REMARK    3  A    between atoms: C_4  and  C_5
REMARK    4  A    between atoms: C_6  and  C_7
REMARK    5  A    between atoms: C_7  and  N_8
REMARK                            x       y       z     vdW  Elec       q    Type
REMARK                         _______ _______ _______ _____ _____    ______ ____
ROOT
ATOM      1  C   UNL     1       7.343   6.916  17.124  0.00  0.00    +0.000 C 
ENDROOT
BRANCH   1   4
ATOM      2  O   UNL     1       4.751   6.616  16.208  0.00  0.00    +0.000 OA
ATOM      3  C   UNL     1       5.000   6.274  17.361  0.00  0.00    +0.000 C 
ATOM      4  N   UNL     1       6.256   6.384  17.909  0.00  0.00    +0.000 N 
ATOM      5  H   UNL     1       6.481   5.955  18.792  0.00  0.00    +0.000 HD
BRANCH   3   6
ATOM      6  C   UNL     1       3.928   5.674  18.235  0.00  0.00    +0.000 A 
ATOM      7  C   UNL     1       2.875   4.869  17.626  0.00  0.00    +0.000 A 
ATOM      8  C   UNL     1       1.871   4.355  18.355  0.00  0.00    +0.000 A 
ATOM      9  C   UNL     1       1.822   4.607  19.815  0.00  0.00    +0.000 A 
ATOM     10  O   UNL     1       0.923   4.151  20.512  0.00  0.00    +0.000 OA
ATOM     11  N   UNL     1       2.836   5.383  20.317  0.00  0.00    +0.000 N 
ATOM     12  C   UNL     1       3.855   5.914  19.556  0.00  0.00    +0.000 A 
ATOM     13  H   UNL     1       2.787   5.571  21.312  0.00  0.00    +0.000 HD
ENDBRANCH   3   6
ENDBRANCH   1   4
BRANCH   1  14
ATOM     14  C   UNL     1       7.958   8.124  17.813  0.00  0.00    +0.000 C 
ATOM     15  C   UNL     1       8.484   9.161  18.403  0.00  0.00    +0.000 C 
BRANCH  15  16
ATOM     16  C   UNL     1       9.098  10.369  19.090  0.00  0.00    +0.000 C 
BRANCH  16  17
ATOM     17  N   UNL     1       9.393  11.446  18.134  0.00  0.00    +0.000 NA
ATOM     18  C   UNL     1      10.766  11.380  17.605  0.00  0.00    +0.000 C 
ATOM     19  C   UNL     1      11.741  12.419  18.176  0.00  0.00    +0.000 C 
ATOM     20  C   UNL     1      11.171  13.790  17.940  0.00  0.00    +0.000 A 
ATOM     21  C   UNL     1      11.970  14.876  17.579  0.00  0.00    +0.000 A 
ATOM     22  C   UNL     1      11.388  16.127  17.385  0.00  0.00    +0.000 A 
ATOM     23  C   UNL     1      10.014  16.297  17.567  0.00  0.00    +0.000 A 
ATOM     24  C   UNL     1       9.216  15.215  17.941  0.00  0.00    +0.000 A 
ATOM     25  C   UNL     1       9.787  13.949  18.120  0.00  0.00    +0.000 A 
ATOM     26  C   UNL     1       8.979  12.773  18.637  0.00  0.00    +0.000 C 
ENDBRANCH  16  17
ENDBRANCH  15  16
ENDBRANCH   1  14
TORSDOF 5
ENDMDL
MODEL 8
REMARK VINA RESULT:      -7.6      3.316      5.364
REMARK  Name = 
REMARK  5 active torsions:
REMARK  status: ('A' for Active; 'I' for Inactive)
REMARK    1  A    between atoms: C_2  and  C_18
REMARK    2  A    between atoms: N_3  and  C_4
REMARK    3  A    between atoms: C_4  and  C_5
REMARK    4  A    between atoms: C_6  and  C_7
REMARK    5  A    between atoms: C_7  and  N_8
REMARK                            x       y       z     vdW  Elec       q    Type
REMARK                         _______ _______ _______ _____ _____    ______ ____
ROOT
ATOM      1  C   UNL     1       1.279   9.754  18.354  0.00  0.00    +0.000 C 
ENDROOT
BRANCH   1   4
ATOM      2  O   UNL     1       0.234  12.026  19.536  0.00  0.00    +0.000 OA
ATOM      3  C   UNL     1       1.191  12.156  18.777  0.00  0.00    +0.000 C 
ATOM      4  N   UNL     1       1.781  11.089  18.141  0.00  0.00    +0.000 N 
ATOM      5  H   UNL     1       2.656  11.190  17.654  0.00  0.00    +0.000 HD
BRANCH   3   6
ATOM      6  C   UNL     1       1.798  13.514  18.531  0.00  0.00    +0.000 A 
ATOM      7  C   UNL     1       1.044  14.712  18.887  0.00  0.00    +0.000 A 
ATOM      8  C   UNL     1       1.521  15.942  18.641  0.00  0.00    +0.000 A 
ATOM      9  C   UNL     1       2.844  16.100  17.991  0.00  0.00    +0.000 A 
ATOM     10  O   UNL     1       3.312  17.208  17.755  0.00  0.00    +0.000 OA
ATOM     11  N   UNL     1       3.490  14.932  17.672  0.00  0.00    +0.000 N 
ATOM     12  C   UNL     1       2.985  13.675  17.919  0.00  0.00    +0.000 A 
ATOM     13  H   UNL     1       4.385  15.044  17.208  0.00  0.00    +0.000 HD
ENDBRANCH   3   6
ENDBRANCH   1   4
BRANCH   1  14
ATOM     14  C   UNL     1       2.323   8.722  17.957  0.00  0.00    +0.000 C 
ATOM     15  C   UNL     1       3.218   7.837  17.618  0.00  0.00    +0.000 C 
BRANCH  15  16
ATOM     16  C   UNL     1       4.262   6.806  17.223  0.00  0.00    +0.000 C 
BRANCH  16  17
ATOM     17  N   UNL     1       4.140   5.577  18.020  0.00  0.00    +0.000 NA
ATOM     18  C   UNL     1       3.662   4.429  17.231  0.00  0.00    +0.000 C 
ATOM     19  C   UNL     1       2.199   4.030  17.472  0.00  0.00    +0.000 C 
ATOM     20  C   UNL     1       2.015   3.751  18.937  0.00  0.00    +0.000 A 
ATOM     21  C   UNL     1       1.212   2.707  19.400  0.00  0.00    +0.000 A 
ATOM     22  C   UNL     1       1.068   2.502  20.772  0.00  0.00    +0.000 A 
ATOM     23  C   UNL     1       1.711   3.350  21.677  0.00  0.00    +0.000 A 
ATOM     24  C   UNL     1       2.502   4.402  21.215  0.00  0.00    +0.000 A 
ATOM     25  C   UNL     1       2.670   4.604  19.840  0.00  0.00    +0.000 A 
ATOM     26  C   UNL     1       3.425   5.802  19.295  0.00  0.00    +0.000 C 
ENDBRANCH  16  17
ENDBRANCH  15  16
ENDBRANCH   1  14
TORSDOF 5
ENDMDL
MODEL 9
REMARK VINA RESULT:      -7.5      2.966      9.146
REMARK  Name = 
REMARK  5 active torsions:
REMARK  status: ('A' for Active; 'I' for Inactive)
REMARK    1  A    between atoms: C_2  and  C_18
REMARK    2  A    between atoms: N_3  and  C_4
REMARK    3  A    between atoms: C_4  and  C_5
REMARK    4  A    between atoms: C_6  and  C_7
REMARK    5  A    between atoms: C_7  and  N_8
REMARK                            x       y       z     vdW  Elec       q    Type
REMARK                         _______ _______ _______ _____ _____    ______ ____
ROOT
ATOM      1  C   UNL     1       2.064   6.088  20.132  0.00  0.00    +0.000 C 
ENDROOT
BRANCH   1   4
ATOM      2  O   UNL     1       2.052   4.655  17.767  0.00  0.00    +0.000 OA
ATOM      3  C   UNL     1       3.062   5.290  18.053  0.00  0.00    +0.000 C 
ATOM      4  N   UNL     1       3.167   6.034  19.205  0.00  0.00    +0.000 N 
ATOM      5  H   UNL     1       3.933   6.673  19.347  0.00  0.00    +0.000 HD
BRANCH   3   6
ATOM      6  C   UNL     1       4.246   5.315  17.118  0.00  0.00    +0.000 A 
ATOM      7  C   UNL     1       4.746   4.062  16.563  0.00  0.00    +0.000 A 
ATOM      8  C   UNL     1       5.827   4.028  15.767  0.00  0.00    +0.000 A 
ATOM      9  C   UNL     1       6.537   5.287  15.439  0.00  0.00    +0.000 A 
ATOM     10  O   UNL     1       7.525   5.293  14.714  0.00  0.00    +0.000 OA
ATOM     11  N   UNL     1       6.020   6.424  16.007  0.00  0.00    +0.000 N 
ATOM     12  C   UNL     1       4.916   6.445  16.832  0.00  0.00    +0.000 A 
ATOM     13  H   UNL     1       6.521   7.280  15.798  0.00  0.00    +0.000 HD
ENDBRANCH   3   6
ENDBRANCH   1   4
BRANCH   1  14
ATOM     14  C   UNL     1       1.641   7.529  20.375  0.00  0.00    +0.000 C 
ATOM     15  C   UNL     1       1.278   8.763  20.582  0.00  0.00    +0.000 C 
BRANCH  15  16
ATOM     16  C   UNL     1       0.855  10.203  20.823  0.00  0.00    +0.000 C 
BRANCH  16  17
ATOM     17  N   UNL     1       0.245  10.797  19.625  0.00  0.00    +0.000 NA
ATOM     18  C   UNL     1      -0.497  12.036  19.916  0.00  0.00    +0.000 C 
ATOM     19  C   UNL     1      -2.027  11.902  19.911  0.00  0.00    +0.000 C 
ATOM     20  C   UNL     1      -2.453  11.356  18.577  0.00  0.00    +0.000 A 
ATOM     21  C   UNL     1      -3.603  11.803  17.924  0.00  0.00    +0.000 A 
ATOM     22  C   UNL     1      -3.957  11.252  16.693  0.00  0.00    +0.000 A 
ATOM     23  C   UNL     1      -3.174  10.244  16.126  0.00  0.00    +0.000 A 
ATOM     24  C   UNL     1      -2.032   9.787  16.785  0.00  0.00    +0.000 A 
ATOM     25  C   UNL     1      -1.656  10.348  18.011  0.00  0.00    +0.000 A 
ATOM     26  C   UNL     1      -0.491   9.802  18.816  0.00  0.00    +0.000 C 
ENDBRANCH  16  17
ENDBRANCH  15  16
ENDBRANCH   1  14
TORSDOF 5
ENDMDL
