MODEL 1
REMARK VINA RESULT:      -8.0      0.000      0.000
REMARK  Name = 
REMARK  8 active torsions:
REMARK  status: ('A' for Active; 'I' for Inactive)
REMARK    1  A    between atoms: C_1  and  C_2
REMARK    2  A    between atoms: C_6  and  N_7
REMARK    3  A    between atoms: N_7  and  C_8
REMARK    4  A    between atoms: C_8  and  N_10
REMARK    5  A    between atoms: C_11  and  C_13
REMARK    6  A    between atoms: N_15  and  C_16
REMARK    7  A    between atoms: C_16  and  C_17
REMARK    8  A    between atoms: C_17  and  O_18
REMARK                            x       y       z     vdW  Elec       q    Type
REMARK                         _______ _______ _______ _____ _____    ______ ____
ROOT
ATOM      1  C   UNL     1       0.004  10.287  21.191  0.00  0.00    +0.000 A 
ATOM      2  C   UNL     1      -0.425  10.982  20.137  0.00  0.00    +0.000 A 
ATOM      3  N   UNL     1      -1.433  11.934  20.077  0.00  0.00    +0.000 N 
ATOM      4  C   UNL     1      -2.191  12.221  21.255  0.00  0.00    +0.000 A 
ATOM      5  C   UNL     1      -1.797  11.533  22.447  0.00  0.00    +0.000 A 
ATOM      6  C   UNL     1      -2.477  11.694  23.651  0.00  0.00    +0.000 A 
ATOM      7  C   UNL     1      -3.571  12.544  23.712  0.00  0.00    +0.000 A 
ATOM      8 CL   UNL     1      -4.374  12.669  25.250  0.00  0.00    +0.000 Cl
ATOM      9  C   UNL     1      -4.014  13.269  22.606  0.00  0.00    +0.000 A 
ATOM     10  N   UNL     1      -5.087  14.076  22.780  0.00  0.00    +0.000 NA
ATOM     11  C   UNL     1      -5.558  14.809  21.760  0.00  0.00    +0.000 A 
ATOM     12  C   UNL     1      -4.983  14.792  20.523  0.00  0.00    +0.000 A 
ATOM     13  C   UNL     1      -3.871  13.973  20.340  0.00  0.00    +0.000 A 
ATOM     14  C   UNL     1      -3.325  13.138  21.360  0.00  0.00    +0.000 A 
ATOM     15  C   UNL     1      -0.647  10.582  22.471  0.00  0.00    +0.000 A 
ATOM     16  O   UNL     1      -0.246  10.059  23.503  0.00  0.00    +0.000 OA
ENDROOT
BRANCH   1  18
ATOM     17  N   UNL     1       1.198   8.845  19.636  0.00  0.00    +0.000 N 
ATOM     18  C   UNL     1       1.052   9.274  20.934  0.00  0.00    +0.000 C 
ATOM     19  O   UNL     1       1.725   8.827  21.863  0.00  0.00    +0.000 OA
ATOM     20  H   UNL     1       0.581   9.236  18.924  0.00  0.00    +0.000 HD
BRANCH  17  21
ATOM     21  C   UNL     1       2.159   7.967  19.154  0.00  0.00    +0.000 C 
ATOM     22  S   UNL     1       2.861   8.365  17.691  0.00  0.00    +0.000 S 
BRANCH  21  23
ATOM     23  N   UNL     1       2.389   6.874  19.969  0.00  0.00    +0.000 N 
ATOM     24  H   UNL     1       2.950   7.091  20.793  0.00  0.00    +0.000 HD
BRANCH  23  30
ATOM     25  C   UNL     1       1.443   2.416  21.911  0.00  0.00    +0.000 C 
ATOM     26  C   UNL     1       1.581   3.291  20.702  0.00  0.00    +0.000 A 
ATOM     27  C   UNL     1       1.352   2.822  19.408  0.00  0.00    +0.000 A 
ATOM     28  C   UNL     1       1.490   3.689  18.323  0.00  0.00    +0.000 A 
ATOM     29  C   UNL     1       1.862   5.020  18.533  0.00  0.00    +0.000 A 
ATOM     30  C   UNL     1       2.100   5.503  19.828  0.00  0.00    +0.000 A 
ATOM     31  C   UNL     1       1.945   4.630  20.898  0.00  0.00    +0.000 A 
ENDBRANCH  23  30
ENDBRANCH  21  23
ENDBRANCH  17  21
ENDBRANCH   1  18
BRANCH   3  32
ATOM     32  C   UNL     1      -1.781  12.401  18.713  0.00  0.00    +0.000 C 
BRANCH  32  33
ATOM     33  C   UNL     1      -2.417  11.281  17.877  0.00  0.00    +0.000 C 
BRANCH  33  34
ATOM     34  O   UNL     1      -3.425  11.786  17.002  0.00  0.00    +0.000 OA
ATOM     35  H   UNL     1      -3.002  11.918  16.135  0.00  0.00    +0.000 HD
ENDBRANCH  33  34
ENDBRANCH  32  33
ENDBRANCH   3  32
TORSDOF 7
ENDMDL
MODEL 2
REMARK VINA RESULT:      -8.0      0.561      1.254
REMARK  Name = 
REMARK  8 active torsions:
REMARK  status: ('A' for Active; 'I' for Inactive)
REMARK    1  A    between atoms: C_1  and  C_2
REMARK    2  A    between atoms: C_6  and  N_7
REMARK    3  A    between atoms: N_7  and  C_8
REMARK    4  A    between atoms: C_8  and  N_10
REMARK    5  A    between atoms: C_11  and  C_13
REMARK    6  A    between atoms: N_15  and  C_16
REMARK    7  A    between atoms: C_16  and  C_17
REMARK    8  A    between atoms: C_17  and  O_18
REMARK                            x       y       z     vdW  Elec       q    Type
REMARK                         _______ _______ _______ _____ _____    ______ ____
ROOT
ATOM      1  C   UNL     1       0.080  10.300  21.333  0.00  0.00    +0.000 A 
ATOM      2  C   UNL     1      -0.227  11.095  20.308  0.00  0.00    +0.000 A 
ATOM      3  N   UNL     1      -1.180  12.102  20.247  0.00  0.00    +0.000 N 
ATOM      4  C   UNL     1      -2.016  12.341  21.382  0.00  0.00    +0.000 A 
ATOM      5  C   UNL     1      -1.753  11.544  22.543  0.00  0.00    +0.000 A 
ATOM      6  C   UNL     1      -2.521  11.651  23.700  0.00  0.00    +0.000 A 
ATOM      7  C   UNL     1      -3.573  12.552  23.744  0.00  0.00    +0.000 A 
ATOM      8 CL   UNL     1      -4.490  12.605  25.220  0.00  0.00    +0.000 Cl
ATOM      9  C   UNL     1      -3.890  13.382  22.668  0.00  0.00    +0.000 A 
ATOM     10  N   UNL     1      -4.932  14.231  22.822  0.00  0.00    +0.000 NA
ATOM     11  C   UNL     1      -5.283  15.063  21.831  0.00  0.00    +0.000 A 
ATOM     12  C   UNL     1      -4.612  15.108  20.644  0.00  0.00    +0.000 A 
ATOM     13  C   UNL     1      -3.530  14.245  20.483  0.00  0.00    +0.000 A 
ATOM     14  C   UNL     1      -3.109  13.308  21.472  0.00  0.00    +0.000 A 
ATOM     15  C   UNL     1      -0.657  10.533  22.579  0.00  0.00    +0.000 A 
ATOM     16  O   UNL     1      -0.366   9.912  23.595  0.00  0.00    +0.000 OA
ENDROOT
BRANCH   1  18
ATOM     17  N   UNL     1       1.177   8.765  19.795  0.00  0.00    +0.000 N 
ATOM     18  C   UNL     1       1.095   9.253  21.079  0.00  0.00    +0.000 C 
ATOM     19  O   UNL     1       1.798   8.832  21.997  0.00  0.00    +0.000 OA
ATOM     20  H   UNL     1       0.537   9.138  19.093  0.00  0.00    +0.000 HD
BRANCH  17  21
ATOM     21  C   UNL     1       2.098   7.845  19.313  0.00  0.00    +0.000 C 
ATOM     22  S   UNL     1       2.748   8.165  17.808  0.00  0.00    +0.000 S 
BRANCH  21  23
ATOM     23  N   UNL     1       2.336   6.781  20.164  0.00  0.00    +0.000 N 
ATOM     24  H   UNL     1       2.809   7.049  21.028  0.00  0.00    +0.000 HD
BRANCH  23  30
ATOM     25  C   UNL     1       2.501   2.633  17.461  0.00  0.00    +0.000 C 
ATOM     26  C   UNL     1       2.261   3.302  18.780  0.00  0.00    +0.000 A 
ATOM     27  C   UNL     1       1.939   2.587  19.934  0.00  0.00    +0.000 A 
ATOM     28  C   UNL     1       1.734   3.266  21.136  0.00  0.00    +0.000 A 
ATOM     29  C   UNL     1       1.843   4.660  21.179  0.00  0.00    +0.000 A 
ATOM     30  C   UNL     1       2.160   5.391  20.025  0.00  0.00    +0.000 A 
ATOM     31  C   UNL     1       2.376   4.697  18.841  0.00  0.00    +0.000 A 
ENDBRANCH  23  30
ENDBRANCH  21  23
ENDBRANCH  17  21
ENDBRANCH   1  18
BRANCH   3  32
ATOM     32  C   UNL     1      -1.394  12.689  18.902  0.00  0.00    +0.000 C 
BRANCH  32  33
ATOM     33  C   UNL     1      -2.149  11.723  17.977  0.00  0.00    +0.000 C 
BRANCH  33  34
ATOM     34  O   UNL     1      -1.813  11.939  16.607  0.00  0.00    +0.000 OA
ATOM     35  H   UNL     1      -2.653  12.063  16.129  0.00  0.00    +0.000 HD
ENDBRANCH  33  34
ENDBRANCH  32  33
ENDBRANCH   3  32
TORSDOF 7
ENDMDL
MODEL 3
REMARK VINA RESULT:      -8.0      2.097      2.626
REMARK  Name = 
REMARK  8 active torsions:
REMARK  status: ('A' for Active; 'I' for Inactive)
REMARK    1  A    between atoms: C_1  and  C_2
REMARK    2  A    between atoms: C_6  and  N_7
REMARK    3  A    between atoms: N_7  and  C_8
REMARK    4  A    between atoms: C_8  and  N_10
REMARK    5  A    between atoms: C_11  and  C_13
REMARK    6  A    between atoms: N_15  and  C_16
REMARK    7  A    between atoms: C_16  and  C_17
REMARK    8  A    between atoms: C_17  and  O_18
REMARK                            x       y       z     vdW  Elec       q    Type
REMARK                         _______ _______ _______ _____ _____    ______ ____
ROOT
ATOM      1  C   UNL     1      -0.134  10.516  18.616  0.00  0.00    +0.000 A 
ATOM      2  C   UNL     1      -1.045  10.099  17.736  0.00  0.00    +0.000 A 
ATOM      3  N   UNL     1      -2.383  10.452  17.639  0.00  0.00    +0.000 N 
ATOM      4  C   UNL     1      -2.942  11.340  18.611  0.00  0.00    +0.000 A 
ATOM      5  C   UNL     1      -2.037  11.857  19.593  0.00  0.00    +0.000 A 
ATOM      6  C   UNL     1      -2.462  12.699  20.617  0.00  0.00    +0.000 A 
ATOM      7  C   UNL     1      -3.799  13.058  20.700  0.00  0.00    +0.000 A 
ATOM      8 CL   UNL     1      -4.245  14.096  22.021  0.00  0.00    +0.000 Cl
ATOM      9  C   UNL     1      -4.747  12.618  19.776  0.00  0.00    +0.000 A 
ATOM     10  N   UNL     1      -6.023  13.036  19.947  0.00  0.00    +0.000 NA
ATOM     11  C   UNL     1      -6.982  12.659  19.088  0.00  0.00    +0.000 A 
ATOM     12  C   UNL     1      -6.724  11.862  18.011  0.00  0.00    +0.000 A 
ATOM     13  C   UNL     1      -5.411  11.437  17.823  0.00  0.00    +0.000 A 
ATOM     14  C   UNL     1      -4.338  11.766  18.703  0.00  0.00    +0.000 A 
ATOM     15  C   UNL     1      -0.586  11.507  19.597  0.00  0.00    +0.000 A 
ATOM     16  O   UNL     1       0.212  12.014  20.376  0.00  0.00    +0.000 OA
ENDROOT
BRANCH   1  18
ATOM     17  N   UNL     1       1.295   8.555  18.802  0.00  0.00    +0.000 N 
ATOM     18  C   UNL     1       1.208   9.899  18.523  0.00  0.00    +0.000 C 
ATOM     19  O   UNL     1       2.190  10.586  18.240  0.00  0.00    +0.000 OA
ATOM     20  H   UNL     1       0.444   8.058  19.063  0.00  0.00    +0.000 HD
BRANCH  17  21
ATOM     21  C   UNL     1       2.428   7.758  18.704  0.00  0.00    +0.000 C 
ATOM     22  S   UNL     1       3.487   8.124  17.465  0.00  0.00    +0.000 S 
BRANCH  21  23
ATOM     23  N   UNL     1       2.505   6.761  19.658  0.00  0.00    +0.000 N 
ATOM     24  H   UNL     1       2.980   7.052  20.514  0.00  0.00    +0.000 HD
BRANCH  23  30
ATOM     25  C   UNL     1       1.429   2.525  21.991  0.00  0.00    +0.000 C 
ATOM     26  C   UNL     1       1.576   3.289  20.710  0.00  0.00    +0.000 A 
ATOM     27  C   UNL     1       1.304   2.721  19.465  0.00  0.00    +0.000 A 
ATOM     28  C   UNL     1       1.453   3.486  18.307  0.00  0.00    +0.000 A 
ATOM     29  C   UNL     1       1.880   4.814  18.396  0.00  0.00    +0.000 A 
ATOM     30  C   UNL     1       2.162   5.395  19.641  0.00  0.00    +0.000 A 
ATOM     31  C   UNL     1       1.995   4.624  20.784  0.00  0.00    +0.000 A 
ENDBRANCH  23  30
ENDBRANCH  21  23
ENDBRANCH  17  21
ENDBRANCH   1  18
BRANCH   3  32
ATOM     32  C   UNL     1      -3.172   9.678  16.651  0.00  0.00    +0.000 C 
BRANCH  32  33
ATOM     33  C   UNL     1      -2.917  10.166  15.217  0.00  0.00    +0.000 C 
BRANCH  33  34
ATOM     34  O   UNL     1      -3.255  11.545  15.065  0.00  0.00    +0.000 OA
ATOM     35  H   UNL     1      -3.099  11.770  14.130  0.00  0.00    +0.000 HD
ENDBRANCH  33  34
ENDBRANCH  32  33
ENDBRANCH   3  32
TORSDOF 7
ENDMDL
MODEL 4
REMARK VINA RESULT:      -7.9      2.170      2.916
REMARK  Name = 
REMARK  8 active torsions:
REMARK  status: ('A' for Active; 'I' for Inactive)
REMARK    1  A    between atoms: C_1  and  C_2
REMARK    2  A    between atoms: C_6  and  N_7
REMARK    3  A    between atoms: N_7  and  C_8
REMARK    4  A    between atoms: C_8  and  N_10
REMARK    5  A    between atoms: C_11  and  C_13
REMARK    6  A    between atoms: N_15  and  C_16
REMARK    7  A    between atoms: C_16  and  C_17
REMARK    8  A    between atoms: C_17  and  O_18
REMARK                            x       y       z     vdW  Elec       q    Type
REMARK                         _______ _______ _______ _____ _____    ______ ____
ROOT
ATOM      1  C   UNL     1      -0.192  10.443  18.548  0.00  0.00    +0.000 A 
ATOM      2  C   UNL     1      -1.104  10.049  17.659  0.00  0.00    +0.000 A 
ATOM      3  N   UNL     1      -2.437  10.422  17.558  0.00  0.00    +0.000 N 
ATOM      4  C   UNL     1      -2.988  11.308  18.536  0.00  0.00    +0.000 A 
ATOM      5  C   UNL     1      -2.082  11.800  19.530  0.00  0.00    +0.000 A 
ATOM      6  C   UNL     1      -2.501  12.637  20.561  0.00  0.00    +0.000 A 
ATOM      7  C   UNL     1      -3.833  13.014  20.639  0.00  0.00    +0.000 A 
ATOM      8 CL   UNL     1      -4.272  14.043  21.970  0.00  0.00    +0.000 Cl
ATOM      9  C   UNL     1      -4.782  12.598  19.705  0.00  0.00    +0.000 A 
ATOM     10  N   UNL     1      -6.053  13.032  19.873  0.00  0.00    +0.000 NA
ATOM     11  C   UNL     1      -7.012  12.678  19.005  0.00  0.00    +0.000 A 
ATOM     12  C   UNL     1      -6.759  11.890  17.921  0.00  0.00    +0.000 A 
ATOM     13  C   UNL     1      -5.451  11.449  17.735  0.00  0.00    +0.000 A 
ATOM     14  C   UNL     1      -4.379  11.752  18.625  0.00  0.00    +0.000 A 
ATOM     15  C   UNL     1      -0.636  11.430  19.538  0.00  0.00    +0.000 A 
ATOM     16  O   UNL     1       0.164  11.916  20.327  0.00  0.00    +0.000 OA
ENDROOT
BRANCH   1  18
ATOM     17  N   UNL     1       1.236   8.499  18.868  0.00  0.00    +0.000 N 
ATOM     18  C   UNL     1       1.141   9.808  18.456  0.00  0.00    +0.000 C 
ATOM     19  O   UNL     1       2.111  10.453  18.059  0.00  0.00    +0.000 OA
ATOM     20  H   UNL     1       0.396   8.039  19.219  0.00  0.00    +0.000 HD
BRANCH  17  21
ATOM     21  C   UNL     1       2.360   7.686  18.799  0.00  0.00    +0.000 C 
ATOM     22  S   UNL     1       3.371   7.929  17.492  0.00  0.00    +0.000 S 
BRANCH  21  23
ATOM     23  N   UNL     1       2.468   6.779  19.837  0.00  0.00    +0.000 N 
ATOM     24  H   UNL     1       2.837   7.187  20.698  0.00  0.00    +0.000 HD
BRANCH  23  30
ATOM     25  C   UNL     1       2.445   2.289  17.745  0.00  0.00    +0.000 C 
ATOM     26  C   UNL     1       2.295   3.140  18.969  0.00  0.00    +0.000 A 
ATOM     27  C   UNL     1       2.051   2.599  20.232  0.00  0.00    +0.000 A 
ATOM     28  C   UNL     1       1.928   3.444  21.335  0.00  0.00    +0.000 A 
ATOM     29  C   UNL     1       2.042   4.828  21.173  0.00  0.00    +0.000 A 
ATOM     30  C   UNL     1       2.281   5.385  19.908  0.00  0.00    +0.000 A 
ATOM     31  C   UNL     1       2.416   4.529  18.823  0.00  0.00    +0.000 A 
ENDBRANCH  23  30
ENDBRANCH  21  23
ENDBRANCH  17  21
ENDBRANCH   1  18
BRANCH   3  32
ATOM     32  C   UNL     1      -3.231   9.670  16.556  0.00  0.00    +0.000 C 
BRANCH  32  33
ATOM     33  C   UNL     1      -3.060  10.254  15.146  0.00  0.00    +0.000 C 
BRANCH  33  34
ATOM     34  O   UNL     1      -3.136  11.679  15.156  0.00  0.00    +0.000 OA
ATOM     35  H   UNL     1      -2.565  11.995  14.433  0.00  0.00    +0.000 HD
ENDBRANCH  33  34
ENDBRANCH  32  33
ENDBRANCH   3  32
TORSDOF 7
ENDMDL
MODEL 5
REMARK VINA RESULT:      -7.8      2.905      3.458
REMARK  Name = 
REMARK  8 active torsions:
REMARK  status: ('A' for Active; 'I' for Inactive)
REMARK    1  A    between atoms: C_1  and  C_2
REMARK    2  A    between atoms: C_6  and  N_7
REMARK    3  A    between atoms: N_7  and  C_8
REMARK    4  A    between atoms: C_8  and  N_10
REMARK    5  A    between atoms: C_11  and  C_13
REMARK    6  A    between atoms: N_15  and  C_16
REMARK    7  A    between atoms: C_16  and  C_17
REMARK    8  A    between atoms: C_17  and  O_18
REMARK                            x       y       z     vdW  Elec       q    Type
REMARK                         _______ _______ _______ _____ _____    ______ ____
ROOT
ATOM      1  C   UNL     1       1.032   9.489  20.629  0.00  0.00    +0.000 A 
ATOM      2  C   UNL     1       1.559  10.647  20.229  0.00  0.00    +0.000 A 
ATOM      3  N   UNL     1       1.200  11.937  20.596  0.00  0.00    +0.000 N 
ATOM      4  C   UNL     1       0.091  12.127  21.479  0.00  0.00    +0.000 A 
ATOM      5  C   UNL     1      -0.535  10.939  21.977  0.00  0.00    +0.000 A 
ATOM      6  C   UNL     1      -1.648  10.987  22.812  0.00  0.00    +0.000 A 
ATOM      7  C   UNL     1      -2.175  12.215  23.183  0.00  0.00    +0.000 A 
ATOM      8 CL   UNL     1      -3.577  12.181  24.211  0.00  0.00    +0.000 Cl
ATOM      9  C   UNL     1      -1.619  13.423  22.761  0.00  0.00    +0.000 A 
ATOM     10  N   UNL     1      -2.210  14.563  23.189  0.00  0.00    +0.000 NA
ATOM     11  C   UNL     1      -1.719  15.758  22.830  0.00  0.00    +0.000 A 
ATOM     12  C   UNL     1      -0.613  15.885  22.042  0.00  0.00    +0.000 A 
ATOM     13  C   UNL     1       0.007  14.716  21.607  0.00  0.00    +0.000 A 
ATOM     14  C   UNL     1      -0.466  13.407  21.916  0.00  0.00    +0.000 A 
ATOM     15  C   UNL     1      -0.051   9.576  21.614  0.00  0.00    +0.000 A 
ATOM     16  O   UNL     1      -0.522   8.557  22.105  0.00  0.00    +0.000 OA
ENDROOT
BRANCH   1  18
ATOM     17  N   UNL     1       1.731   7.166  20.814  0.00  0.00    +0.000 N 
ATOM     18  C   UNL     1       1.572   8.263  20.000  0.00  0.00    +0.000 C 
ATOM     19  O   UNL     1       1.889   8.262  18.811  0.00  0.00    +0.000 OA
ATOM     20  H   UNL     1       1.479   7.252  21.799  0.00  0.00    +0.000 HD
BRANCH  17  21
ATOM     21  C   UNL     1       2.144   5.898  20.427  0.00  0.00    +0.000 C 
ATOM     22  S   UNL     1       0.976   4.703  20.435  0.00  0.00    +0.000 S 
BRANCH  21  23
ATOM     23  N   UNL     1       3.484   5.814  20.096  0.00  0.00    +0.000 N 
ATOM     24  H   UNL     1       4.100   6.271  20.770  0.00  0.00    +0.000 HD
BRANCH  23  30
ATOM     25  C   UNL     1       7.649   4.614  17.698  0.00  0.00    +0.000 C 
ATOM     26  C   UNL     1       6.152   4.665  17.732  0.00  0.00    +0.000 A 
ATOM     27  C   UNL     1       5.362   4.164  16.697  0.00  0.00    +0.000 A 
ATOM     28  C   UNL     1       3.971   4.234  16.790  0.00  0.00    +0.000 A 
ATOM     29  C   UNL     1       3.374   4.812  17.915  0.00  0.00    +0.000 A 
ATOM     30  C   UNL     1       4.156   5.325  18.960  0.00  0.00    +0.000 A 
ATOM     31  C   UNL     1       5.538   5.233  18.857  0.00  0.00    +0.000 A 
ENDBRANCH  23  30
ENDBRANCH  21  23
ENDBRANCH  17  21
ENDBRANCH   1  18
BRANCH   3  32
ATOM     32  C   UNL     1       1.872  13.020  19.839  0.00  0.00    +0.000 C 
BRANCH  32  33
ATOM     33  C   UNL     1       1.407  13.060  18.375  0.00  0.00    +0.000 C 
BRANCH  33  34
ATOM     34  O   UNL     1       2.467  12.729  17.479  0.00  0.00    +0.000 OA
ATOM     35  H   UNL     1       2.838  13.572  17.161  0.00  0.00    +0.000 HD
ENDBRANCH  33  34
ENDBRANCH  32  33
ENDBRANCH   3  32
TORSDOF 7
ENDMDL
MODEL 6
REMARK VINA RESULT:      -7.8      3.101      3.956
REMARK  Name = 
REMARK  8 active torsions:
REMARK  status: ('A' for Active; 'I' for Inactive)
REMARK    1  A    between atoms: C_1  and  C_2
REMARK    2  A    between atoms: C_6  and  N_7
REMARK    3  A    between atoms: N_7  and  C_8
REMARK    4  A    between atoms: C_8  and  N_10
REMARK    5  A    between atoms: C_11  and  C_13
REMARK    6  A    between atoms: N_15  and  C_16
REMARK    7  A    between atoms: C_16  and  C_17
REMARK    8  A    between atoms: C_17  and  O_18
REMARK                            x       y       z     vdW  Elec       q    Type
REMARK                         _______ _______ _______ _____ _____    ______ ____
ROOT
ATOM      1  C   UNL     1       0.645   9.841  18.436  0.00  0.00    +0.000 A 
ATOM      2  C   UNL     1      -0.523   9.635  17.825  0.00  0.00    +0.000 A 
ATOM      3  N   UNL     1      -1.728  10.296  18.012  0.00  0.00    +0.000 N 
ATOM      4  C   UNL     1      -1.817  11.312  19.014  0.00  0.00    +0.000 A 
ATOM      5  C   UNL     1      -0.609  11.619  19.718  0.00  0.00    +0.000 A 
ATOM      6  C   UNL     1      -0.570  12.559  20.744  0.00  0.00    +0.000 A 
ATOM      7  C   UNL     1      -1.729  13.229  21.104  0.00  0.00    +0.000 A 
ATOM      8 CL   UNL     1      -1.594  14.371  22.408  0.00  0.00    +0.000 Cl
ATOM      9  C   UNL     1      -2.947  13.009  20.461  0.00  0.00    +0.000 A 
ATOM     10  N   UNL     1      -4.015  13.724  20.888  0.00  0.00    +0.000 NA
ATOM     11  C   UNL     1      -5.213  13.569  20.306  0.00  0.00    +0.000 A 
ATOM     12  C   UNL     1      -5.412  12.711  19.264  0.00  0.00    +0.000 A 
ATOM     13  C   UNL     1      -4.316  11.981  18.811  0.00  0.00    +0.000 A 
ATOM     14  C   UNL     1      -3.015  12.062  19.392  0.00  0.00    +0.000 A 
ATOM     15  C   UNL     1       0.681  10.932  19.414  0.00  0.00    +0.000 A 
ATOM     16  O   UNL     1       1.738  11.249  19.947  0.00  0.00    +0.000 OA
ENDROOT
BRANCH   1  18
ATOM     17  N   UNL     1       1.958   7.851  18.926  0.00  0.00    +0.000 N 
ATOM     18  C   UNL     1       1.748   8.919  18.085  0.00  0.00    +0.000 C 
ATOM     19  O   UNL     1       2.452   9.139  17.099  0.00  0.00    +0.000 OA
ATOM     20  H   UNL     1       1.356   7.753  19.744  0.00  0.00    +0.000 HD
BRANCH  17  21
ATOM     21  C   UNL     1       2.877   6.825  18.753  0.00  0.00    +0.000 C 
ATOM     22  S   UNL     1       2.778   5.551  19.830  0.00  0.00    +0.000 S 
BRANCH  21  23
ATOM     23  N   UNL     1       3.754   7.020  17.702  0.00  0.00    +0.000 N 
ATOM     24  H   UNL     1       3.498   7.802  17.098  0.00  0.00    +0.000 HD
BRANCH  23  30
ATOM     25  C   UNL     1       5.988   4.259  14.248  0.00  0.00    +0.000 C 
ATOM     26  C   UNL     1       6.047   4.966  15.569  0.00  0.00    +0.000 A 
ATOM     27  C   UNL     1       7.203   5.002  16.348  0.00  0.00    +0.000 A 
ATOM     28  C   UNL     1       7.197   5.683  17.566  0.00  0.00    +0.000 A 
ATOM     29  C   UNL     1       6.032   6.319  18.006  0.00  0.00    +0.000 A 
ATOM     30  C   UNL     1       4.861   6.285  17.235  0.00  0.00    +0.000 A 
ATOM     31  C   UNL     1       4.889   5.616  16.019  0.00  0.00    +0.000 A 
ENDBRANCH  23  30
ENDBRANCH  21  23
ENDBRANCH  17  21
ENDBRANCH   1  18
BRANCH   3  32
ATOM     32  C   UNL     1      -2.888   9.712  17.296  0.00  0.00    +0.000 C 
BRANCH  32  33
ATOM     33  C   UNL     1      -2.872  10.078  15.804  0.00  0.00    +0.000 C 
BRANCH  33  34
ATOM     34  O   UNL     1      -2.538  11.451  15.604  0.00  0.00    +0.000 OA
ATOM     35  H   UNL     1      -3.360  11.959  15.723  0.00  0.00    +0.000 HD
ENDBRANCH  33  34
ENDBRANCH  32  33
ENDBRANCH   3  32
TORSDOF 7
ENDMDL
MODEL 7
REMARK VINA RESULT:      -7.8      3.382      8.878
REMARK  Name = 
REMARK  8 active torsions:
REMARK  status: ('A' for Active; 'I' for Inactive)
REMARK    1  A    between atoms: C_1  and  C_2
REMARK    2  A    between atoms: C_6  and  N_7
REMARK    3  A    between atoms: N_7  and  C_8
REMARK    4  A    between atoms: C_8  and  N_10
REMARK    5  A    between atoms: C_11  and  C_13
REMARK    6  A    between atoms: N_15  and  C_16
REMARK    7  A    between atoms: C_16  and  C_17
REMARK    8  A    between atoms: C_17  and  O_18
REMARK                            x       y       z     vdW  Elec       q    Type
REMARK                         _______ _______ _______ _____ _____    ______ ____
ROOT
ATOM      1  C   UNL     1      -0.083  10.366  21.131  0.00  0.00    +0.000 A 
ATOM      2  C   UNL     1       0.573  10.720  20.025  0.00  0.00    +0.000 A 
ATOM      3  N   UNL     1       1.367   9.938  19.199  0.00  0.00    +0.000 N 
ATOM      4  C   UNL     1       1.598   8.570  19.547  0.00  0.00    +0.000 A 
ATOM      5  C   UNL     1       0.923   8.088  20.714  0.00  0.00    +0.000 A 
ATOM      6  C   UNL     1       1.095   6.788  21.182  0.00  0.00    +0.000 A 
ATOM      7  C   UNL     1       1.941   5.922  20.506  0.00  0.00    +0.000 A 
ATOM      8 CL   UNL     1       2.112   4.325  21.172  0.00  0.00    +0.000 Cl
ATOM      9  C   UNL     1       2.625   6.299  19.350  0.00  0.00    +0.000 A 
ATOM     10  N   UNL     1       3.419   5.372  18.766  0.00  0.00    +0.000 NA
ATOM     11  C   UNL     1       4.096   5.665  17.646  0.00  0.00    +0.000 A 
ATOM     12  C   UNL     1       4.010   6.884  17.041  0.00  0.00    +0.000 A 
ATOM     13  C   UNL     1       3.186   7.840  17.629  0.00  0.00    +0.000 A 
ATOM     14  C   UNL     1       2.456   7.622  18.835  0.00  0.00    +0.000 A 
ATOM     15  C   UNL     1       0.012   8.955  21.517  0.00  0.00    +0.000 A 
ATOM     16  O   UNL     1      -0.640   8.528  22.463  0.00  0.00    +0.000 OA
ENDROOT
BRANCH   1  18
ATOM     17  N   UNL     1      -1.626  12.248  21.114  0.00  0.00    +0.000 N 
ATOM     18  C   UNL     1      -0.792  11.445  21.855  0.00  0.00    +0.000 C 
ATOM     19  O   UNL     1      -0.599  11.615  23.059  0.00  0.00    +0.000 OA
ATOM     20  H   UNL     1      -1.708  12.069  20.113  0.00  0.00    +0.000 HD
BRANCH  17  21
ATOM     21  C   UNL     1      -2.443  13.264  21.592  0.00  0.00    +0.000 C 
ATOM     22  S   UNL     1      -2.173  14.789  20.968  0.00  0.00    +0.000 S 
BRANCH  21  23
ATOM     23  N   UNL     1      -3.367  12.852  22.534  0.00  0.00    +0.000 N 
ATOM     24  H   UNL     1      -2.946  12.410  23.352  0.00  0.00    +0.000 HD
BRANCH  23  30
ATOM     25  C   UNL     1      -7.700  12.208  20.220  0.00  0.00    +0.000 C 
ATOM     26  C   UNL     1      -6.942  12.469  21.486  0.00  0.00    +0.000 A 
ATOM     27  C   UNL     1      -7.575  12.603  22.723  0.00  0.00    +0.000 A 
ATOM     28  C   UNL     1      -6.814  12.838  23.869  0.00  0.00    +0.000 A 
ATOM     29  C   UNL     1      -5.423  12.945  23.775  0.00  0.00    +0.000 A 
ATOM     30  C   UNL     1      -4.775  12.817  22.538  0.00  0.00    +0.000 A 
ATOM     31  C   UNL     1      -5.547  12.569  21.410  0.00  0.00    +0.000 A 
ENDBRANCH  23  30
ENDBRANCH  21  23
ENDBRANCH  17  21
ENDBRANCH   1  18
BRANCH   3  32
ATOM     32  C   UNL     1       2.097  10.675  18.140  0.00  0.00    +0.000 C 
BRANCH  32  33
ATOM     33  C   UNL     1       2.139  12.183  18.428  0.00  0.00    +0.000 C 
BRANCH  33  34
ATOM     34  O   UNL     1       2.494  12.930  17.265  0.00  0.00    +0.000 OA
ATOM     35  H   UNL     1       1.825  12.726  16.587  0.00  0.00    +0.000 HD
ENDBRANCH  33  34
ENDBRANCH  32  33
ENDBRANCH   3  32
TORSDOF 7
ENDMDL
MODEL 8
REMARK VINA RESULT:      -7.8      3.215      4.060
REMARK  Name = 
REMARK  8 active torsions:
REMARK  status: ('A' for Active; 'I' for Inactive)
REMARK    1  A    between atoms: C_1  and  C_2
REMARK    2  A    between atoms: C_6  and  N_7
REMARK    3  A    between atoms: N_7  and  C_8
REMARK    4  A    between atoms: C_8  and  N_10
REMARK    5  A    between atoms: C_11  and  C_13
REMARK    6  A    between atoms: N_15  and  C_16
REMARK    7  A    between atoms: C_16  and  C_17
REMARK    8  A    between atoms: C_17  and  O_18
REMARK                            x       y       z     vdW  Elec       q    Type
REMARK                         _______ _______ _______ _____ _____    ______ ____
ROOT
ATOM      1  C   UNL     1       1.473   9.131  19.593  0.00  0.00    +0.000 A 
ATOM      2  C   UNL     1       1.708  10.236  18.885  0.00  0.00    +0.000 A 
ATOM      3  N   UNL     1       1.207  11.515  19.080  0.00  0.00    +0.000 N 
ATOM      4  C   UNL     1       0.267  11.742  20.134  0.00  0.00    +0.000 A 
ATOM      5  C   UNL     1      -0.041  10.616  20.964  0.00  0.00    +0.000 A 
ATOM      6  C   UNL     1      -0.970  10.694  21.998  0.00  0.00    +0.000 A 
ATOM      7  C   UNL     1      -1.622  11.893  22.245  0.00  0.00    +0.000 A 
ATOM      8 CL   UNL     1      -2.780  11.895  23.542  0.00  0.00    +0.000 Cl
ATOM      9  C   UNL     1      -1.371  13.045  21.500  0.00  0.00    +0.000 A 
ATOM     10  N   UNL     1      -2.059  14.163  21.832  0.00  0.00    +0.000 NA
ATOM     11  C   UNL     1      -1.858  15.308  21.163  0.00  0.00    +0.000 A 
ATOM     12  C   UNL     1      -0.957  15.408  20.144  0.00  0.00    +0.000 A 
ATOM     13  C   UNL     1      -0.237  14.265  19.805  0.00  0.00    +0.000 A 
ATOM     14  C   UNL     1      -0.411  13.001  20.442  0.00  0.00    +0.000 A 
ATOM     15  C   UNL     1       0.595   9.282  20.758  0.00  0.00    +0.000 A 
ATOM     16  O   UNL     1       0.407   8.338  21.516  0.00  0.00    +0.000 OA
ENDROOT
BRANCH   1  18
ATOM     17  N   UNL     1       2.305   6.884  20.019  0.00  0.00    +0.000 N 
ATOM     18  C   UNL     1       2.090   7.881  19.096  0.00  0.00    +0.000 C 
ATOM     19  O   UNL     1       2.416   7.777  17.914  0.00  0.00    +0.000 OA
ATOM     20  H   UNL     1       2.040   7.056  20.989  0.00  0.00    +0.000 HD
BRANCH  17  21
ATOM     21  C   UNL     1       2.795   5.610  19.766  0.00  0.00    +0.000 C 
ATOM     22  S   UNL     1       1.657   4.421  19.483  0.00  0.00    +0.000 S 
BRANCH  21  23
ATOM     23  N   UNL     1       4.174   5.516  19.794  0.00  0.00    +0.000 N 
ATOM     24  H   UNL     1       4.584   5.799  20.685  0.00  0.00    +0.000 HD
BRANCH  23  30
ATOM     25  C   UNL     1       5.379   4.362  15.129  0.00  0.00    +0.000 C 
ATOM     26  C   UNL     1       5.809   4.700  16.525  0.00  0.00    +0.000 A 
ATOM     27  C   UNL     1       7.152   4.817  16.887  0.00  0.00    +0.000 A 
ATOM     28  C   UNL     1       7.489   5.141  18.202  0.00  0.00    +0.000 A 
ATOM     29  C   UNL     1       6.484   5.340  19.153  0.00  0.00    +0.000 A 
ATOM     30  C   UNL     1       5.131   5.219  18.804  0.00  0.00    +0.000 A 
ATOM     31  C   UNL     1       4.813   4.911  17.487  0.00  0.00    +0.000 A 
ENDBRANCH  23  30
ENDBRANCH  21  23
ENDBRANCH  17  21
ENDBRANCH   1  18
BRANCH   3  32
ATOM     32  C   UNL     1       1.530  12.491  18.012  0.00  0.00    +0.000 C 
BRANCH  32  33
ATOM     33  C   UNL     1       2.888  13.166  18.254  0.00  0.00    +0.000 C 
BRANCH  33  34
ATOM     34  O   UNL     1       2.999  14.395  17.537  0.00  0.00    +0.000 OA
ATOM     35  H   UNL     1       2.510  15.063  18.050  0.00  0.00    +0.000 HD
ENDBRANCH  33  34
ENDBRANCH  32  33
ENDBRANCH   3  32
TORSDOF 7
ENDMDL
MODEL 9
REMARK VINA RESULT:      -7.7      3.418      8.765
REMARK  Name = 
REMARK  8 active torsions:
REMARK  status: ('A' for Active; 'I' for Inactive)
REMARK    1  A    between atoms: C_1  and  C_2
REMARK    2  A    between atoms: C_6  and  N_7
REMARK    3  A    between atoms: N_7  and  C_8
REMARK    4  A    between atoms: C_8  and  N_10
REMARK    5  A    between atoms: C_11  and  C_13
REMARK    6  A    between atoms: N_15  and  C_16
REMARK    7  A    between atoms: C_16  and  C_17
REMARK    8  A    between atoms: C_17  and  O_18
REMARK                            x       y       z     vdW  Elec       q    Type
REMARK                         _______ _______ _______ _____ _____    ______ ____
ROOT
ATOM      1  C   UNL     1      -0.143  10.260  21.129  0.00  0.00    +0.000 A 
ATOM      2  C   UNL     1       0.520  10.630  20.033  0.00  0.00    +0.000 A 
ATOM      3  N   UNL     1       1.340   9.865  19.216  0.00  0.00    +0.000 N 
ATOM      4  C   UNL     1       1.594   8.501  19.564  0.00  0.00    +0.000 A 
ATOM      5  C   UNL     1       0.914   8.004  20.721  0.00  0.00    +0.000 A 
ATOM      6  C   UNL     1       1.106   6.707  21.190  0.00  0.00    +0.000 A 
ATOM      7  C   UNL     1       1.978   5.860  20.523  0.00  0.00    +0.000 A 
ATOM      8 CL   UNL     1       2.173   4.265  21.188  0.00  0.00    +0.000 Cl
ATOM      9  C   UNL     1       2.669   6.252  19.377  0.00  0.00    +0.000 A 
ATOM     10  N   UNL     1       3.489   5.342  18.801  0.00  0.00    +0.000 NA
ATOM     11  C   UNL     1       4.174   5.651  17.690  0.00  0.00    +0.000 A 
ATOM     12  C   UNL     1       4.071   6.869  17.086  0.00  0.00    +0.000 A 
ATOM     13  C   UNL     1       3.220   7.807  17.665  0.00  0.00    +0.000 A 
ATOM     14  C   UNL     1       2.480   7.572  18.862  0.00  0.00    +0.000 A 
ATOM     15  C   UNL     1      -0.025   8.850  21.514  0.00  0.00    +0.000 A 
ATOM     16  O   UNL     1      -0.680   8.409  22.451  0.00  0.00    +0.000 OA
ENDROOT
BRANCH   1  18
ATOM     17  N   UNL     1      -1.764  12.075  21.106  0.00  0.00    +0.000 N 
ATOM     18  C   UNL     1      -0.882  11.323  21.846  0.00  0.00    +0.000 C 
ATOM     19  O   UNL     1      -0.674  11.526  23.042  0.00  0.00    +0.000 OA
ATOM     20  H   UNL     1      -1.859  11.871  20.111  0.00  0.00    +0.000 HD
BRANCH  17  21
ATOM     21  C   UNL     1      -2.614  13.065  21.581  0.00  0.00    +0.000 C 
ATOM     22  S   UNL     1      -1.937  14.574  21.816  0.00  0.00    +0.000 S 
BRANCH  21  23
ATOM     23  N   UNL     1      -3.913  12.642  21.797  0.00  0.00    +0.000 N 
ATOM     24  H   UNL     1      -4.047  12.186  22.700  0.00  0.00    +0.000 HD
BRANCH  23  30
ATOM     25  C   UNL     1      -6.043  12.441  17.329  0.00  0.00    +0.000 C 
ATOM     26  C   UNL     1      -6.180  12.468  18.821  0.00  0.00    +0.000 A 
ATOM     27  C   UNL     1      -7.417  12.383  19.462  0.00  0.00    +0.000 A 
ATOM     28  C   UNL     1      -7.479  12.406  20.855  0.00  0.00    +0.000 A 
ATOM     29  C   UNL     1      -6.305  12.522  21.606  0.00  0.00    +0.000 A 
ATOM     30  C   UNL     1      -5.056  12.614  20.975  0.00  0.00    +0.000 A 
ATOM     31  C   UNL     1      -5.011  12.574  19.587  0.00  0.00    +0.000 A 
ENDBRANCH  23  30
ENDBRANCH  21  23
ENDBRANCH  17  21
ENDBRANCH   1  18
BRANCH   3  32
ATOM     32  C   UNL     1       2.068  10.619  18.167  0.00  0.00    +0.000 C 
BRANCH  32  33
ATOM     33  C   UNL     1       2.057  12.129  18.446  0.00  0.00    +0.000 C 
BRANCH  33  34
ATOM     34  O   UNL     1       2.463  12.878  17.301  0.00  0.00    +0.000 OA
ATOM     35  H   UNL     1       2.914  12.253  16.704  0.00  0.00    +0.000 HD
ENDBRANCH  33  34
ENDBRANCH  32  33
ENDBRANCH   3  32
TORSDOF 7
ENDMDL
