MODEL 1
REMARK VINA RESULT:      -8.3      0.000      0.000
REMARK  Name = 
REMARK  0 active torsions:
REMARK  status: ('A' for Active; 'I' for Inactive)
REMARK                            x       y       z     vdW  Elec       q    Type
REMARK                         _______ _______ _______ _____ _____    ______ ____
ROOT
ATOM      1  C   UNL     1       1.518  13.763  18.630  0.00  0.00    +0.000 A 
ATOM      2  C   UNL     1       2.439  12.823  18.288  0.00  0.00    +0.000 A 
ATOM      3  C   UNL     1       1.877  11.584  18.342  0.00  0.00    +0.000 A 
ATOM      4  C   UNL     1       1.217  11.251  19.502  0.00  0.00    +0.000 A 
ATOM      5  C   UNL     1       1.051   9.877  19.984  0.00  0.00    +0.000 A 
ATOM      6  C   UNL     1       1.536   8.831  19.336  0.00  0.00    +0.000 A 
ATOM      7  N   UNL     1       2.191   8.873  18.144  0.00  0.00    +0.000 NA
ATOM      8  C   UNL     1       2.825   7.820  17.815  0.00  0.00    +0.000 A 
ATOM      9  C   UNL     1       2.770   6.655  18.626  0.00  0.00    +0.000 A 
ATOM     10  N   UNL     1       3.433   5.545  18.268  0.00  0.00    +0.000 N 
ATOM     11  C   UNL     1       3.316   4.624  19.248  0.00  0.00    +0.000 A 
ATOM     12  C   UNL     1       4.050   3.442  19.339  0.00  0.00    +0.000 A 
ATOM     13  C   UNL     1       3.803   2.648  20.433  0.00  0.00    +0.000 A 
ATOM     14  C   UNL     1       2.671   2.883  21.206  0.00  0.00    +0.000 A 
ATOM     15  C   UNL     1       1.981   4.122  21.140  0.00  0.00    +0.000 A 
ATOM     16  C   UNL     1       2.366   5.093  20.181  0.00  0.00    +0.000 A 
ATOM     17  C   UNL     1       2.097   6.497  19.841  0.00  0.00    +0.000 A 
ATOM     18  C   UNL     1       1.413   7.733  20.342  0.00  0.00    +0.000 A 
ATOM     19  N   UNL     1       0.815   8.112  21.444  0.00  0.00    +0.000 NA
ATOM     20  C   UNL     1       0.556   9.499  21.272  0.00  0.00    +0.000 A 
ATOM     21  C   UNL     1       0.032  10.511  21.977  0.00  0.00    +0.000 A 
ATOM     22  N   UNL     1       0.003  11.860  21.516  0.00  0.00    +0.000 N 
ATOM     23  C   UNL     1       0.661  12.249  20.328  0.00  0.00    +0.000 A 
ATOM     24  C   UNL     1       0.748  13.550  19.805  0.00  0.00    +0.000 A 
ATOM     25  H   UNL     1       4.012   5.438  17.444  0.00  0.00    +0.000 HD
ATOM     26  H   UNL     1      -0.516  12.564  22.029  0.00  0.00    +0.000 HD
ENDROOT
TORSDOF 0
ENDMDL
MODEL 2
REMARK VINA RESULT:      -8.2      1.668      6.979
REMARK  Name = 
REMARK  0 active torsions:
REMARK  status: ('A' for Active; 'I' for Inactive)
REMARK                            x       y       z     vdW  Elec       q    Type
REMARK                         _______ _______ _______ _____ _____    ______ ____
ROOT
ATOM      1  C   UNL     1       4.497   3.268  17.189  0.00  0.00    +0.000 A 
ATOM      2  C   UNL     1       3.863   4.314  16.594  0.00  0.00    +0.000 A 
ATOM      3  C   UNL     1       3.797   5.365  17.455  0.00  0.00    +0.000 A 
ATOM      4  C   UNL     1       3.291   5.111  18.709  0.00  0.00    +0.000 A 
ATOM      5  C   UNL     1       2.629   6.118  19.544  0.00  0.00    +0.000 A 
ATOM      6  C   UNL     1       2.456   7.368  19.150  0.00  0.00    +0.000 A 
ATOM      7  N   UNL     1       2.898   7.897  17.977  0.00  0.00    +0.000 NA
ATOM      8  C   UNL     1       2.402   9.021  17.646  0.00  0.00    +0.000 A 
ATOM      9  C   UNL     1       1.501   9.700  18.508  0.00  0.00    +0.000 A 
ATOM     10  N   UNL     1       0.991  10.891  18.158  0.00  0.00    +0.000 N 
ATOM     11  C   UNL     1       0.085  11.273  19.083  0.00  0.00    +0.000 A 
ATOM     12  C   UNL     1      -0.812  12.333  18.948  0.00  0.00    +0.000 A 
ATOM     13  C   UNL     1      -1.676  12.544  19.995  0.00  0.00    +0.000 A 
ATOM     14  C   UNL     1      -1.432  11.926  21.216  0.00  0.00    +0.000 A 
ATOM     15  C   UNL     1      -0.564  10.807  21.314  0.00  0.00    +0.000 A 
ATOM     16  C   UNL     1       0.172  10.386  20.177  0.00  0.00    +0.000 A 
ATOM     17  C   UNL     1       1.019   9.266  19.746  0.00  0.00    +0.000 A 
ATOM     18  C   UNL     1       1.481   7.898  20.151  0.00  0.00    +0.000 A 
ATOM     19  N   UNL     1       1.198   7.036  21.096  0.00  0.00    +0.000 NA
ATOM     20  C   UNL     1       1.914   5.857  20.755  0.00  0.00    +0.000 A 
ATOM     21  C   UNL     1       2.061   4.609  21.221  0.00  0.00    +0.000 A 
ATOM     22  N   UNL     1       2.824   3.605  20.555  0.00  0.00    +0.000 N 
ATOM     23  C   UNL     1       3.369   3.821  19.270  0.00  0.00    +0.000 A 
ATOM     24  C   UNL     1       4.087   2.894  18.498  0.00  0.00    +0.000 A 
ATOM     25  H   UNL     1       1.173  11.385  17.293  0.00  0.00    +0.000 HD
ATOM     26  H   UNL     1       3.008   2.718  21.011  0.00  0.00    +0.000 HD
ENDROOT
TORSDOF 0
ENDMDL
MODEL 3
REMARK VINA RESULT:      -8.0      1.516      2.105
REMARK  Name = 
REMARK  0 active torsions:
REMARK  status: ('A' for Active; 'I' for Inactive)
REMARK                            x       y       z     vdW  Elec       q    Type
REMARK                         _______ _______ _______ _____ _____    ______ ____
ROOT
ATOM      1  C   UNL     1      -0.911  14.008  20.830  0.00  0.00    +0.000 A 
ATOM      2  C   UNL     1       0.128  13.621  20.044  0.00  0.00    +0.000 A 
ATOM      3  C   UNL     1       0.028  12.292  19.768  0.00  0.00    +0.000 A 
ATOM      4  C   UNL     1      -0.143  11.446  20.838  0.00  0.00    +0.000 A 
ATOM      5  C   UNL     1       0.279  10.041  20.847  0.00  0.00    +0.000 A 
ATOM      6  C   UNL     1       0.872   9.469  19.813  0.00  0.00    +0.000 A 
ATOM      7  N   UNL     1       1.122  10.064  18.614  0.00  0.00    +0.000 NA
ATOM      8  C   UNL     1       1.942   9.462  17.849  0.00  0.00    +0.000 A 
ATOM      9  C   UNL     1       2.488   8.204  18.216  0.00  0.00    +0.000 A 
ATOM     10  N   UNL     1       3.343   7.569  17.399  0.00  0.00    +0.000 N 
ATOM     11  C   UNL     1       3.802   6.459  18.015  0.00  0.00    +0.000 A 
ATOM     12  C   UNL     1       4.869   5.675  17.579  0.00  0.00    +0.000 A 
ATOM     13  C   UNL     1       5.202   4.597  18.365  0.00  0.00    +0.000 A 
ATOM     14  C   UNL     1       4.314   4.169  19.346  0.00  0.00    +0.000 A 
ATOM     15  C   UNL     1       3.276   5.014  19.817  0.00  0.00    +0.000 A 
ATOM     16  C   UNL     1       3.050   6.267  19.194  0.00  0.00    +0.000 A 
ATOM     17  C   UNL     1       2.264   7.492  19.398  0.00  0.00    +0.000 A 
ATOM     18  C   UNL     1       1.389   8.193  20.393  0.00  0.00    +0.000 A 
ATOM     19  N   UNL     1       1.031   8.016  21.641  0.00  0.00    +0.000 NA
ATOM     20  C   UNL     1       0.307   9.187  21.993  0.00  0.00    +0.000 A 
ATOM     21  C   UNL     1      -0.296   9.699  23.075  0.00  0.00    +0.000 A 
ATOM     22  N   UNL     1      -0.879  11.000  23.109  0.00  0.00    +0.000 N 
ATOM     23  C   UNL     1      -0.736  11.903  22.032  0.00  0.00    +0.000 A 
ATOM     24  C   UNL     1      -1.217  13.221  21.973  0.00  0.00    +0.000 A 
ATOM     25  H   UNL     1       3.674   7.909  16.505  0.00  0.00    +0.000 HD
ATOM     26  H   UNL     1      -1.432  11.290  23.908  0.00  0.00    +0.000 HD
ENDROOT
TORSDOF 0
ENDMDL
MODEL 4
REMARK VINA RESULT:      -8.0      2.123      4.043
REMARK  Name = 
REMARK  0 active torsions:
REMARK  status: ('A' for Active; 'I' for Inactive)
REMARK                            x       y       z     vdW  Elec       q    Type
REMARK                         _______ _______ _______ _____ _____    ______ ____
ROOT
ATOM      1  C   UNL     1      -3.040  13.613  23.065  0.00  0.00    +0.000 A 
ATOM      2  C   UNL     1      -2.829  12.276  23.193  0.00  0.00    +0.000 A 
ATOM      3  C   UNL     1      -1.595  11.956  22.717  0.00  0.00    +0.000 A 
ATOM      4  C   UNL     1      -1.281  12.401  21.454  0.00  0.00    +0.000 A 
ATOM      5  C   UNL     1      -0.319  11.739  20.568  0.00  0.00    +0.000 A 
ATOM      6  C   UNL     1       0.329  10.639  20.915  0.00  0.00    +0.000 A 
ATOM      7  N   UNL     1       0.240  10.015  22.120  0.00  0.00    +0.000 NA
ATOM      8  C   UNL     1       0.707   8.832  22.175  0.00  0.00    +0.000 A 
ATOM      9  C   UNL     1       1.352   8.253  21.051  0.00  0.00    +0.000 A 
ATOM     10  N   UNL     1       1.852   7.009  21.120  0.00  0.00    +0.000 N 
ATOM     11  C   UNL     1       2.309   6.648  19.901  0.00  0.00    +0.000 A 
ATOM     12  C   UNL     1       2.686   5.358  19.528  0.00  0.00    +0.000 A 
ATOM     13  C   UNL     1       3.098   5.190  18.228  0.00  0.00    +0.000 A 
ATOM     14  C   UNL     1       3.405   6.307  17.460  0.00  0.00    +0.000 A 
ATOM     15  C   UNL     1       2.952   7.601  17.830  0.00  0.00    +0.000 A 
ATOM     16  C   UNL     1       2.286   7.787  19.067  0.00  0.00    +0.000 A 
ATOM     17  C   UNL     1       1.532   8.822  19.787  0.00  0.00    +0.000 A 
ATOM     18  C   UNL     1       0.911  10.176  19.619  0.00  0.00    +0.000 A 
ATOM     19  N   UNL     1       0.686  11.007  18.630  0.00  0.00    +0.000 NA
ATOM     20  C   UNL     1      -0.111  12.044  19.186  0.00  0.00    +0.000 A 
ATOM     21  C   UNL     1      -0.727  13.159  18.772  0.00  0.00    +0.000 A 
ATOM     22  N   UNL     1      -1.556  13.960  19.612  0.00  0.00    +0.000 N 
ATOM     23  C   UNL     1      -1.901  13.547  20.918  0.00  0.00    +0.000 A 
ATOM     24  C   UNL     1      -2.749  14.220  21.813  0.00  0.00    +0.000 A 
ATOM     25  H   UNL     1       1.811   6.395  21.923  0.00  0.00    +0.000 HD
ATOM     26  H   UNL     1      -1.895  14.858  19.287  0.00  0.00    +0.000 HD
ENDROOT
TORSDOF 0
ENDMDL
MODEL 5
REMARK VINA RESULT:      -7.6      2.743      5.015
REMARK  Name = 
REMARK  0 active torsions:
REMARK  status: ('A' for Active; 'I' for Inactive)
REMARK                            x       y       z     vdW  Elec       q    Type
REMARK                         _______ _______ _______ _____ _____    ______ ____
ROOT
ATOM      1  C   UNL     1      -4.253  13.545  23.999  0.00  0.00    +0.000 A 
ATOM      2  C   UNL     1      -3.821  12.257  24.066  0.00  0.00    +0.000 A 
ATOM      3  C   UNL     1      -2.592  12.152  23.492  0.00  0.00    +0.000 A 
ATOM      4  C   UNL     1      -2.451  12.670  22.225  0.00  0.00    +0.000 A 
ATOM      5  C   UNL     1      -1.466  12.192  21.250  0.00  0.00    +0.000 A 
ATOM      6  C   UNL     1      -0.625  11.205  21.512  0.00  0.00    +0.000 A 
ATOM      7  N   UNL     1      -0.520  10.549  22.699  0.00  0.00    +0.000 NA
ATOM      8  C   UNL     1       0.133   9.457  22.680  0.00  0.00    +0.000 A 
ATOM      9  C   UNL     1       0.774   9.014  21.493  0.00  0.00    +0.000 A 
ATOM     10  N   UNL     1       1.472   7.868  21.483  0.00  0.00    +0.000 N 
ATOM     11  C   UNL     1       1.885   7.612  20.224  0.00  0.00    +0.000 A 
ATOM     12  C   UNL     1       2.435   6.409  19.781  0.00  0.00    +0.000 A 
ATOM     13  C   UNL     1       2.768   6.338  18.449  0.00  0.00    +0.000 A 
ATOM     14  C   UNL     1       2.832   7.507  17.699  0.00  0.00    +0.000 A 
ATOM     15  C   UNL     1       2.207   8.702  18.144  0.00  0.00    +0.000 A 
ATOM     16  C   UNL     1       1.617   8.750  19.432  0.00  0.00    +0.000 A 
ATOM     17  C   UNL     1       0.763   9.633  20.239  0.00  0.00    +0.000 A 
ATOM     18  C   UNL     1      -0.078  10.872  20.162  0.00  0.00    +0.000 A 
ATOM     19  N   UNL     1      -0.508  11.676  19.221  0.00  0.00    +0.000 NA
ATOM     20  C   UNL     1      -1.417  12.557  19.868  0.00  0.00    +0.000 A 
ATOM     21  C   UNL     1      -2.233  13.567  19.537  0.00  0.00    +0.000 A 
ATOM     22  N   UNL     1      -3.113  14.203  20.462  0.00  0.00    +0.000 N 
ATOM     23  C   UNL     1      -3.286  13.712  21.775  0.00  0.00    +0.000 A 
ATOM     24  C   UNL     1      -4.160  14.218  22.750  0.00  0.00    +0.000 A 
ATOM     25  H   UNL     1       1.591   7.237  22.267  0.00  0.00    +0.000 HD
ATOM     26  H   UNL     1      -3.616  15.041  20.193  0.00  0.00    +0.000 HD
ENDROOT
TORSDOF 0
ENDMDL
MODEL 6
REMARK VINA RESULT:      -7.3      2.363      4.184
REMARK  Name = 
REMARK  0 active torsions:
REMARK  status: ('A' for Active; 'I' for Inactive)
REMARK                            x       y       z     vdW  Elec       q    Type
REMARK                         _______ _______ _______ _____ _____    ______ ____
ROOT
ATOM      1  C   UNL     1      -0.804   9.453  22.279  0.00  0.00    +0.000 A 
ATOM      2  C   UNL     1      -0.472   8.171  21.974  0.00  0.00    +0.000 A 
ATOM      3  C   UNL     1       0.756   8.139  21.386  0.00  0.00    +0.000 A 
ATOM      4  C   UNL     1       0.956   8.984  20.320  0.00  0.00    +0.000 A 
ATOM      5  C   UNL     1       1.919   8.729  19.243  0.00  0.00    +0.000 A 
ATOM      6  C   UNL     1       2.678   7.647  19.208  0.00  0.00    +0.000 A 
ATOM      7  N   UNL     1       2.713   6.673  20.158  0.00  0.00    +0.000 NA
ATOM      8  C   UNL     1       3.283   5.585  19.824  0.00  0.00    +0.000 A 
ATOM      9  C   UNL     1       3.909   5.451  18.557  0.00  0.00    +0.000 A 
ATOM     10  N   UNL     1       4.518   4.304  18.217  0.00  0.00    +0.000 N 
ATOM     11  C   UNL     1       4.932   4.387  16.934  0.00  0.00    +0.000 A 
ATOM     12  C   UNL     1       5.396   3.321  16.164  0.00  0.00    +0.000 A 
ATOM     13  C   UNL     1       5.745   3.607  14.866  0.00  0.00    +0.000 A 
ATOM     14  C   UNL     1       5.909   4.933  14.480  0.00  0.00    +0.000 A 
ATOM     15  C   UNL     1       5.369   5.995  15.250  0.00  0.00    +0.000 A 
ATOM     16  C   UNL     1       4.762   5.720  16.502  0.00  0.00    +0.000 A 
ATOM     17  C   UNL     1       3.965   6.400  17.532  0.00  0.00    +0.000 A 
ATOM     18  C   UNL     1       3.221   7.670  17.816  0.00  0.00    +0.000 A 
ATOM     19  N   UNL     1       2.868   8.739  17.146  0.00  0.00    +0.000 NA
ATOM     20  C   UNL     1       2.018   9.467  18.022  0.00  0.00    +0.000 A 
ATOM     21  C   UNL     1       1.285  10.589  17.998  0.00  0.00    +0.000 A 
ATOM     22  N   UNL     1       0.441  11.001  19.070  0.00  0.00    +0.000 N 
ATOM     23  C   UNL     1       0.209  10.171  20.189  0.00  0.00    +0.000 A 
ATOM     24  C   UNL     1      -0.640  10.445  21.274  0.00  0.00    +0.000 A 
ATOM     25  H   UNL     1       4.576   3.470  18.787  0.00  0.00    +0.000 HD
ATOM     26  H   UNL     1       0.007  11.918  19.055  0.00  0.00    +0.000 HD
ENDROOT
TORSDOF 0
ENDMDL
MODEL 7
REMARK VINA RESULT:      -7.2      0.931      7.515
REMARK  Name = 
REMARK  0 active torsions:
REMARK  status: ('A' for Active; 'I' for Inactive)
REMARK                            x       y       z     vdW  Elec       q    Type
REMARK                         _______ _______ _______ _____ _____    ______ ____
ROOT
ATOM      1  C   UNL     1       2.600   2.523  20.985  0.00  0.00    +0.000 A 
ATOM      2  C   UNL     1       2.391   3.633  21.743  0.00  0.00    +0.000 A 
ATOM      3  C   UNL     1       1.823   4.610  20.986  0.00  0.00    +0.000 A 
ATOM      4  C   UNL     1       2.445   4.916  19.797  0.00  0.00    +0.000 A 
ATOM      5  C   UNL     1       2.363   6.226  19.145  0.00  0.00    +0.000 A 
ATOM      6  C   UNL     1       1.680   7.236  19.657  0.00  0.00    +0.000 A 
ATOM      7  N   UNL     1       0.937   7.192  20.796  0.00  0.00    +0.000 NA
ATOM      8  C   UNL     1       0.587   8.316  21.280  0.00  0.00    +0.000 A 
ATOM      9  C   UNL     1       0.899   9.527  20.607  0.00  0.00    +0.000 A 
ATOM     10  N   UNL     1       0.516  10.707  21.118  0.00  0.00    +0.000 N 
ATOM     11  C   UNL     1       1.024  11.702  20.360  0.00  0.00    +0.000 A 
ATOM     12  C   UNL     1       1.034  13.055  20.701  0.00  0.00    +0.000 A 
ATOM     13  C   UNL     1       1.625  13.911  19.804  0.00  0.00    +0.000 A 
ATOM     14  C   UNL     1       1.899  13.466  18.515  0.00  0.00    +0.000 A 
ATOM     15  C   UNL     1       1.946  12.080  18.210  0.00  0.00    +0.000 A 
ATOM     16  C   UNL     1       1.582  11.130  19.197  0.00  0.00    +0.000 A 
ATOM     17  C   UNL     1       1.616   9.677  19.417  0.00  0.00    +0.000 A 
ATOM     18  C   UNL     1       2.152   8.399  18.845  0.00  0.00    +0.000 A 
ATOM     19  N   UNL     1       2.971   8.054  17.883  0.00  0.00    +0.000 NA
ATOM     20  C   UNL     1       3.148   6.651  18.027  0.00  0.00    +0.000 A 
ATOM     21  C   UNL     1       3.854   5.670  17.447  0.00  0.00    +0.000 A 
ATOM     22  N   UNL     1       3.866   4.324  17.919  0.00  0.00    +0.000 N 
ATOM     23  C   UNL     1       3.236   3.960  19.130  0.00  0.00    +0.000 A 
ATOM     24  C   UNL     1       3.227   2.686  19.720  0.00  0.00    +0.000 A 
ATOM     25  H   UNL     1       0.013  10.844  21.986  0.00  0.00    +0.000 HD
ATOM     26  H   UNL     1       4.313   3.596  17.373  0.00  0.00    +0.000 HD
ENDROOT
TORSDOF 0
ENDMDL
MODEL 8
REMARK VINA RESULT:      -7.2      1.555      3.009
REMARK  Name = 
REMARK  0 active torsions:
REMARK  status: ('A' for Active; 'I' for Inactive)
REMARK                            x       y       z     vdW  Elec       q    Type
REMARK                         _______ _______ _______ _____ _____    ______ ____
ROOT
ATOM      1  C   UNL     1      -0.729  12.437  21.485  0.00  0.00    +0.000 A 
ATOM      2  C   UNL     1      -1.021  11.121  21.662  0.00  0.00    +0.000 A 
ATOM      3  C   UNL     1       0.081  10.365  21.408  0.00  0.00    +0.000 A 
ATOM      4  C   UNL     1       0.726  10.587  20.213  0.00  0.00    +0.000 A 
ATOM      5  C   UNL     1       1.523   9.575  19.513  0.00  0.00    +0.000 A 
ATOM      6  C   UNL     1       1.683   8.347  19.977  0.00  0.00    +0.000 A 
ATOM      7  N   UNL     1       1.192   7.876  21.156  0.00  0.00    +0.000 NA
ATOM      8  C   UNL     1       1.202   6.612  21.303  0.00  0.00    +0.000 A 
ATOM      9  C   UNL     1       1.772   5.770  20.312  0.00  0.00    +0.000 A 
ATOM     10  N   UNL     1       1.789   4.438  20.479  0.00  0.00    +0.000 N 
ATOM     11  C   UNL     1       2.276   3.859  19.361  0.00  0.00    +0.000 A 
ATOM     12  C   UNL     1       2.233   2.495  19.072  0.00  0.00    +0.000 A 
ATOM     13  C   UNL     1       2.759   2.106  17.864  0.00  0.00    +0.000 A 
ATOM     14  C   UNL     1       3.554   2.994  17.148  0.00  0.00    +0.000 A 
ATOM     15  C   UNL     1       3.530   4.387  17.421  0.00  0.00    +0.000 A 
ATOM     16  C   UNL     1       2.784   4.875  18.524  0.00  0.00    +0.000 A 
ATOM     17  C   UNL     1       2.336   6.154  19.092  0.00  0.00    +0.000 A 
ATOM     18  C   UNL     1       2.262   7.623  18.806  0.00  0.00    +0.000 A 
ATOM     19  N   UNL     1       2.500   8.409  17.785  0.00  0.00    +0.000 NA
ATOM     20  C   UNL     1       2.038   9.693  18.184  0.00  0.00    +0.000 A 
ATOM     21  C   UNL     1       1.925  10.920  17.658  0.00  0.00    +0.000 A 
ATOM     22  N   UNL     1       1.306  12.013  18.335  0.00  0.00    +0.000 N 
ATOM     23  C   UNL     1       0.638  11.836  19.567  0.00  0.00    +0.000 A 
ATOM     24  C   UNL     1      -0.051  12.819  20.296  0.00  0.00    +0.000 A 
ATOM     25  H   UNL     1       1.409   3.933  21.270  0.00  0.00    +0.000 HD
ATOM     26  H   UNL     1       1.358  12.948  17.948  0.00  0.00    +0.000 HD
ENDROOT
TORSDOF 0
ENDMDL
MODEL 9
REMARK VINA RESULT:      -7.2      2.262      6.962
REMARK  Name = 
REMARK  0 active torsions:
REMARK  status: ('A' for Active; 'I' for Inactive)
REMARK                            x       y       z     vdW  Elec       q    Type
REMARK                         _______ _______ _______ _____ _____    ______ ____
ROOT
ATOM      1  C   UNL     1       5.978   4.157  14.802  0.00  0.00    +0.000 A 
ATOM      2  C   UNL     1       5.106   5.194  14.697  0.00  0.00    +0.000 A 
ATOM      3  C   UNL     1       4.993   5.826  15.896  0.00  0.00    +0.000 A 
ATOM      4  C   UNL     1       4.718   5.039  16.991  0.00  0.00    +0.000 A 
ATOM      5  C   UNL     1       4.026   5.519  18.191  0.00  0.00    +0.000 A 
ATOM      6  C   UNL     1       3.598   6.764  18.317  0.00  0.00    +0.000 A 
ATOM      7  N   UNL     1       3.779   7.759  17.406  0.00  0.00    +0.000 NA
ATOM      8  C   UNL     1       3.064   8.801  17.565  0.00  0.00    +0.000 A 
ATOM      9  C   UNL     1       2.197   8.924  18.682  0.00  0.00    +0.000 A 
ATOM     10  N   UNL     1       1.456  10.030  18.849  0.00  0.00    +0.000 N 
ATOM     11  C   UNL     1       0.641   9.860  19.912  0.00  0.00    +0.000 A 
ATOM     12  C   UNL     1      -0.426  10.690  20.254  0.00  0.00    +0.000 A 
ATOM     13  C   UNL     1      -1.156  10.329  21.361  0.00  0.00    +0.000 A 
ATOM     14  C   UNL     1      -0.644   9.375  22.234  0.00  0.00    +0.000 A 
ATOM     15  C   UNL     1       0.399   8.498  21.836  0.00  0.00    +0.000 A 
ATOM     16  C   UNL     1       1.024   8.675  20.576  0.00  0.00    +0.000 A 
ATOM     17  C   UNL     1       1.972   7.983  19.691  0.00  0.00    +0.000 A 
ATOM     18  C   UNL     1       2.702   6.686  19.510  0.00  0.00    +0.000 A 
ATOM     19  N   UNL     1       2.700   5.503  20.072  0.00  0.00    +0.000 NA
ATOM     20  C   UNL     1       3.542   4.699  19.258  0.00  0.00    +0.000 A 
ATOM     21  C   UNL     1       3.954   3.425  19.201  0.00  0.00    +0.000 A 
ATOM     22  N   UNL     1       4.768   2.906  18.150  0.00  0.00    +0.000 N 
ATOM     23  C   UNL     1       5.082   3.678  17.010  0.00  0.00    +0.000 A 
ATOM     24  C   UNL     1       5.824   3.260  15.894  0.00  0.00    +0.000 A 
ATOM     25  H   UNL     1       1.432  10.829  18.228  0.00  0.00    +0.000 HD
ATOM     26  H   UNL     1       5.155   1.972  18.220  0.00  0.00    +0.000 HD
ENDROOT
TORSDOF 0
ENDMDL
