MODEL 1
REMARK VINA RESULT:      -7.1      0.000      0.000
REMARK  Name = 
REMARK  11 active torsions:
REMARK  status: ('A' for Active; 'I' for Inactive)
REMARK    1  A    between atoms: C_1  and  C_2
REMARK    2  A    between atoms: C_2  and  C_3
REMARK    3  A    between atoms: C_3  and  N_4
REMARK    4  A    between atoms: C_5  and  C_6
REMARK    5  A    between atoms: C_8  and  C_9
REMARK    6  A    between atoms: C_9  and  C_11
REMARK    7  A    between atoms: C_11  and  O_12
REMARK    8  A    between atoms: O_12  and  C_13
REMARK    9  A    between atoms: C_13  and  C_15
REMARK   10  A    between atoms: C_17  and  O_18
REMARK   11  A    between atoms: C_26  and  C_27
REMARK                            x       y       z     vdW  Elec       q    Type
REMARK                         _______ _______ _______ _____ _____    ______ ____
ROOT
ATOM      1  O   UNL     1       2.973   4.834  20.776  0.00  0.00    +0.000 OA
ENDROOT
BRANCH   1   2
ATOM      2  C   UNL     1       1.764   5.340  20.400  0.00  0.00    +0.000 C 
ATOM      3  O   UNL     1       0.697   4.779  20.568  0.00  0.00    +0.000 OA
BRANCH   2   4
ATOM      4  C   UNL     1       1.926   6.672  19.761  0.00  0.00    +0.000 A 
ATOM      5  C   UNL     1       2.597   6.748  18.536  0.00  0.00    +0.000 A 
ATOM      6  C   UNL     1       2.662   7.979  17.924  0.00  0.00    +0.000 A 
ATOM      7  N   UNL     1       2.118   9.096  18.423  0.00  0.00    +0.000 NA
ATOM      8  C   UNL     1       1.459   9.025  19.589  0.00  0.00    +0.000 A 
ATOM      9  C   UNL     1       0.867  10.185  20.074  0.00  0.00    +0.000 A 
ATOM     10  C   UNL     1       0.157  10.209  21.276  0.00  0.00    +0.000 A 
ATOM     11  C   UNL     1       0.054   9.053  22.030  0.00  0.00    +0.000 A 
ATOM     12  C   UNL     1       0.643   7.878  21.570  0.00  0.00    +0.000 A 
ATOM     13  C   UNL     1       1.338   7.833  20.331  0.00  0.00    +0.000 A 
BRANCH   6  14
ATOM     14  O   UNL     1       3.289   8.141  16.726  0.00  0.00    +0.000 OA
ATOM     15  H   UNL     1       3.967   8.826  16.821  0.00  0.00    +0.000 HD
ENDBRANCH   6  14
ENDBRANCH   2   4
ENDBRANCH   1   2
BRANCH   1  16
ATOM     16  C   UNL     1       3.114   3.439  20.478  0.00  0.00    +0.000 C 
BRANCH  16  17
ATOM     17  C   UNL     1       4.495   3.099  19.900  0.00  0.00    +0.000 C 
ATOM     18  O   UNL     1       5.045   2.039  20.211  0.00  0.00    +0.000 OA
BRANCH  17  23
ATOM     19  N   UNL     1       5.531   5.174  17.033  0.00  0.00    +0.000 N 
ATOM     20  C   UNL     1       6.356   5.701  18.007  0.00  0.00    +0.000 A 
ATOM     21  C   UNL     1       7.339   6.803  17.799  0.00  0.00    +0.000 C 
ATOM     22  C   UNL     1       6.098   5.015  19.179  0.00  0.00    +0.000 A 
ATOM     23  C   UNL     1       5.094   4.037  18.932  0.00  0.00    +0.000 A 
ATOM     24  C   UNL     1       4.784   4.137  17.575  0.00  0.00    +0.000 A 
ATOM     25  C   UNL     1       3.842   3.318  16.751  0.00  0.00    +0.000 C 
BRANCH  19  26
ATOM     26  C   UNL     1       5.510   5.581  15.632  0.00  0.00    +0.000 C 
BRANCH  26  28
ATOM     27  C   UNL     1       6.015   3.923  13.745  0.00  0.00    +0.000 C 
ATOM     28  C   UNL     1       6.574   4.918  14.751  0.00  0.00    +0.000 C 
ENDBRANCH  26  28
ENDBRANCH  19  26
ENDBRANCH  17  23
ENDBRANCH  16  17
ENDBRANCH   1  16
TORSDOF 8
ENDMDL
MODEL 2
REMARK VINA RESULT:      -7.1      2.590      8.279
REMARK  Name = 
REMARK  11 active torsions:
REMARK  status: ('A' for Active; 'I' for Inactive)
REMARK    1  A    between atoms: C_1  and  C_2
REMARK    2  A    between atoms: C_2  and  C_3
REMARK    3  A    between atoms: C_3  and  N_4
REMARK    4  A    between atoms: C_5  and  C_6
REMARK    5  A    between atoms: C_8  and  C_9
REMARK    6  A    between atoms: C_9  and  C_11
REMARK    7  A    between atoms: C_11  and  O_12
REMARK    8  A    between atoms: O_12  and  C_13
REMARK    9  A    between atoms: C_13  and  C_15
REMARK   10  A    between atoms: C_17  and  O_18
REMARK   11  A    between atoms: C_26  and  C_27
REMARK                            x       y       z     vdW  Elec       q    Type
REMARK                         _______ _______ _______ _____ _____    ______ ____
ROOT
ATOM      1  O   UNL     1       1.545   8.105  17.712  0.00  0.00    +0.000 OA
ENDROOT
BRANCH   1   2
ATOM      2  C   UNL     1       2.369   7.462  18.587  0.00  0.00    +0.000 C 
ATOM      3  O   UNL     1       2.389   7.657  19.789  0.00  0.00    +0.000 OA
BRANCH   2   4
ATOM      4  C   UNL     1       3.237   6.488  17.875  0.00  0.00    +0.000 A 
ATOM      5  C   UNL     1       4.431   6.947  17.309  0.00  0.00    +0.000 A 
ATOM      6  C   UNL     1       5.257   6.013  16.728  0.00  0.00    +0.000 A 
ATOM      7  N   UNL     1       4.992   4.701  16.680  0.00  0.00    +0.000 NA
ATOM      8  C   UNL     1       3.857   4.254  17.236  0.00  0.00    +0.000 A 
ATOM      9  C   UNL     1       3.615   2.885  17.213  0.00  0.00    +0.000 A 
ATOM     10  C   UNL     1       2.464   2.326  17.771  0.00  0.00    +0.000 A 
ATOM     11  C   UNL     1       1.513   3.152  18.344  0.00  0.00    +0.000 A 
ATOM     12  C   UNL     1       1.728   4.527  18.376  0.00  0.00    +0.000 A 
ATOM     13  C   UNL     1       2.911   5.106  17.843  0.00  0.00    +0.000 A 
BRANCH   6  14
ATOM     14  O   UNL     1       6.441   6.371  16.160  0.00  0.00    +0.000 OA
ATOM     15  H   UNL     1       6.660   5.732  15.466  0.00  0.00    +0.000 HD
ENDBRANCH   6  14
ENDBRANCH   2   4
ENDBRANCH   1   2
BRANCH   1  16
ATOM     16  C   UNL     1       1.450   9.514  17.963  0.00  0.00    +0.000 C 
BRANCH  16  17
ATOM     17  C   UNL     1       0.023   9.952  18.318  0.00  0.00    +0.000 C 
ATOM     18  O   UNL     1      -0.853   9.948  17.449  0.00  0.00    +0.000 OA
BRANCH  17  23
ATOM     19  N   UNL     1      -0.990  11.408  21.550  0.00  0.00    +0.000 N 
ATOM     20  C   UNL     1      -0.462  10.212  21.994  0.00  0.00    +0.000 A 
ATOM     21  C   UNL     1      -0.396   9.776  23.419  0.00  0.00    +0.000 C 
ATOM     22  C   UNL     1      -0.017   9.523  20.883  0.00  0.00    +0.000 A 
ATOM     23  C   UNL     1      -0.267  10.306  19.720  0.00  0.00    +0.000 A 
ATOM     24  C   UNL     1      -0.844  11.492  20.173  0.00  0.00    +0.000 A 
ATOM     25  C   UNL     1      -1.260  12.704  19.400  0.00  0.00    +0.000 C 
BRANCH  19  26
ATOM     26  C   UNL     1      -1.535  12.461  22.403  0.00  0.00    +0.000 C 
BRANCH  26  28
ATOM     27  C   UNL     1      -3.577  12.450  23.951  0.00  0.00    +0.000 C 
ATOM     28  C   UNL     1      -3.063  12.471  22.519  0.00  0.00    +0.000 C 
ENDBRANCH  26  28
ENDBRANCH  19  26
ENDBRANCH  17  23
ENDBRANCH  16  17
ENDBRANCH   1  16
TORSDOF 8
ENDMDL
MODEL 3
REMARK VINA RESULT:      -7.0      1.798      7.274
REMARK  Name = 
REMARK  11 active torsions:
REMARK  status: ('A' for Active; 'I' for Inactive)
REMARK    1  A    between atoms: C_1  and  C_2
REMARK    2  A    between atoms: C_2  and  C_3
REMARK    3  A    between atoms: C_3  and  N_4
REMARK    4  A    between atoms: C_5  and  C_6
REMARK    5  A    between atoms: C_8  and  C_9
REMARK    6  A    between atoms: C_9  and  C_11
REMARK    7  A    between atoms: C_11  and  O_12
REMARK    8  A    between atoms: O_12  and  C_13
REMARK    9  A    between atoms: C_13  and  C_15
REMARK   10  A    between atoms: C_17  and  O_18
REMARK   11  A    between atoms: C_26  and  C_27
REMARK                            x       y       z     vdW  Elec       q    Type
REMARK                         _______ _______ _______ _____ _____    ______ ____
ROOT
ATOM      1  O   UNL     1       2.943   4.750  18.251  0.00  0.00    +0.000 OA
ENDROOT
BRANCH   1   2
ATOM      2  C   UNL     1       4.014   4.060  18.736  0.00  0.00    +0.000 C 
ATOM      3  O   UNL     1       3.938   3.086  19.462  0.00  0.00    +0.000 OA
BRANCH   2   4
ATOM      4  C   UNL     1       5.287   4.657  18.256  0.00  0.00    +0.000 A 
ATOM      5  C   UNL     1       6.165   5.206  19.196  0.00  0.00    +0.000 A 
ATOM      6  C   UNL     1       7.373   5.678  18.737  0.00  0.00    +0.000 A 
ATOM      7  N   UNL     1       7.758   5.636  17.454  0.00  0.00    +0.000 NA
ATOM      8  C   UNL     1       6.927   5.096  16.552  0.00  0.00    +0.000 A 
ATOM      9  C   UNL     1       7.357   5.025  15.231  0.00  0.00    +0.000 A 
ATOM     10  C   UNL     1       6.564   4.475  14.222  0.00  0.00    +0.000 A 
ATOM     11  C   UNL     1       5.298   4.008  14.527  0.00  0.00    +0.000 A 
ATOM     12  C   UNL     1       4.840   4.073  15.841  0.00  0.00    +0.000 A 
ATOM     13  C   UNL     1       5.651   4.597  16.883  0.00  0.00    +0.000 A 
BRANCH   6  14
ATOM     14  O   UNL     1       8.290   6.221  19.584  0.00  0.00    +0.000 OA
ATOM     15  H   UNL     1       8.375   5.646  20.359  0.00  0.00    +0.000 HD
ENDBRANCH   6  14
ENDBRANCH   2   4
ENDBRANCH   1   2
BRANCH   1  16
ATOM     16  C   UNL     1       2.306   5.566  19.243  0.00  0.00    +0.000 C 
BRANCH  16  17
ATOM     17  C   UNL     1       2.553   7.064  19.017  0.00  0.00    +0.000 C 
ATOM     18  O   UNL     1       3.346   7.429  18.146  0.00  0.00    +0.000 OA
BRANCH  17  23
ATOM     19  N   UNL     1       0.499   9.789  20.415  0.00  0.00    +0.000 N 
ATOM     20  C   UNL     1       0.701   9.044  21.561  0.00  0.00    +0.000 A 
ATOM     21  C   UNL     1       0.167   9.381  22.912  0.00  0.00    +0.000 C 
ATOM     22  C   UNL     1       1.479   7.957  21.211  0.00  0.00    +0.000 A 
ATOM     23  C   UNL     1       1.774   8.026  19.820  0.00  0.00    +0.000 A 
ATOM     24  C   UNL     1       1.177   9.199  19.358  0.00  0.00    +0.000 A 
ATOM     25  C   UNL     1       1.208   9.808  17.992  0.00  0.00    +0.000 C 
BRANCH  19  26
ATOM     26  C   UNL     1      -0.237  11.048  20.344  0.00  0.00    +0.000 C 
BRANCH  26  28
ATOM     27  C   UNL     1       1.583  12.836  20.107  0.00  0.00    +0.000 C 
ATOM     28  C   UNL     1       0.478  12.249  20.972  0.00  0.00    +0.000 C 
ENDBRANCH  26  28
ENDBRANCH  19  26
ENDBRANCH  17  23
ENDBRANCH  16  17
ENDBRANCH   1  16
TORSDOF 8
ENDMDL
MODEL 4
REMARK VINA RESULT:      -6.9      1.854      7.638
REMARK  Name = 
REMARK  11 active torsions:
REMARK  status: ('A' for Active; 'I' for Inactive)
REMARK    1  A    between atoms: C_1  and  C_2
REMARK    2  A    between atoms: C_2  and  C_3
REMARK    3  A    between atoms: C_3  and  N_4
REMARK    4  A    between atoms: C_5  and  C_6
REMARK    5  A    between atoms: C_8  and  C_9
REMARK    6  A    between atoms: C_9  and  C_11
REMARK    7  A    between atoms: C_11  and  O_12
REMARK    8  A    between atoms: O_12  and  C_13
REMARK    9  A    between atoms: C_13  and  C_15
REMARK   10  A    between atoms: C_17  and  O_18
REMARK   11  A    between atoms: C_26  and  C_27
REMARK                            x       y       z     vdW  Elec       q    Type
REMARK                         _______ _______ _______ _____ _____    ______ ____
ROOT
ATOM      1  O   UNL     1       2.624   5.349  17.951  0.00  0.00    +0.000 OA
ENDROOT
BRANCH   1   2
ATOM      2  C   UNL     1       3.441   4.363  18.418  0.00  0.00    +0.000 C 
ATOM      3  O   UNL     1       3.053   3.324  18.919  0.00  0.00    +0.000 OA
BRANCH   2   4
ATOM      4  C   UNL     1       4.869   4.727  18.228  0.00  0.00    +0.000 A 
ATOM      5  C   UNL     1       5.641   5.014  19.358  0.00  0.00    +0.000 A 
ATOM      6  C   UNL     1       6.980   5.268  19.164  0.00  0.00    +0.000 A 
ATOM      7  N   UNL     1       7.583   5.248  17.969  0.00  0.00    +0.000 NA
ATOM      8  C   UNL     1       6.850   4.957  16.884  0.00  0.00    +0.000 A 
ATOM      9  C   UNL     1       7.499   4.903  15.656  0.00  0.00    +0.000 A 
ATOM     10  C   UNL     1       6.821   4.603  14.472  0.00  0.00    +0.000 A 
ATOM     11  C   UNL     1       5.457   4.378  14.506  0.00  0.00    +0.000 A 
ATOM     12  C   UNL     1       4.782   4.432  15.722  0.00  0.00    +0.000 A 
ATOM     13  C   UNL     1       5.465   4.701  16.939  0.00  0.00    +0.000 A 
BRANCH   6  14
ATOM     14  O   UNL     1       7.806   5.548  20.209  0.00  0.00    +0.000 OA
ATOM     15  H   UNL     1       8.671   5.149  20.038  0.00  0.00    +0.000 HD
ENDBRANCH   6  14
ENDBRANCH   2   4
ENDBRANCH   1   2
BRANCH   1  16
ATOM     16  C   UNL     1       2.276   6.311  18.955  0.00  0.00    +0.000 C 
BRANCH  16  17
ATOM     17  C   UNL     1       2.467   7.757  18.475  0.00  0.00    +0.000 C 
ATOM     18  O   UNL     1       3.437   8.044  17.769  0.00  0.00    +0.000 OA
BRANCH  17  23
ATOM     19  N   UNL     1       0.052  10.078  20.018  0.00  0.00    +0.000 N 
ATOM     20  C   UNL     1      -0.153  10.385  18.687  0.00  0.00    +0.000 A 
ATOM     21  C   UNL     1      -1.119  11.401  18.177  0.00  0.00    +0.000 C 
ATOM     22  C   UNL     1       0.691   9.580  17.946  0.00  0.00    +0.000 A 
ATOM     23  C   UNL     1       1.435   8.749  18.830  0.00  0.00    +0.000 A 
ATOM     24  C   UNL     1       0.990   9.059  20.115  0.00  0.00    +0.000 A 
ATOM     25  C   UNL     1       1.378   8.456  21.428  0.00  0.00    +0.000 C 
BRANCH  19  26
ATOM     26  C   UNL     1      -0.668  10.667  21.143  0.00  0.00    +0.000 C 
BRANCH  26  28
ATOM     27  C   UNL     1      -0.944  12.656  22.734  0.00  0.00    +0.000 C 
ATOM     28  C   UNL     1      -0.146  12.033  21.598  0.00  0.00    +0.000 C 
ENDBRANCH  26  28
ENDBRANCH  19  26
ENDBRANCH  17  23
ENDBRANCH  16  17
ENDBRANCH   1  16
TORSDOF 8
ENDMDL
MODEL 5
REMARK VINA RESULT:      -6.8      1.738      7.052
REMARK  Name = 
REMARK  11 active torsions:
REMARK  status: ('A' for Active; 'I' for Inactive)
REMARK    1  A    between atoms: C_1  and  C_2
REMARK    2  A    between atoms: C_2  and  C_3
REMARK    3  A    between atoms: C_3  and  N_4
REMARK    4  A    between atoms: C_5  and  C_6
REMARK    5  A    between atoms: C_8  and  C_9
REMARK    6  A    between atoms: C_9  and  C_11
REMARK    7  A    between atoms: C_11  and  O_12
REMARK    8  A    between atoms: O_12  and  C_13
REMARK    9  A    between atoms: C_13  and  C_15
REMARK   10  A    between atoms: C_17  and  O_18
REMARK   11  A    between atoms: C_26  and  C_27
REMARK                            x       y       z     vdW  Elec       q    Type
REMARK                         _______ _______ _______ _____ _____    ______ ____
ROOT
ATOM      1  O   UNL     1       2.807   4.655  17.451  0.00  0.00    +0.000 OA
ENDROOT
BRANCH   1   2
ATOM      2  C   UNL     1       3.716   3.640  17.472  0.00  0.00    +0.000 C 
ATOM      3  O   UNL     1       3.443   2.470  17.665  0.00  0.00    +0.000 OA
BRANCH   2   4
ATOM      4  C   UNL     1       5.088   4.156  17.223  0.00  0.00    +0.000 A 
ATOM      5  C   UNL     1       5.902   4.446  18.323  0.00  0.00    +0.000 A 
ATOM      6  C   UNL     1       7.195   4.844  18.067  0.00  0.00    +0.000 A 
ATOM      7  N   UNL     1       7.717   4.960  16.839  0.00  0.00    +0.000 NA
ATOM      8  C   UNL     1       6.945   4.666  15.783  0.00  0.00    +0.000 A 
ATOM      9  C   UNL     1       7.513   4.754  14.517  0.00  0.00    +0.000 A 
ATOM     10  C   UNL     1       6.791   4.464  13.358  0.00  0.00    +0.000 A 
ATOM     11  C   UNL     1       5.460   4.102  13.457  0.00  0.00    +0.000 A 
ATOM     12  C   UNL     1       4.864   4.012  14.713  0.00  0.00    +0.000 A 
ATOM     13  C   UNL     1       5.597   4.271  15.902  0.00  0.00    +0.000 A 
BRANCH   6  14
ATOM     14  O   UNL     1       8.057   5.139  19.079  0.00  0.00    +0.000 OA
ATOM     15  H   UNL     1       8.963   5.010  18.762  0.00  0.00    +0.000 HD
ENDBRANCH   6  14
ENDBRANCH   2   4
ENDBRANCH   1   2
BRANCH   1  16
ATOM     16  C   UNL     1       1.983   4.694  18.623  0.00  0.00    +0.000 C 
BRANCH  16  17
ATOM     17  C   UNL     1       2.582   5.568  19.733  0.00  0.00    +0.000 C 
ATOM     18  O   UNL     1       3.567   5.171  20.361  0.00  0.00    +0.000 OA
BRANCH  17  23
ATOM     19  N   UNL     1       1.291   9.022  19.668  0.00  0.00    +0.000 N 
ATOM     20  C   UNL     1       0.874   8.645  20.930  0.00  0.00    +0.000 A 
ATOM     21  C   UNL     1       0.119   9.512  21.881  0.00  0.00    +0.000 C 
ATOM     22  C   UNL     1       1.292   7.343  21.128  0.00  0.00    +0.000 A 
ATOM     23  C   UNL     1       1.988   6.897  19.969  0.00  0.00    +0.000 A 
ATOM     24  C   UNL     1       2.001   7.979  19.088  0.00  0.00    +0.000 A 
ATOM     25  C   UNL     1       2.643   8.103  17.743  0.00  0.00    +0.000 C 
BRANCH  19  26
ATOM     26  C   UNL     1       1.096  10.340  19.071  0.00  0.00    +0.000 C 
BRANCH  26  28
ATOM     27  C   UNL     1      -0.869  11.909  18.581  0.00  0.00    +0.000 C 
ATOM     28  C   UNL     1      -0.250  10.536  18.366  0.00  0.00    +0.000 C 
ENDBRANCH  26  28
ENDBRANCH  19  26
ENDBRANCH  17  23
ENDBRANCH  16  17
ENDBRANCH   1  16
TORSDOF 8
ENDMDL
MODEL 6
REMARK VINA RESULT:      -6.8      1.723      6.873
REMARK  Name = 
REMARK  11 active torsions:
REMARK  status: ('A' for Active; 'I' for Inactive)
REMARK    1  A    between atoms: C_1  and  C_2
REMARK    2  A    between atoms: C_2  and  C_3
REMARK    3  A    between atoms: C_3  and  N_4
REMARK    4  A    between atoms: C_5  and  C_6
REMARK    5  A    between atoms: C_8  and  C_9
REMARK    6  A    between atoms: C_9  and  C_11
REMARK    7  A    between atoms: C_11  and  O_12
REMARK    8  A    between atoms: O_12  and  C_13
REMARK    9  A    between atoms: C_13  and  C_15
REMARK   10  A    between atoms: C_17  and  O_18
REMARK   11  A    between atoms: C_26  and  C_27
REMARK                            x       y       z     vdW  Elec       q    Type
REMARK                         _______ _______ _______ _____ _____    ______ ____
ROOT
ATOM      1  O   UNL     1       3.416   4.263  18.386  0.00  0.00    +0.000 OA
ENDROOT
BRANCH   1   2
ATOM      2  C   UNL     1       4.685   3.932  18.757  0.00  0.00    +0.000 C 
ATOM      3  O   UNL     1       4.966   3.068  19.567  0.00  0.00    +0.000 OA
BRANCH   2   4
ATOM      4  C   UNL     1       5.680   4.768  18.036  0.00  0.00    +0.000 A 
ATOM      5  C   UNL     1       6.498   5.624  18.780  0.00  0.00    +0.000 A 
ATOM      6  C   UNL     1       7.466   6.327  18.100  0.00  0.00    +0.000 A 
ATOM      7  N   UNL     1       7.675   6.233  16.780  0.00  0.00    +0.000 NA
ATOM      8  C   UNL     1       6.904   5.402  16.065  0.00  0.00    +0.000 A 
ATOM      9  C   UNL     1       7.158   5.287  14.704  0.00  0.00    +0.000 A 
ATOM     10  C   UNL     1       6.412   4.443  13.878  0.00  0.00    +0.000 A 
ATOM     11  C   UNL     1       5.367   3.713  14.415  0.00  0.00    +0.000 A 
ATOM     12  C   UNL     1       5.087   3.814  15.775  0.00  0.00    +0.000 A 
ATOM     13  C   UNL     1       5.861   4.642  16.633  0.00  0.00    +0.000 A 
BRANCH   6  14
ATOM     14  O   UNL     1       8.311   7.176  18.747  0.00  0.00    +0.000 OA
ATOM     15  H   UNL     1       9.180   7.134  18.322  0.00  0.00    +0.000 HD
ENDBRANCH   6  14
ENDBRANCH   2   4
ENDBRANCH   1   2
BRANCH   1  16
ATOM     16  C   UNL     1       3.133   5.660  18.538  0.00  0.00    +0.000 C 
BRANCH  16  17
ATOM     17  C   UNL     1       2.375   5.967  19.837  0.00  0.00    +0.000 C 
ATOM     18  O   UNL     1       2.284   5.102  20.712  0.00  0.00    +0.000 OA
BRANCH  17  23
ATOM     19  N   UNL     1       1.175   9.447  19.623  0.00  0.00    +0.000 N 
ATOM     20  C   UNL     1       0.817   9.162  20.926  0.00  0.00    +0.000 A 
ATOM     21  C   UNL     1       0.138  10.107  21.859  0.00  0.00    +0.000 C 
ATOM     22  C   UNL     1       1.210   7.863  21.183  0.00  0.00    +0.000 A 
ATOM     23  C   UNL     1       1.830   7.326  20.020  0.00  0.00    +0.000 A 
ATOM     24  C   UNL     1       1.823   8.350  19.073  0.00  0.00    +0.000 A 
ATOM     25  C   UNL     1       2.394   8.372  17.690  0.00  0.00    +0.000 C 
BRANCH  19  26
ATOM     26  C   UNL     1       0.982  10.731  18.954  0.00  0.00    +0.000 C 
BRANCH  26  28
ATOM     27  C   UNL     1      -1.163  10.086  17.710  0.00  0.00    +0.000 C 
ATOM     28  C   UNL     1      -0.475  11.080  18.634  0.00  0.00    +0.000 C 
ENDBRANCH  26  28
ENDBRANCH  19  26
ENDBRANCH  17  23
ENDBRANCH  16  17
ENDBRANCH   1  16
TORSDOF 8
ENDMDL
MODEL 7
REMARK VINA RESULT:      -6.8      2.737      4.408
REMARK  Name = 
REMARK  11 active torsions:
REMARK  status: ('A' for Active; 'I' for Inactive)
REMARK    1  A    between atoms: C_1  and  C_2
REMARK    2  A    between atoms: C_2  and  C_3
REMARK    3  A    between atoms: C_3  and  N_4
REMARK    4  A    between atoms: C_5  and  C_6
REMARK    5  A    between atoms: C_8  and  C_9
REMARK    6  A    between atoms: C_9  and  C_11
REMARK    7  A    between atoms: C_11  and  O_12
REMARK    8  A    between atoms: O_12  and  C_13
REMARK    9  A    between atoms: C_13  and  C_15
REMARK   10  A    between atoms: C_17  and  O_18
REMARK   11  A    between atoms: C_26  and  C_27
REMARK                            x       y       z     vdW  Elec       q    Type
REMARK                         _______ _______ _______ _____ _____    ______ ____
ROOT
ATOM      1  O   UNL     1       1.441   9.137  20.357  0.00  0.00    +0.000 OA
ENDROOT
BRANCH   1   2
ATOM      2  C   UNL     1       0.132   9.210  20.731  0.00  0.00    +0.000 C 
ATOM      3  O   UNL     1      -0.429   8.401  21.447  0.00  0.00    +0.000 OA
BRANCH   2   4
ATOM      4  C   UNL     1      -0.517  10.413  20.148  0.00  0.00    +0.000 A 
ATOM      5  C   UNL     1      -0.725  10.457  18.765  0.00  0.00    +0.000 A 
ATOM      6  C   UNL     1      -1.401  11.543  18.259  0.00  0.00    +0.000 A 
ATOM      7  N   UNL     1      -1.875  12.549  19.007  0.00  0.00    +0.000 NA
ATOM      8  C   UNL     1      -1.692  12.503  20.334  0.00  0.00    +0.000 A 
ATOM      9  C   UNL     1      -2.224  13.534  21.101  0.00  0.00    +0.000 A 
ATOM     10  C   UNL     1      -2.090  13.572  22.490  0.00  0.00    +0.000 A 
ATOM     11  C   UNL     1      -1.386  12.570  23.134  0.00  0.00    +0.000 A 
ATOM     12  C   UNL     1      -0.838  11.528  22.390  0.00  0.00    +0.000 A 
ATOM     13  C   UNL     1      -0.997  11.460  20.980  0.00  0.00    +0.000 A 
BRANCH   6  14
ATOM     14  O   UNL     1      -1.653  11.662  16.927  0.00  0.00    +0.000 OA
ATOM     15  H   UNL     1      -1.172  12.430  16.587  0.00  0.00    +0.000 HD
ENDBRANCH   6  14
ENDBRANCH   2   4
ENDBRANCH   1   2
BRANCH   1  16
ATOM     16  C   UNL     1       1.857   7.805  20.029  0.00  0.00    +0.000 C 
BRANCH  16  17
ATOM     17  C   UNL     1       2.289   7.671  18.562  0.00  0.00    +0.000 C 
ATOM     18  O   UNL     1       2.257   8.657  17.821  0.00  0.00    +0.000 OA
BRANCH  17  23
ATOM     19  N   UNL     1       4.148   4.739  17.318  0.00  0.00    +0.000 N 
ATOM     20  C   UNL     1       2.940   4.137  17.610  0.00  0.00    +0.000 A 
ATOM     21  C   UNL     1       2.631   2.690  17.420  0.00  0.00    +0.000 C 
ATOM     22  C   UNL     1       2.099   5.120  18.095  0.00  0.00    +0.000 A 
ATOM     23  C   UNL     1       2.793   6.362  18.102  0.00  0.00    +0.000 A 
ATOM     24  C   UNL     1       4.059   6.099  17.580  0.00  0.00    +0.000 A 
ATOM     25  C   UNL     1       5.187   7.040  17.299  0.00  0.00    +0.000 C 
BRANCH  19  26
ATOM     26  C   UNL     1       5.309   4.069  16.740  0.00  0.00    +0.000 C 
BRANCH  26  28
ATOM     27  C   UNL     1       6.555   4.853  14.644  0.00  0.00    +0.000 C 
ATOM     28  C   UNL     1       5.369   4.087  15.209  0.00  0.00    +0.000 C 
ENDBRANCH  26  28
ENDBRANCH  19  26
ENDBRANCH  17  23
ENDBRANCH  16  17
ENDBRANCH   1  16
TORSDOF 8
ENDMDL
MODEL 8
REMARK VINA RESULT:      -6.7      1.892      7.425
REMARK  Name = 
REMARK  11 active torsions:
REMARK  status: ('A' for Active; 'I' for Inactive)
REMARK    1  A    between atoms: C_1  and  C_2
REMARK    2  A    between atoms: C_2  and  C_3
REMARK    3  A    between atoms: C_3  and  N_4
REMARK    4  A    between atoms: C_5  and  C_6
REMARK    5  A    between atoms: C_8  and  C_9
REMARK    6  A    between atoms: C_9  and  C_11
REMARK    7  A    between atoms: C_11  and  O_12
REMARK    8  A    between atoms: O_12  and  C_13
REMARK    9  A    between atoms: C_13  and  C_15
REMARK   10  A    between atoms: C_17  and  O_18
REMARK   11  A    between atoms: C_26  and  C_27
REMARK                            x       y       z     vdW  Elec       q    Type
REMARK                         _______ _______ _______ _____ _____    ______ ____
ROOT
ATOM      1  O   UNL     1       2.737   5.945  18.217  0.00  0.00    +0.000 OA
ENDROOT
BRANCH   1   2
ATOM      2  C   UNL     1       3.420   4.800  18.505  0.00  0.00    +0.000 C 
ATOM      3  O   UNL     1       2.904   3.762  18.874  0.00  0.00    +0.000 OA
BRANCH   2   4
ATOM      4  C   UNL     1       4.880   4.992  18.303  0.00  0.00    +0.000 A 
ATOM      5  C   UNL     1       5.683   5.229  19.423  0.00  0.00    +0.000 A 
ATOM      6  C   UNL     1       7.041   5.322  19.221  0.00  0.00    +0.000 A 
ATOM      7  N   UNL     1       7.634   5.190  18.027  0.00  0.00    +0.000 NA
ATOM      8  C   UNL     1       6.869   4.946  16.953  0.00  0.00    +0.000 A 
ATOM      9  C   UNL     1       7.503   4.774  15.728  0.00  0.00    +0.000 A 
ATOM     10  C   UNL     1       6.792   4.511  14.555  0.00  0.00    +0.000 A 
ATOM     11  C   UNL     1       5.411   4.444  14.596  0.00  0.00    +0.000 A 
ATOM     12  C   UNL     1       4.750   4.619  15.810  0.00  0.00    +0.000 A 
ATOM     13  C   UNL     1       5.464   4.852  17.016  0.00  0.00    +0.000 A 
BRANCH   6  14
ATOM     14  O   UNL     1       7.897   5.543  20.256  0.00  0.00    +0.000 OA
ATOM     15  H   UNL     1       7.424   6.018  20.955  0.00  0.00    +0.000 HD
ENDBRANCH   6  14
ENDBRANCH   2   4
ENDBRANCH   1   2
BRANCH   1  16
ATOM     16  C   UNL     1       2.976   6.993  19.165  0.00  0.00    +0.000 C 
BRANCH  16  17
ATOM     17  C   UNL     1       1.850   7.114  20.202  0.00  0.00    +0.000 C 
ATOM     18  O   UNL     1       1.531   6.131  20.875  0.00  0.00    +0.000 OA
BRANCH  17  23
ATOM     19  N   UNL     1       0.371  10.486  20.010  0.00  0.00    +0.000 N 
ATOM     20  C   UNL     1       0.184  10.230  21.354  0.00  0.00    +0.000 A 
ATOM     21  C   UNL     1      -0.458  11.162  22.327  0.00  0.00    +0.000 C 
ATOM     22  C   UNL     1       0.701   8.974  21.609  0.00  0.00    +0.000 A 
ATOM     23  C   UNL     1       1.226   8.436  20.400  0.00  0.00    +0.000 A 
ATOM     24  C   UNL     1       1.036   9.417  19.427  0.00  0.00    +0.000 A 
ATOM     25  C   UNL     1       1.446   9.422  17.988  0.00  0.00    +0.000 C 
BRANCH  19  26
ATOM     26  C   UNL     1       0.008  11.724  19.326  0.00  0.00    +0.000 C 
BRANCH  26  28
ATOM     27  C   UNL     1      -2.520  12.128  19.431  0.00  0.00    +0.000 C 
ATOM     28  C   UNL     1      -1.334  11.683  18.588  0.00  0.00    +0.000 C 
ENDBRANCH  26  28
ENDBRANCH  19  26
ENDBRANCH  17  23
ENDBRANCH  16  17
ENDBRANCH   1  16
TORSDOF 8
ENDMDL
MODEL 9
REMARK VINA RESULT:      -6.7      2.656      8.332
REMARK  Name = 
REMARK  11 active torsions:
REMARK  status: ('A' for Active; 'I' for Inactive)
REMARK    1  A    between atoms: C_1  and  C_2
REMARK    2  A    between atoms: C_2  and  C_3
REMARK    3  A    between atoms: C_3  and  N_4
REMARK    4  A    between atoms: C_5  and  C_6
REMARK    5  A    between atoms: C_8  and  C_9
REMARK    6  A    between atoms: C_9  and  C_11
REMARK    7  A    between atoms: C_11  and  O_12
REMARK    8  A    between atoms: O_12  and  C_13
REMARK    9  A    between atoms: C_13  and  C_15
REMARK   10  A    between atoms: C_17  and  O_18
REMARK   11  A    between atoms: C_26  and  C_27
REMARK                            x       y       z     vdW  Elec       q    Type
REMARK                         _______ _______ _______ _____ _____    ______ ____
ROOT
ATOM      1  O   UNL     1       2.066   8.620  17.577  0.00  0.00    +0.000 OA
ENDROOT
BRANCH   1   2
ATOM      2  C   UNL     1       2.487   7.691  18.481  0.00  0.00    +0.000 C 
ATOM      3  O   UNL     1       2.220   7.711  19.669  0.00  0.00    +0.000 OA
BRANCH   2   4
ATOM      4  C   UNL     1       3.316   6.650  17.820  0.00  0.00    +0.000 A 
ATOM      5  C   UNL     1       4.542   7.025  17.261  0.00  0.00    +0.000 A 
ATOM      6  C   UNL     1       5.328   6.029  16.728  0.00  0.00    +0.000 A 
ATOM      7  N   UNL     1       4.995   4.732  16.720  0.00  0.00    +0.000 NA
ATOM      8  C   UNL     1       3.828   4.365  17.270  0.00  0.00    +0.000 A 
ATOM      9  C   UNL     1       3.515   3.011  17.289  0.00  0.00    +0.000 A 
ATOM     10  C   UNL     1       2.327   2.532  17.843  0.00  0.00    +0.000 A 
ATOM     11  C   UNL     1       1.411   3.425  18.370  0.00  0.00    +0.000 A 
ATOM     12  C   UNL     1       1.697   4.788  18.358  0.00  0.00    +0.000 A 
ATOM     13  C   UNL     1       2.919   5.285  17.829  0.00  0.00    +0.000 A 
BRANCH   6  14
ATOM     14  O   UNL     1       6.539   6.306  16.171  0.00  0.00    +0.000 OA
ATOM     15  H   UNL     1       6.635   5.783  15.361  0.00  0.00    +0.000 HD
ENDBRANCH   6  14
ENDBRANCH   2   4
ENDBRANCH   1   2
BRANCH   1  16
ATOM     16  C   UNL     1       1.785   9.894  18.171  0.00  0.00    +0.000 C 
BRANCH  16  17
ATOM     17  C   UNL     1       0.279  10.172  18.277  0.00  0.00    +0.000 C 
ATOM     18  O   UNL     1      -0.511   9.548  17.564  0.00  0.00    +0.000 OA
BRANCH  17  23
ATOM     19  N   UNL     1      -0.700  12.111  21.257  0.00  0.00    +0.000 N 
ATOM     20  C   UNL     1      -0.928  13.061  20.281  0.00  0.00    +0.000 A 
ATOM     21  C   UNL     1      -1.431  14.444  20.527  0.00  0.00    +0.000 C 
ATOM     22  C   UNL     1      -0.610  12.485  19.066  0.00  0.00    +0.000 A 
ATOM     23  C   UNL     1      -0.179  11.146  19.286  0.00  0.00    +0.000 A 
ATOM     24  C   UNL     1      -0.279  10.931  20.660  0.00  0.00    +0.000 A 
ATOM     25  C   UNL     1      -0.015   9.688  21.450  0.00  0.00    +0.000 C 
BRANCH  19  26
ATOM     26  C   UNL     1      -0.949  12.288  22.685  0.00  0.00    +0.000 C 
BRANCH  26  28
ATOM     27  C   UNL     1      -3.397  12.803  23.240  0.00  0.00    +0.000 C 
ATOM     28  C   UNL     1      -2.298  11.753  23.176  0.00  0.00    +0.000 C 
ENDBRANCH  26  28
ENDBRANCH  19  26
ENDBRANCH  17  23
ENDBRANCH  16  17
ENDBRANCH   1  16
TORSDOF 8
ENDMDL
