MODEL 1
REMARK VINA RESULT:      -8.4      0.000      0.000
REMARK  Name = 
REMARK  8 active torsions:
REMARK  status: ('A' for Active; 'I' for Inactive)
REMARK    1  A    between atoms: C_8  and  O_9
REMARK    2  A    between atoms: O_9  and  C_10
REMARK    3  A    between atoms: C_10  and  C_11
REMARK    4  A    between atoms: C_11  and  C_12
REMARK    5  A    between atoms: C_12  and  C_13
REMARK    6  A    between atoms: C_13  and  C_14
REMARK    7  A    between atoms: C_14  and  C_15
REMARK    8  A    between atoms: C_15  and  N_16
REMARK                            x       y       z     vdW  Elec       q    Type
REMARK                         _______ _______ _______ _____ _____    ______ ____
ROOT
ATOM      1  C   UNL     1       7.201   7.286  17.793  0.00  0.00    +0.000 C 
ENDROOT
BRANCH   1   2
ATOM      2  C   UNL     1       7.181   5.944  18.529  0.00  0.00    +0.000 C 
BRANCH   2   3
ATOM      3  C   UNL     1       7.262   4.756  17.576  0.00  0.00    +0.000 C 
BRANCH   3   4
ATOM      4  O   UNL     1       6.018   4.614  16.890  0.00  0.00    +0.000 OA
BRANCH   4  12
ATOM      5  O   UNL     1       1.997   2.005  22.176  0.00  0.00    +0.000 OA
ATOM      6  C   UNL     1       2.104   2.764  21.212  0.00  0.00    +0.000 C 
ATOM      7  C   UNL     1       0.923   3.498  20.624  0.00  0.00    +0.000 C 
ATOM      8  C   UNL     1       1.320   4.853  20.061  0.00  0.00    +0.000 C 
ATOM      9  C   UNL     1       2.530   4.733  19.180  0.00  0.00    +0.000 A 
ATOM     10  C   UNL     1       2.755   5.626  18.125  0.00  0.00    +0.000 A 
ATOM     11  C   UNL     1       3.933   5.541  17.381  0.00  0.00    +0.000 A 
ATOM     12  C   UNL     1       4.903   4.584  17.687  0.00  0.00    +0.000 A 
ATOM     13  C   UNL     1       4.684   3.700  18.751  0.00  0.00    +0.000 A 
ATOM     14  C   UNL     1       3.502   3.777  19.482  0.00  0.00    +0.000 A 
ATOM     15  N   UNL     1       3.292   2.887  20.544  0.00  0.00    +0.000 N 
ATOM     16  H   UNL     1       4.042   2.289  20.859  0.00  0.00    +0.000 HD
ENDBRANCH   4  12
ENDBRANCH   3   4
ENDBRANCH   2   3
ENDBRANCH   1   2
BRANCH   1  17
ATOM     17  C   UNL     1       8.499   8.066  18.010  0.00  0.00    +0.000 C 
BRANCH  17  18
ATOM     18  C   UNL     1       8.244   9.576  18.101  0.00  0.00    +0.000 C 
BRANCH  18  19
ATOM     19  C   UNL     1       9.181  10.278  19.100  0.00  0.00    +0.000 C 
BRANCH  19  20
ATOM     20  N   UNL     1       9.243  11.726  18.921  0.00  0.00    +0.000 NA
ATOM     21  C   UNL     1       9.511  12.535  20.125  0.00  0.00    +0.000 C 
ATOM     22  C   UNL     1      10.904  13.205  20.346  0.00  0.00    +0.000 C 
ATOM     23  N   UNL     1      11.637  13.512  19.104  0.00  0.00    +0.000 N 
ATOM     24  C   UNL     1      11.479  14.789  18.548  0.00  0.00    +0.000 A 
ATOM     25  C   UNL     1      11.617  15.940  19.325  0.00  0.00    +0.000 A 
ATOM     26  C   UNL     1      11.424  17.200  18.754  0.00  0.00    +0.000 A 
ATOM     27  C   UNL     1      11.119  17.297  17.406  0.00  0.00    +0.000 A 
ATOM     28  C   UNL     1      11.056  16.126  16.683  0.00  0.00    +0.000 A 
ATOM     29  N   UNL     1      11.242  14.902  17.221  0.00  0.00    +0.000 NA
ATOM     30  C   UNL     1      11.542  12.414  18.125  0.00  0.00    +0.000 C 
ATOM     31  C   UNL     1      10.068  12.133  17.772  0.00  0.00    +0.000 C 
ENDBRANCH  19  20
ENDBRANCH  18  19
ENDBRANCH  17  18
ENDBRANCH   1  17
TORSDOF 8
ENDMDL
MODEL 2
REMARK VINA RESULT:      -8.0      3.532      4.326
REMARK  Name = 
REMARK  8 active torsions:
REMARK  status: ('A' for Active; 'I' for Inactive)
REMARK    1  A    between atoms: C_8  and  O_9
REMARK    2  A    between atoms: O_9  and  C_10
REMARK    3  A    between atoms: C_10  and  C_11
REMARK    4  A    between atoms: C_11  and  C_12
REMARK    5  A    between atoms: C_12  and  C_13
REMARK    6  A    between atoms: C_13  and  C_14
REMARK    7  A    between atoms: C_14  and  C_15
REMARK    8  A    between atoms: C_15  and  N_16
REMARK                            x       y       z     vdW  Elec       q    Type
REMARK                         _______ _______ _______ _____ _____    ______ ____
ROOT
ATOM      1  C   UNL     1       8.917   9.945  18.854  0.00  0.00    +0.000 C 
ENDROOT
BRANCH   1   2
ATOM      2  C   UNL     1       8.141   9.128  17.818  0.00  0.00    +0.000 C 
BRANCH   2   3
ATOM      3  C   UNL     1       8.104   7.642  18.158  0.00  0.00    +0.000 C 
BRANCH   3   4
ATOM      4  O   UNL     1       7.622   6.911  17.032  0.00  0.00    +0.000 OA
BRANCH   4  12
ATOM      5  O   UNL     1       3.576   1.201  18.428  0.00  0.00    +0.000 OA
ATOM      6  C   UNL     1       3.648   2.374  18.061  0.00  0.00    +0.000 C 
ATOM      7  C   UNL     1       2.470   3.116  17.477  0.00  0.00    +0.000 C 
ATOM      8  C   UNL     1       2.503   4.596  17.821  0.00  0.00    +0.000 C 
ATOM      9  C   UNL     1       3.857   5.180  17.539  0.00  0.00    +0.000 A 
ATOM     10  C   UNL     1       4.013   6.532  17.210  0.00  0.00    +0.000 A 
ATOM     11  C   UNL     1       5.292   7.064  17.041  0.00  0.00    +0.000 A 
ATOM     12  C   UNL     1       6.426   6.265  17.214  0.00  0.00    +0.000 A 
ATOM     13  C   UNL     1       6.269   4.917  17.557  0.00  0.00    +0.000 A 
ATOM     14  C   UNL     1       4.992   4.386  17.710  0.00  0.00    +0.000 A 
ATOM     15  N   UNL     1       4.847   3.034  18.053  0.00  0.00    +0.000 N 
ATOM     16  H   UNL     1       5.655   2.489  18.316  0.00  0.00    +0.000 HD
ENDBRANCH   4  12
ENDBRANCH   3   4
ENDBRANCH   2   3
ENDBRANCH   1   2
BRANCH   1  17
ATOM     17  C   UNL     1       9.919  10.914  18.222  0.00  0.00    +0.000 C 
BRANCH  17  18
ATOM     18  C   UNL     1      10.475  11.906  19.250  0.00  0.00    +0.000 C 
BRANCH  18  19
ATOM     19  C   UNL     1      10.013  13.351  18.992  0.00  0.00    +0.000 C 
BRANCH  19  20
ATOM     20  N   UNL     1       8.587  13.558  19.232  0.00  0.00    +0.000 NA
ATOM     21  C   UNL     1       8.220  14.382  20.399  0.00  0.00    +0.000 C 
ATOM     22  C   UNL     1       7.688  15.838  20.216  0.00  0.00    +0.000 C 
ATOM     23  N   UNL     1       7.008  16.082  18.931  0.00  0.00    +0.000 N 
ATOM     24  C   UNL     1       5.616  15.920  18.884  0.00  0.00    +0.000 A 
ATOM     25  C   UNL     1       4.785  16.514  19.834  0.00  0.00    +0.000 A 
ATOM     26  C   UNL     1       3.404  16.311  19.784  0.00  0.00    +0.000 A 
ATOM     27  C   UNL     1       2.866  15.535  18.770  0.00  0.00    +0.000 A 
ATOM     28  C   UNL     1       3.736  15.027  17.829  0.00  0.00    +0.000 A 
ATOM     29  N   UNL     1       5.072  15.216  17.865  0.00  0.00    +0.000 NA
ATOM     30  C   UNL     1       7.724  15.458  17.804  0.00  0.00    +0.000 C 
ATOM     31  C   UNL     1       7.844  13.936  18.019  0.00  0.00    +0.000 C 
ENDBRANCH  19  20
ENDBRANCH  18  19
ENDBRANCH  17  18
ENDBRANCH   1  17
TORSDOF 8
ENDMDL
MODEL 3
REMARK VINA RESULT:      -8.0      3.845     10.557
REMARK  Name = 
REMARK  8 active torsions:
REMARK  status: ('A' for Active; 'I' for Inactive)
REMARK    1  A    between atoms: C_8  and  O_9
REMARK    2  A    between atoms: O_9  and  C_10
REMARK    3  A    between atoms: C_10  and  C_11
REMARK    4  A    between atoms: C_11  and  C_12
REMARK    5  A    between atoms: C_12  and  C_13
REMARK    6  A    between atoms: C_13  and  C_14
REMARK    7  A    between atoms: C_14  and  C_15
REMARK    8  A    between atoms: C_15  and  N_16
REMARK                            x       y       z     vdW  Elec       q    Type
REMARK                         _______ _______ _______ _____ _____    ______ ____
ROOT
ATOM      1  C   UNL     1      10.010  10.908  18.054  0.00  0.00    +0.000 C 
ENDROOT
BRANCH   1   2
ATOM      2  C   UNL     1       9.611  12.381  18.177  0.00  0.00    +0.000 C 
BRANCH   2   3
ATOM      3  C   UNL     1      10.606  13.186  19.005  0.00  0.00    +0.000 C 
BRANCH   3   4
ATOM      4  O   UNL     1      10.808  12.541  20.262  0.00  0.00    +0.000 OA
BRANCH   4  12
ATOM      5  O   UNL     1       5.417  11.163  24.730  0.00  0.00    +0.000 OA
ATOM      6  C   UNL     1       6.178  11.988  24.223  0.00  0.00    +0.000 C 
ATOM      7  C   UNL     1       5.993  13.476  24.395  0.00  0.00    +0.000 C 
ATOM      8  C   UNL     1       7.321  14.215  24.411  0.00  0.00    +0.000 C 
ATOM      9  C   UNL     1       8.186  13.786  23.262  0.00  0.00    +0.000 A 
ATOM     10  C   UNL     1       9.138  14.648  22.704  0.00  0.00    +0.000 A 
ATOM     11  C   UNL     1       9.987  14.190  21.696  0.00  0.00    +0.000 A 
ATOM     12  C   UNL     1       9.911  12.869  21.246  0.00  0.00    +0.000 A 
ATOM     13  C   UNL     1       8.969  12.003  21.813  0.00  0.00    +0.000 A 
ATOM     14  C   UNL     1       8.113  12.468  22.808  0.00  0.00    +0.000 A 
ATOM     15  N   UNL     1       7.173  11.593  23.369  0.00  0.00    +0.000 N 
ATOM     16  H   UNL     1       7.205  10.607  23.151  0.00  0.00    +0.000 HD
ENDBRANCH   4  12
ENDBRANCH   3   4
ENDBRANCH   2   3
ENDBRANCH   1   2
BRANCH   1  17
ATOM     17  C   UNL     1       9.057   9.968  18.796  0.00  0.00    +0.000 C 
BRANCH  17  18
ATOM     18  C   UNL     1       7.996   9.381  17.857  0.00  0.00    +0.000 C 
BRANCH  18  19
ATOM     19  C   UNL     1       8.118   7.855  17.702  0.00  0.00    +0.000 C 
BRANCH  19  20
ATOM     20  N   UNL     1       6.894   7.135  18.044  0.00  0.00    +0.000 NA
ATOM     21  C   UNL     1       5.849   7.067  17.004  0.00  0.00    +0.000 C 
ATOM     22  C   UNL     1       5.581   5.741  16.225  0.00  0.00    +0.000 C 
ATOM     23  N   UNL     1       5.926   4.516  16.968  0.00  0.00    +0.000 N 
ATOM     24  C   UNL     1       4.915   3.895  17.715  0.00  0.00    +0.000 A 
ATOM     25  C   UNL     1       3.666   3.621  17.157  0.00  0.00    +0.000 A 
ATOM     26  C   UNL     1       2.665   3.030  17.931  0.00  0.00    +0.000 A 
ATOM     27  C   UNL     1       2.932   2.697  19.249  0.00  0.00    +0.000 A 
ATOM     28  C   UNL     1       4.204   2.940  19.722  0.00  0.00    +0.000 A 
ATOM     29  N   UNL     1       5.180   3.509  18.984  0.00  0.00    +0.000 NA
ATOM     30  C   UNL     1       7.206   4.652  17.686  0.00  0.00    +0.000 C 
ATOM     31  C   UNL     1       7.145   5.831  18.677  0.00  0.00    +0.000 C 
ENDBRANCH  19  20
ENDBRANCH  18  19
ENDBRANCH  17  18
ENDBRANCH   1  17
TORSDOF 8
ENDMDL
MODEL 4
REMARK VINA RESULT:      -8.0      6.123      9.424
REMARK  Name = 
REMARK  8 active torsions:
REMARK  status: ('A' for Active; 'I' for Inactive)
REMARK    1  A    between atoms: C_8  and  O_9
REMARK    2  A    between atoms: O_9  and  C_10
REMARK    3  A    between atoms: C_10  and  C_11
REMARK    4  A    between atoms: C_11  and  C_12
REMARK    5  A    between atoms: C_12  and  C_13
REMARK    6  A    between atoms: C_13  and  C_14
REMARK    7  A    between atoms: C_14  and  C_15
REMARK    8  A    between atoms: C_15  and  N_16
REMARK                            x       y       z     vdW  Elec       q    Type
REMARK                         _______ _______ _______ _____ _____    ______ ____
ROOT
ATOM      1  C   UNL     1       1.409   3.931  20.680  0.00  0.00    +0.000 C 
ENDROOT
BRANCH   1   2
ATOM      2  C   UNL     1       1.205   3.867  19.164  0.00  0.00    +0.000 C 
BRANCH   2   3
ATOM      3  C   UNL     1       1.601   2.515  18.581  0.00  0.00    +0.000 C 
BRANCH   3   4
ATOM      4  O   UNL     1       2.954   2.227  18.930  0.00  0.00    +0.000 OA
BRANCH   4  12
ATOM      5  O   UNL     1       8.445   6.778  19.175  0.00  0.00    +0.000 OA
ATOM      6  C   UNL     1       7.567   6.224  18.512  0.00  0.00    +0.000 C 
ATOM      7  C   UNL     1       7.243   6.630  17.095  0.00  0.00    +0.000 C 
ATOM      8  C   UNL     1       6.783   5.448  16.257  0.00  0.00    +0.000 C 
ATOM      9  C   UNL     1       5.727   4.660  16.977  0.00  0.00    +0.000 A 
ATOM     10  C   UNL     1       4.758   3.932  16.277  0.00  0.00    +0.000 A 
ATOM     11  C   UNL     1       3.845   3.139  16.974  0.00  0.00    +0.000 A 
ATOM     12  C   UNL     1       3.898   3.048  18.367  0.00  0.00    +0.000 A 
ATOM     13  C   UNL     1       4.876   3.766  19.066  0.00  0.00    +0.000 A 
ATOM     14  C   UNL     1       5.775   4.567  18.369  0.00  0.00    +0.000 A 
ATOM     15  N   UNL     1       6.751   5.282  19.078  0.00  0.00    +0.000 N 
ATOM     16  H   UNL     1       6.884   5.114  20.065  0.00  0.00    +0.000 HD
ENDBRANCH   4  12
ENDBRANCH   3   4
ENDBRANCH   2   3
ENDBRANCH   1   2
BRANCH   1  17
ATOM     17  C   UNL     1       1.864   5.310  21.163  0.00  0.00    +0.000 C 
BRANCH  17  18
ATOM     18  C   UNL     1       1.593   6.396  20.115  0.00  0.00    +0.000 C 
BRANCH  18  19
ATOM     19  C   UNL     1       1.724   7.819  20.686  0.00  0.00    +0.000 C 
BRANCH  19  20
ATOM     20  N   UNL     1       0.449   8.524  20.789  0.00  0.00    +0.000 NA
ATOM     21  C   UNL     1      -0.177   8.575  22.124  0.00  0.00    +0.000 C 
ATOM     22  C   UNL     1      -0.177   9.894  22.959  0.00  0.00    +0.000 C 
ATOM     23  N   UNL     1      -0.119  11.127  22.153  0.00  0.00    +0.000 N 
ATOM     24  C   UNL     1      -1.331  11.738  21.802  0.00  0.00    +0.000 A 
ATOM     25  C   UNL     1      -2.316  11.994  22.756  0.00  0.00    +0.000 A 
ATOM     26  C   UNL     1      -3.528  12.575  22.376  0.00  0.00    +0.000 A 
ATOM     27  C   UNL     1      -3.732  12.918  21.049  0.00  0.00    +0.000 A 
ATOM     28  C   UNL     1      -2.696  12.693  20.168  0.00  0.00    +0.000 A 
ATOM     29  N   UNL     1      -1.520  12.133  20.522  0.00  0.00    +0.000 NA
ATOM     30  C   UNL     1       0.840  11.010  21.039  0.00  0.00    +0.000 C 
ATOM     31  C   UNL     1       0.455   9.835  20.119  0.00  0.00    +0.000 C 
ENDBRANCH  19  20
ENDBRANCH  18  19
ENDBRANCH  17  18
ENDBRANCH   1  17
TORSDOF 8
ENDMDL
MODEL 5
REMARK VINA RESULT:      -8.0      6.212      8.525
REMARK  Name = 
REMARK  8 active torsions:
REMARK  status: ('A' for Active; 'I' for Inactive)
REMARK    1  A    between atoms: C_8  and  O_9
REMARK    2  A    between atoms: O_9  and  C_10
REMARK    3  A    between atoms: C_10  and  C_11
REMARK    4  A    between atoms: C_11  and  C_12
REMARK    5  A    between atoms: C_12  and  C_13
REMARK    6  A    between atoms: C_13  and  C_14
REMARK    7  A    between atoms: C_14  and  C_15
REMARK    8  A    between atoms: C_15  and  N_16
REMARK                            x       y       z     vdW  Elec       q    Type
REMARK                         _______ _______ _______ _____ _____    ______ ____
ROOT
ATOM      1  C   UNL     1       1.001   4.373  20.374  0.00  0.00    +0.000 C 
ENDROOT
BRANCH   1   2
ATOM      2  C   UNL     1       1.385   2.975  20.865  0.00  0.00    +0.000 C 
BRANCH   2   3
ATOM      3  C   UNL     1       2.856   2.877  21.252  0.00  0.00    +0.000 C 
BRANCH   3   4
ATOM      4  O   UNL     1       3.572   2.193  20.223  0.00  0.00    +0.000 OA
BRANCH   4  12
ATOM      5  O   UNL     1       7.172   7.576  17.226  0.00  0.00    +0.000 OA
ATOM      6  C   UNL     1       6.329   6.685  17.116  0.00  0.00    +0.000 C 
ATOM      7  C   UNL     1       5.430   6.562  15.910  0.00  0.00    +0.000 C 
ATOM      8  C   UNL     1       5.087   5.114  15.602  0.00  0.00    +0.000 C 
ATOM      9  C   UNL     1       4.633   4.396  16.840  0.00  0.00    +0.000 A 
ATOM     10  C   UNL     1       3.748   3.313  16.772  0.00  0.00    +0.000 A 
ATOM     11  C   UNL     1       3.415   2.612  17.932  0.00  0.00    +0.000 A 
ATOM     12  C   UNL     1       3.970   2.968  19.164  0.00  0.00    +0.000 A 
ATOM     13  C   UNL     1       4.865   4.042  19.230  0.00  0.00    +0.000 A 
ATOM     14  C   UNL     1       5.184   4.748  18.074  0.00  0.00    +0.000 A 
ATOM     15  N   UNL     1       6.081   5.823  18.151  0.00  0.00    +0.000 N 
ATOM     16  H   UNL     1       6.591   5.997  19.005  0.00  0.00    +0.000 HD
ENDBRANCH   4  12
ENDBRANCH   3   4
ENDBRANCH   2   3
ENDBRANCH   1   2
BRANCH   1  17
ATOM     17  C   UNL     1       1.920   5.470  20.920  0.00  0.00    +0.000 C 
BRANCH  17  18
ATOM     18  C   UNL     1       1.656   6.819  20.241  0.00  0.00    +0.000 C 
BRANCH  18  19
ATOM     19  C   UNL     1       1.169   7.896  21.227  0.00  0.00    +0.000 C 
BRANCH  19  20
ATOM     20  N   UNL     1       1.335   9.259  20.728  0.00  0.00    +0.000 NA
ATOM     21  C   UNL     1       0.949   9.505  19.325  0.00  0.00    +0.000 C 
ATOM     22  C   UNL     1      -0.359  10.283  18.979  0.00  0.00    +0.000 C 
ATOM     23  N   UNL     1      -0.794  11.238  20.015  0.00  0.00    +0.000 N 
ATOM     24  C   UNL     1      -0.365  12.568  19.902  0.00  0.00    +0.000 A 
ATOM     25  C   UNL     1      -0.497  13.272  18.704  0.00  0.00    +0.000 A 
ATOM     26  C   UNL     1      -0.033  14.586  18.608  0.00  0.00    +0.000 A 
ATOM     27  C   UNL     1       0.535  15.191  19.718  0.00  0.00    +0.000 A 
ATOM     28  C   UNL     1       0.580  14.461  20.886  0.00  0.00    +0.000 A 
ATOM     29  N   UNL     1       0.135  13.191  20.994  0.00  0.00    +0.000 NA
ATOM     30  C   UNL     1      -0.658  10.676  21.371  0.00  0.00    +0.000 C 
ATOM     31  C   UNL     1       0.806  10.281  21.646  0.00  0.00    +0.000 C 
ENDBRANCH  19  20
ENDBRANCH  18  19
ENDBRANCH  17  18
ENDBRANCH   1  17
TORSDOF 8
ENDMDL
MODEL 6
REMARK VINA RESULT:      -7.9      7.491     10.478
REMARK  Name = 
REMARK  8 active torsions:
REMARK  status: ('A' for Active; 'I' for Inactive)
REMARK    1  A    between atoms: C_8  and  O_9
REMARK    2  A    between atoms: O_9  and  C_10
REMARK    3  A    between atoms: C_10  and  C_11
REMARK    4  A    between atoms: C_11  and  C_12
REMARK    5  A    between atoms: C_12  and  C_13
REMARK    6  A    between atoms: C_13  and  C_14
REMARK    7  A    between atoms: C_14  and  C_15
REMARK    8  A    between atoms: C_15  and  N_16
REMARK                            x       y       z     vdW  Elec       q    Type
REMARK                         _______ _______ _______ _____ _____    ______ ____
ROOT
ATOM      1  C   UNL     1       2.198   4.882  21.100  0.00  0.00    +0.000 C 
ENDROOT
BRANCH   1   2
ATOM      2  C   UNL     1       1.231   6.012  20.737  0.00  0.00    +0.000 C 
BRANCH   2   3
ATOM      3  C   UNL     1       1.783   7.387  21.094  0.00  0.00    +0.000 C 
BRANCH   3   4
ATOM      4  O   UNL     1       1.186   8.371  20.250  0.00  0.00    +0.000 OA
BRANCH   4  12
ATOM      5  O   UNL     1      -2.127  14.679  20.653  0.00  0.00    +0.000 OA
ATOM      6  C   UNL     1      -1.712  13.670  21.226  0.00  0.00    +0.000 C 
ATOM      7  C   UNL     1      -1.678  13.547  22.730  0.00  0.00    +0.000 C 
ATOM      8  C   UNL     1      -1.902  12.115  23.187  0.00  0.00    +0.000 C 
ATOM      9  C   UNL     1      -1.022  11.166  22.427  0.00  0.00    +0.000 A 
ATOM     10  C   UNL     1      -0.594   9.958  22.990  0.00  0.00    +0.000 A 
ATOM     11  C   UNL     1       0.150   9.058  22.226  0.00  0.00    +0.000 A 
ATOM     12  C   UNL     1       0.461   9.341  20.893  0.00  0.00    +0.000 A 
ATOM     13  C   UNL     1       0.022  10.544  20.326  0.00  0.00    +0.000 A 
ATOM     14  C   UNL     1      -0.707  11.445  21.096  0.00  0.00    +0.000 A 
ATOM     15  N   UNL     1      -1.141  12.647  20.518  0.00  0.00    +0.000 N 
ATOM     16  H   UNL     1      -1.043  12.796  19.524  0.00  0.00    +0.000 HD
ENDBRANCH   4  12
ENDBRANCH   3   4
ENDBRANCH   2   3
ENDBRANCH   1   2
BRANCH   1  17
ATOM     17  C   UNL     1       1.529   3.505  21.116  0.00  0.00    +0.000 C 
BRANCH  17  18
ATOM     18  C   UNL     1       0.633   3.297  19.889  0.00  0.00    +0.000 C 
BRANCH  18  19
ATOM     19  C   UNL     1       1.168   2.210  18.940  0.00  0.00    +0.000 C 
BRANCH  19  20
ATOM     20  N   UNL     1       1.925   2.745  17.811  0.00  0.00    +0.000 NA
ATOM     21  C   UNL     1       1.746   4.178  17.509  0.00  0.00    +0.000 C 
ATOM     22  C   UNL     1       2.864   5.213  17.848  0.00  0.00    +0.000 C 
ATOM     23  N   UNL     1       4.228   4.654  17.867  0.00  0.00    +0.000 N 
ATOM     24  C   UNL     1       4.982   4.724  16.687  0.00  0.00    +0.000 A 
ATOM     25  C   UNL     1       5.106   5.918  15.976  0.00  0.00    +0.000 A 
ATOM     26  C   UNL     1       5.836   5.953  14.786  0.00  0.00    +0.000 A 
ATOM     27  C   UNL     1       6.455   4.800  14.332  0.00  0.00    +0.000 A 
ATOM     28  C   UNL     1       6.342   3.669  15.112  0.00  0.00    +0.000 A 
ATOM     29  N   UNL     1       5.641   3.620  16.264  0.00  0.00    +0.000 NA
ATOM     30  C   UNL     1       4.274   3.340  18.533  0.00  0.00    +0.000 C 
ATOM     31  C   UNL     1       3.340   2.342  17.819  0.00  0.00    +0.000 C 
ENDBRANCH  19  20
ENDBRANCH  18  19
ENDBRANCH  17  18
ENDBRANCH   1  17
TORSDOF 8
ENDMDL
MODEL 7
REMARK VINA RESULT:      -7.9      6.192      8.577
REMARK  Name = 
REMARK  8 active torsions:
REMARK  status: ('A' for Active; 'I' for Inactive)
REMARK    1  A    between atoms: C_8  and  O_9
REMARK    2  A    between atoms: O_9  and  C_10
REMARK    3  A    between atoms: C_10  and  C_11
REMARK    4  A    between atoms: C_11  and  C_12
REMARK    5  A    between atoms: C_12  and  C_13
REMARK    6  A    between atoms: C_13  and  C_14
REMARK    7  A    between atoms: C_14  and  C_15
REMARK    8  A    between atoms: C_15  and  N_16
REMARK                            x       y       z     vdW  Elec       q    Type
REMARK                         _______ _______ _______ _____ _____    ______ ____
ROOT
ATOM      1  C   UNL     1       1.173   4.578  19.670  0.00  0.00    +0.000 C 
ENDROOT
BRANCH   1   2
ATOM      2  C   UNL     1       1.132   3.151  20.223  0.00  0.00    +0.000 C 
BRANCH   2   3
ATOM      3  C   UNL     1       1.635   2.123  19.217  0.00  0.00    +0.000 C 
BRANCH   3   4
ATOM      4  O   UNL     1       3.040   1.940  19.388  0.00  0.00    +0.000 OA
BRANCH   4  12
ATOM      5  O   UNL     1       8.315   6.732  19.015  0.00  0.00    +0.000 OA
ATOM      6  C   UNL     1       7.354   6.181  18.475  0.00  0.00    +0.000 C 
ATOM      7  C   UNL     1       6.770   6.664  17.170  0.00  0.00    +0.000 C 
ATOM      8  C   UNL     1       6.214   5.519  16.339  0.00  0.00    +0.000 C 
ATOM      9  C   UNL     1       5.332   4.633  17.170  0.00  0.00    +0.000 A 
ATOM     10  C   UNL     1       4.281   3.906  16.597  0.00  0.00    +0.000 A 
ATOM     11  C   UNL     1       3.536   3.024  17.381  0.00  0.00    +0.000 A 
ATOM     12  C   UNL     1       3.838   2.843  18.733  0.00  0.00    +0.000 A 
ATOM     13  C   UNL     1       4.897   3.560  19.302  0.00  0.00    +0.000 A 
ATOM     14  C   UNL     1       5.629   4.450  18.522  0.00  0.00    +0.000 A 
ATOM     15  N   UNL     1       6.687   5.163  19.102  0.00  0.00    +0.000 N 
ATOM     16  H   UNL     1       6.999   4.936  20.035  0.00  0.00    +0.000 HD
ENDBRANCH   4  12
ENDBRANCH   3   4
ENDBRANCH   2   3
ENDBRANCH   1   2
BRANCH   1  17
ATOM     17  C   UNL     1       1.774   5.583  20.656  0.00  0.00    +0.000 C 
BRANCH  17  18
ATOM     18  C   UNL     1       2.622   6.641  19.940  0.00  0.00    +0.000 C 
BRANCH  18  19
ATOM     19  C   UNL     1       1.872   7.320  18.781  0.00  0.00    +0.000 C 
BRANCH  19  20
ATOM     20  N   UNL     1       1.757   8.769  18.931  0.00  0.00    +0.000 NA
ATOM     21  C   UNL     1       1.060   9.496  17.854  0.00  0.00    +0.000 C 
ATOM     22  C   UNL     1      -0.378  10.062  18.071  0.00  0.00    +0.000 C 
ATOM     23  N   UNL     1      -0.704  10.383  19.473  0.00  0.00    +0.000 N 
ATOM     24  C   UNL     1      -0.478  11.695  19.914  0.00  0.00    +0.000 A 
ATOM     25  C   UNL     1      -0.943  12.793  19.190  0.00  0.00    +0.000 A 
ATOM     26  C   UNL     1      -0.678  14.090  19.635  0.00  0.00    +0.000 A 
ATOM     27  C   UNL     1       0.029  14.275  20.812  0.00  0.00    +0.000 A 
ATOM     28  C   UNL     1       0.408  13.148  21.510  0.00  0.00    +0.000 A 
ATOM     29  N   UNL     1       0.158  11.889  21.093  0.00  0.00    +0.000 NA
ATOM     30  C   UNL     1      -0.218   9.345  20.400  0.00  0.00    +0.000 C 
ATOM     31  C   UNL     1       1.309   9.179  20.271  0.00  0.00    +0.000 C 
ENDBRANCH  19  20
ENDBRANCH  18  19
ENDBRANCH  17  18
ENDBRANCH   1  17
TORSDOF 8
ENDMDL
MODEL 8
REMARK VINA RESULT:      -7.9      5.789      8.000
REMARK  Name = 
REMARK  8 active torsions:
REMARK  status: ('A' for Active; 'I' for Inactive)
REMARK    1  A    between atoms: C_8  and  O_9
REMARK    2  A    between atoms: O_9  and  C_10
REMARK    3  A    between atoms: C_10  and  C_11
REMARK    4  A    between atoms: C_11  and  C_12
REMARK    5  A    between atoms: C_12  and  C_13
REMARK    6  A    between atoms: C_13  and  C_14
REMARK    7  A    between atoms: C_14  and  C_15
REMARK    8  A    between atoms: C_15  and  N_16
REMARK                            x       y       z     vdW  Elec       q    Type
REMARK                         _______ _______ _______ _____ _____    ______ ____
ROOT
ATOM      1  C   UNL     1       0.768   3.554  20.188  0.00  0.00    +0.000 C 
ENDROOT
BRANCH   1   2
ATOM      2  C   UNL     1       1.690   3.151  21.341  0.00  0.00    +0.000 C 
BRANCH   2   3
ATOM      3  C   UNL     1       2.609   1.992  20.973  0.00  0.00    +0.000 C 
BRANCH   3   4
ATOM      4  O   UNL     1       3.951   2.466  20.868  0.00  0.00    +0.000 OA
BRANCH   4  12
ATOM      5  O   UNL     1       7.042   7.484  16.843  0.00  0.00    +0.000 OA
ATOM      6  C   UNL     1       6.284   6.515  16.919  0.00  0.00    +0.000 C 
ATOM      7  C   UNL     1       5.402   6.084  15.773  0.00  0.00    +0.000 C 
ATOM      8  C   UNL     1       5.195   4.578  15.751  0.00  0.00    +0.000 C 
ATOM      9  C   UNL     1       4.808   4.071  17.111  0.00  0.00    +0.000 A 
ATOM     10  C   UNL     1       4.027   2.919  17.264  0.00  0.00    +0.000 A 
ATOM     11  C   UNL     1       3.759   2.425  18.542  0.00  0.00    +0.000 A 
ATOM     12  C   UNL     1       4.277   3.058  19.674  0.00  0.00    +0.000 A 
ATOM     13  C   UNL     1       5.070   4.202  19.520  0.00  0.00    +0.000 A 
ATOM     14  C   UNL     1       5.323   4.701  18.245  0.00  0.00    +0.000 A 
ATOM     15  N   UNL     1       6.116   5.847  18.102  0.00  0.00    +0.000 N 
ATOM     16  H   UNL     1       6.607   6.227  18.899  0.00  0.00    +0.000 HD
ENDBRANCH   4  12
ENDBRANCH   3   4
ENDBRANCH   2   3
ENDBRANCH   1   2
BRANCH   1  17
ATOM     17  C   UNL     1       1.196   4.857  19.509  0.00  0.00    +0.000 C 
BRANCH  17  18
ATOM     18  C   UNL     1       1.953   5.777  20.474  0.00  0.00    +0.000 C 
BRANCH  18  19
ATOM     19  C   UNL     1       1.113   6.984  20.927  0.00  0.00    +0.000 C 
BRANCH  19  20
ATOM     20  N   UNL     1       1.742   8.271  20.639  0.00  0.00    +0.000 NA
ATOM     21  C   UNL     1       1.975   8.595  19.218  0.00  0.00    +0.000 C 
ATOM     22  C   UNL     1       1.092   9.651  18.483  0.00  0.00    +0.000 C 
ATOM     23  N   UNL     1       0.515  10.684  19.364  0.00  0.00    +0.000 N 
ATOM     24  C   UNL     1       1.229  11.880  19.527  0.00  0.00    +0.000 A 
ATOM     25  C   UNL     1       1.712  12.591  18.428  0.00  0.00    +0.000 A 
ATOM     26  C   UNL     1       2.447  13.763  18.619  0.00  0.00    +0.000 A 
ATOM     27  C   UNL     1       2.671  14.225  19.906  0.00  0.00    +0.000 A 
ATOM     28  C   UNL     1       2.116  13.507  20.944  0.00  0.00    +0.000 A 
ATOM     29  N   UNL     1       1.403  12.374  20.774  0.00  0.00    +0.000 NA
ATOM     30  C   UNL     1       0.007  10.110  20.623  0.00  0.00    +0.000 C 
ATOM     31  C   UNL     1       1.139   9.390  21.381  0.00  0.00    +0.000 C 
ENDBRANCH  19  20
ENDBRANCH  18  19
ENDBRANCH  17  18
ENDBRANCH   1  17
TORSDOF 8
ENDMDL
MODEL 9
REMARK VINA RESULT:      -7.7      7.445     10.140
REMARK  Name = 
REMARK  8 active torsions:
REMARK  status: ('A' for Active; 'I' for Inactive)
REMARK    1  A    between atoms: C_8  and  O_9
REMARK    2  A    between atoms: O_9  and  C_10
REMARK    3  A    between atoms: C_10  and  C_11
REMARK    4  A    between atoms: C_11  and  C_12
REMARK    5  A    between atoms: C_12  and  C_13
REMARK    6  A    between atoms: C_13  and  C_14
REMARK    7  A    between atoms: C_14  and  C_15
REMARK    8  A    between atoms: C_15  and  N_16
REMARK                            x       y       z     vdW  Elec       q    Type
REMARK                         _______ _______ _______ _____ _____    ______ ____
ROOT
ATOM      1  C   UNL     1       2.108   4.656  21.423  0.00  0.00    +0.000 C 
ENDROOT
BRANCH   1   2
ATOM      2  C   UNL     1       1.435   5.743  20.583  0.00  0.00    +0.000 C 
BRANCH   2   3
ATOM      3  C   UNL     1       1.857   7.147  21.002  0.00  0.00    +0.000 C 
BRANCH   3   4
ATOM      4  O   UNL     1       1.831   8.009  19.864  0.00  0.00    +0.000 OA
BRANCH   4  12
ATOM      5  O   UNL     1      -2.395  12.523  23.426  0.00  0.00    +0.000 OA
ATOM      6  C   UNL     1      -1.951  12.127  22.348  0.00  0.00    +0.000 C 
ATOM      7  C   UNL     1      -2.503  12.593  21.023  0.00  0.00    +0.000 C 
ATOM      8  C   UNL     1      -1.429  12.651  19.948  0.00  0.00    +0.000 C 
ATOM      9  C   UNL     1      -0.631  11.379  19.921  0.00  0.00    +0.000 A 
ATOM     10  C   UNL     1      -0.021  10.927  18.745  0.00  0.00    +0.000 A 
ATOM     11  C   UNL     1       0.786   9.789  18.773  0.00  0.00    +0.000 A 
ATOM     12  C   UNL     1       1.010   9.102  19.969  0.00  0.00    +0.000 A 
ATOM     13  C   UNL     1       0.411   9.563  21.147  0.00  0.00    +0.000 A 
ATOM     14  C   UNL     1      -0.406  10.689  21.113  0.00  0.00    +0.000 A 
ATOM     15  N   UNL     1      -1.002  11.142  22.299  0.00  0.00    +0.000 N 
ATOM     16  H   UNL     1      -0.736  10.738  23.186  0.00  0.00    +0.000 HD
ENDBRANCH   4  12
ENDBRANCH   3   4
ENDBRANCH   2   3
ENDBRANCH   1   2
BRANCH   1  17
ATOM     17  C   UNL     1       1.708   3.240  20.999  0.00  0.00    +0.000 C 
BRANCH  17  18
ATOM     18  C   UNL     1       0.693   3.259  19.850  0.00  0.00    +0.000 C 
BRANCH  18  19
ATOM     19  C   UNL     1       1.012   2.222  18.758  0.00  0.00    +0.000 C 
BRANCH  19  20
ATOM     20  N   UNL     1       1.824   2.757  17.668  0.00  0.00    +0.000 NA
ATOM     21  C   UNL     1       1.684   4.197  17.379  0.00  0.00    +0.000 C 
ATOM     22  C   UNL     1       2.806   5.206  17.777  0.00  0.00    +0.000 C 
ATOM     23  N   UNL     1       4.158   4.622  17.843  0.00  0.00    +0.000 N 
ATOM     24  C   UNL     1       4.960   4.692  16.695  0.00  0.00    +0.000 A 
ATOM     25  C   UNL     1       5.135   5.893  16.006  0.00  0.00    +0.000 A 
ATOM     26  C   UNL     1       5.913   5.930  14.847  0.00  0.00    +0.000 A 
ATOM     27  C   UNL     1       6.528   4.771  14.403  0.00  0.00    +0.000 A 
ATOM     28  C   UNL     1       6.364   3.632  15.162  0.00  0.00    +0.000 A 
ATOM     29  N   UNL     1       5.616   3.582  16.284  0.00  0.00    +0.000 NA
ATOM     30  C   UNL     1       4.152   3.299  18.492  0.00  0.00    +0.000 C 
ATOM     31  C   UNL     1       3.231   2.328  17.728  0.00  0.00    +0.000 C 
ENDBRANCH  19  20
ENDBRANCH  18  19
ENDBRANCH  17  18
ENDBRANCH   1  17
TORSDOF 8
ENDMDL
