MODEL 1
REMARK VINA RESULT:      -7.8      0.000      0.000
REMARK  Name = 
REMARK  7 active torsions:
REMARK  status: ('A' for Active; 'I' for Inactive)
REMARK    1  A    between atoms: C_1  and  C_2
REMARK    2  A    between atoms: C_2  and  C_3
REMARK    3  A    between atoms: C_3  and  C_4
REMARK    4  A    between atoms: C_4  and  C_5
REMARK    5  A    between atoms: C_11  and  C_12
REMARK    6  A    between atoms: C_15  and  C_16
REMARK    7  A    between atoms: N_18  and  C_19
REMARK                            x       y       z     vdW  Elec       q    Type
REMARK                         _______ _______ _______ _____ _____    ______ ____
ROOT
ATOM      1  C   UNL     1       7.300   5.801  17.822  0.00  0.00    +0.000 A 
ATOM      2  N   UNL     1       8.066   5.819  18.900  0.00  0.00    +0.000 NA
ATOM      3  N   UNL     1       8.544   7.084  19.202  0.00  0.00    +0.000 NA
ATOM      4  C   UNL     1       8.116   7.981  18.337  0.00  0.00    +0.000 A 
ATOM      5  S   UNL     1       7.107   7.352  17.100  0.00  0.00    +0.000 S 
ENDROOT
BRANCH   1  12
ATOM      6  C   UNL     1       4.839   3.865  18.606  0.00  0.00    +0.000 C 
ATOM      7  O   UNL     1       5.579   3.753  19.583  0.00  0.00    +0.000 OA
ATOM      8  N   UNL     1       5.315   4.328  17.398  0.00  0.00    +0.000 N 
ATOM      9  C   UNL     1       4.589   4.427  16.143  0.00  0.00    +0.000 C 
ATOM     10  C   UNL     1       5.620   4.028  15.105  0.00  0.00    +0.000 C 
ATOM     11  C   UNL     1       6.930   4.571  15.666  0.00  0.00    +0.000 C 
ATOM     12  C   UNL     1       6.754   4.538  17.196  0.00  0.00    +0.000 C 
BRANCH   6  13
ATOM     13  C   UNL     1       3.383   3.419  18.655  0.00  0.00    +0.000 C 
BRANCH  13  14
ATOM     14  C   UNL     1       3.064   2.543  19.866  0.00  0.00    +0.000 C 
BRANCH  14  16
ATOM     15  C   UNL     1       0.867   3.736  20.202  0.00  0.00    +0.000 C 
ATOM     16  C   UNL     1       2.155   3.271  20.859  0.00  0.00    +0.000 C 
ENDBRANCH  14  16
ENDBRANCH  13  14
ENDBRANCH   6  13
ENDBRANCH   1  12
BRANCH   4  17
ATOM     17  C   UNL     1       8.479   9.391  18.359  0.00  0.00    +0.000 C 
ATOM     18  O   UNL     1       8.102  10.173  17.486  0.00  0.00    +0.000 OA
ATOM     19  N   UNL     1       9.318   9.760  19.411  0.00  0.00    +0.000 N 
ATOM     20  H   UNL     1       9.662   8.997  19.986  0.00  0.00    +0.000 HD
BRANCH  19  21
ATOM     21  C   UNL     1       9.846  11.054  19.646  0.00  0.00    +0.000 A 
ATOM     22  C   UNL     1      10.980  11.546  18.969  0.00  0.00    +0.000 A 
ATOM     23  C   UNL     1      11.528  12.800  19.267  0.00  0.00    +0.000 A 
ATOM     24  C   UNL     1      10.922  13.542  20.249  0.00  0.00    +0.000 A 
ATOM     25  C   UNL     1       9.794  13.093  20.894  0.00  0.00    +0.000 A 
ATOM     26  C   UNL     1       9.219  11.867  20.603  0.00  0.00    +0.000 A 
ATOM     27  O   UNL     1       9.359  13.981  21.832  0.00  0.00    +0.000 OA
ATOM     28  C   UNL     1      10.393  14.990  21.756  0.00  0.00    +0.000 C 
ATOM     29  O   UNL     1      11.338  14.757  20.693  0.00  0.00    +0.000 OA
ENDBRANCH  19  21
ENDBRANCH   4  17
TORSDOF 6
ENDMDL
MODEL 2
REMARK VINA RESULT:      -7.7      1.816      1.909
REMARK  Name = 
REMARK  7 active torsions:
REMARK  status: ('A' for Active; 'I' for Inactive)
REMARK    1  A    between atoms: C_1  and  C_2
REMARK    2  A    between atoms: C_2  and  C_3
REMARK    3  A    between atoms: C_3  and  C_4
REMARK    4  A    between atoms: C_4  and  C_5
REMARK    5  A    between atoms: C_11  and  C_12
REMARK    6  A    between atoms: C_15  and  C_16
REMARK    7  A    between atoms: N_18  and  C_19
REMARK                            x       y       z     vdW  Elec       q    Type
REMARK                         _______ _______ _______ _____ _____    ______ ____
ROOT
ATOM      1  C   UNL     1       7.281   6.471  17.512  0.00  0.00    +0.000 A 
ATOM      2  N   UNL     1       6.845   7.461  16.752  0.00  0.00    +0.000 NA
ATOM      3  N   UNL     1       7.376   8.690  17.110  0.00  0.00    +0.000 NA
ATOM      4  C   UNL     1       8.201   8.581  18.131  0.00  0.00    +0.000 A 
ATOM      5  S   UNL     1       8.389   6.983  18.726  0.00  0.00    +0.000 S 
ENDROOT
BRANCH   1  12
ATOM      6  C   UNL     1       4.721   4.992  18.806  0.00  0.00    +0.000 C 
ATOM      7  O   UNL     1       5.367   5.313  19.803  0.00  0.00    +0.000 OA
ATOM      8  N   UNL     1       5.313   4.916  17.564  0.00  0.00    +0.000 N 
ATOM      9  C   UNL     1       4.706   4.467  16.323  0.00  0.00    +0.000 C 
ATOM     10  C   UNL     1       5.818   3.692  15.645  0.00  0.00    +0.000 C 
ATOM     11  C   UNL     1       7.083   4.445  16.043  0.00  0.00    +0.000 C 
ATOM     12  C   UNL     1       6.768   5.051  17.424  0.00  0.00    +0.000 C 
BRANCH   6  13
ATOM     13  C   UNL     1       3.258   4.578  18.905  0.00  0.00    +0.000 C 
BRANCH  13  14
ATOM     14  C   UNL     1       2.367   5.661  19.517  0.00  0.00    +0.000 C 
BRANCH  14  16
ATOM     15  C   UNL     1       0.998   3.723  20.373  0.00  0.00    +0.000 C 
ATOM     16  C   UNL     1       1.535   5.110  20.677  0.00  0.00    +0.000 C 
ENDBRANCH  14  16
ENDBRANCH  13  14
ENDBRANCH   6  13
ENDBRANCH   1  12
BRANCH   4  17
ATOM     17  C   UNL     1       8.884   9.699  18.766  0.00  0.00    +0.000 C 
ATOM     18  O   UNL     1       8.849   9.876  19.984  0.00  0.00    +0.000 OA
ATOM     19  N   UNL     1       9.529  10.565  17.882  0.00  0.00    +0.000 N 
ATOM     20  H   UNL     1       9.373  10.382  16.895  0.00  0.00    +0.000 HD
BRANCH  19  21
ATOM     21  C   UNL     1      10.234  11.744  18.231  0.00  0.00    +0.000 A 
ATOM     22  C   UNL     1      11.498  11.716  18.856  0.00  0.00    +0.000 A 
ATOM     23  C   UNL     1      12.145  12.891  19.257  0.00  0.00    +0.000 A 
ATOM     24  C   UNL     1      11.506  14.083  19.022  0.00  0.00    +0.000 A 
ATOM     25  C   UNL     1      10.291  14.130  18.382  0.00  0.00    +0.000 A 
ATOM     26  C   UNL     1       9.639  12.984  17.955  0.00  0.00    +0.000 A 
ATOM     27  O   UNL     1       9.835  15.408  18.254  0.00  0.00    +0.000 OA
ATOM     28  C   UNL     1      10.862  16.138  18.963  0.00  0.00    +0.000 C 
ATOM     29  O   UNL     1      11.966  15.310  19.377  0.00  0.00    +0.000 OA
ENDBRANCH  19  21
ENDBRANCH   4  17
TORSDOF 6
ENDMDL
MODEL 3
REMARK VINA RESULT:      -7.6      0.790      1.388
REMARK  Name = 
REMARK  7 active torsions:
REMARK  status: ('A' for Active; 'I' for Inactive)
REMARK    1  A    between atoms: C_1  and  C_2
REMARK    2  A    between atoms: C_2  and  C_3
REMARK    3  A    between atoms: C_3  and  C_4
REMARK    4  A    between atoms: C_4  and  C_5
REMARK    5  A    between atoms: C_11  and  C_12
REMARK    6  A    between atoms: C_15  and  C_16
REMARK    7  A    between atoms: N_18  and  C_19
REMARK                            x       y       z     vdW  Elec       q    Type
REMARK                         _______ _______ _______ _____ _____    ______ ____
ROOT
ATOM      1  C   UNL     1       7.281   5.609  17.700  0.00  0.00    +0.000 A 
ATOM      2  N   UNL     1       8.032   5.582  18.788  0.00  0.00    +0.000 NA
ATOM      3  N   UNL     1       8.520   6.831  19.138  0.00  0.00    +0.000 NA
ATOM      4  C   UNL     1       8.114   7.761  18.298  0.00  0.00    +0.000 A 
ATOM      5  S   UNL     1       7.114   7.186  17.028  0.00  0.00    +0.000 S 
ENDROOT
BRANCH   1  12
ATOM      6  C   UNL     1       4.642   3.828  18.231  0.00  0.00    +0.000 C 
ATOM      7  O   UNL     1       5.268   3.682  19.280  0.00  0.00    +0.000 OA
ATOM      8  N   UNL     1       5.266   4.250  17.078  0.00  0.00    +0.000 N 
ATOM      9  C   UNL     1       4.682   4.379  15.753  0.00  0.00    +0.000 C 
ATOM     10  C   UNL     1       5.789   3.910  14.830  0.00  0.00    +0.000 C 
ATOM     11  C   UNL     1       7.064   4.382  15.522  0.00  0.00    +0.000 C 
ATOM     12  C   UNL     1       6.728   4.374  17.026  0.00  0.00    +0.000 C 
BRANCH   6  13
ATOM     13  C   UNL     1       3.164   3.468  18.130  0.00  0.00    +0.000 C 
BRANCH  13  14
ATOM     14  C   UNL     1       2.807   2.180  18.872  0.00  0.00    +0.000 C 
BRANCH  14  16
ATOM     15  C   UNL     1       1.099   3.814  19.753  0.00  0.00    +0.000 C 
ATOM     16  C   UNL     1       1.628   2.392  19.824  0.00  0.00    +0.000 C 
ENDBRANCH  14  16
ENDBRANCH  13  14
ENDBRANCH   6  13
ENDBRANCH   1  12
BRANCH   4  17
ATOM     17  C   UNL     1       8.492   9.165  18.372  0.00  0.00    +0.000 C 
ATOM     18  O   UNL     1       8.308   9.939  17.432  0.00  0.00    +0.000 OA
ATOM     19  N   UNL     1       9.117   9.538  19.563  0.00  0.00    +0.000 N 
ATOM     20  H   UNL     1       9.328   8.779  20.204  0.00  0.00    +0.000 HD
BRANCH  19  21
ATOM     21  C   UNL     1       9.614  10.827  19.879  0.00  0.00    +0.000 A 
ATOM     22  C   UNL     1       9.333  11.471  21.101  0.00  0.00    +0.000 A 
ATOM     23  C   UNL     1       9.774  12.774  21.364  0.00  0.00    +0.000 A 
ATOM     24  C   UNL     1      10.495  13.411  20.386  0.00  0.00    +0.000 A 
ATOM     25  C   UNL     1      10.809  12.785  19.203  0.00  0.00    +0.000 A 
ATOM     26  C   UNL     1      10.404  11.489  18.927  0.00  0.00    +0.000 A 
ATOM     27  O   UNL     1      11.525  13.596  18.375  0.00  0.00    +0.000 OA
ATOM     28  C   UNL     1      11.545  14.822  19.141  0.00  0.00    +0.000 C 
ATOM     29  O   UNL     1      10.967  14.683  20.453  0.00  0.00    +0.000 OA
ENDBRANCH  19  21
ENDBRANCH   4  17
TORSDOF 6
ENDMDL
MODEL 4
REMARK VINA RESULT:      -7.6      5.676      7.674
REMARK  Name = 
REMARK  7 active torsions:
REMARK  status: ('A' for Active; 'I' for Inactive)
REMARK    1  A    between atoms: C_1  and  C_2
REMARK    2  A    between atoms: C_2  and  C_3
REMARK    3  A    between atoms: C_3  and  C_4
REMARK    4  A    between atoms: C_4  and  C_5
REMARK    5  A    between atoms: C_11  and  C_12
REMARK    6  A    between atoms: C_15  and  C_16
REMARK    7  A    between atoms: N_18  and  C_19
REMARK                            x       y       z     vdW  Elec       q    Type
REMARK                         _______ _______ _______ _____ _____    ______ ____
ROOT
ATOM      1  C   UNL     1       4.156   5.727  18.613  0.00  0.00    +0.000 A 
ATOM      2  N   UNL     1       3.222   5.542  19.531  0.00  0.00    +0.000 NA
ATOM      3  N   UNL     1       2.286   6.563  19.560  0.00  0.00    +0.000 NA
ATOM      4  C   UNL     1       2.547   7.485  18.656  0.00  0.00    +0.000 A 
ATOM      5  S   UNL     1       3.945   7.178  17.710  0.00  0.00    +0.000 S 
ENDROOT
BRANCH   1  12
ATOM      6  C   UNL     1       5.320   4.060  16.106  0.00  0.00    +0.000 C 
ATOM      7  O   UNL     1       4.228   3.523  16.291  0.00  0.00    +0.000 OA
ATOM      8  N   UNL     1       5.926   4.805  17.094  0.00  0.00    +0.000 N 
ATOM      9  C   UNL     1       7.244   5.416  17.055  0.00  0.00    +0.000 C 
ATOM     10  C   UNL     1       7.771   5.214  18.462  0.00  0.00    +0.000 C 
ATOM     11  C   UNL     1       6.526   5.331  19.337  0.00  0.00    +0.000 C 
ATOM     12  C   UNL     1       5.367   4.837  18.451  0.00  0.00    +0.000 C 
BRANCH   6  13
ATOM     13  C   UNL     1       6.096   3.860  14.810  0.00  0.00    +0.000 C 
BRANCH  13  14
ATOM     14  C   UNL     1       5.297   4.245  13.565  0.00  0.00    +0.000 C 
BRANCH  14  16
ATOM     15  C   UNL     1       4.365   3.232  11.451  0.00  0.00    +0.000 C 
ATOM     16  C   UNL     1       5.533   3.256  12.421  0.00  0.00    +0.000 C 
ENDBRANCH  14  16
ENDBRANCH  13  14
ENDBRANCH   6  13
ENDBRANCH   1  12
BRANCH   4  17
ATOM     17  C   UNL     1       1.771   8.703  18.468  0.00  0.00    +0.000 C 
ATOM     18  O   UNL     1       1.677   9.250  17.369  0.00  0.00    +0.000 OA
ATOM     19  N   UNL     1       1.197   9.214  19.633  0.00  0.00    +0.000 N 
ATOM     20  H   UNL     1       1.458   8.743  20.494  0.00  0.00    +0.000 HD
BRANCH  19  21
ATOM     21  C   UNL     1       0.427  10.399  19.736  0.00  0.00    +0.000 A 
ATOM     22  C   UNL     1      -0.978  10.404  19.623  0.00  0.00    +0.000 A 
ATOM     23  C   UNL     1      -1.713  11.595  19.656  0.00  0.00    +0.000 A 
ATOM     24  C   UNL     1      -1.018  12.769  19.803  0.00  0.00    +0.000 A 
ATOM     25  C   UNL     1       0.349  12.780  19.950  0.00  0.00    +0.000 A 
ATOM     26  C   UNL     1       1.098  11.614  19.943  0.00  0.00    +0.000 A 
ATOM     27  O   UNL     1       0.835  14.046  20.078  0.00  0.00    +0.000 OA
ATOM     28  C   UNL     1      -0.372  14.823  19.905  0.00  0.00    +0.000 C 
ATOM     29  O   UNL     1      -1.562  14.014  19.817  0.00  0.00    +0.000 OA
ENDBRANCH  19  21
ENDBRANCH   4  17
TORSDOF 6
ENDMDL
MODEL 5
REMARK VINA RESULT:      -7.6      1.878      2.066
REMARK  Name = 
REMARK  7 active torsions:
REMARK  status: ('A' for Active; 'I' for Inactive)
REMARK    1  A    between atoms: C_1  and  C_2
REMARK    2  A    between atoms: C_2  and  C_3
REMARK    3  A    between atoms: C_3  and  C_4
REMARK    4  A    between atoms: C_4  and  C_5
REMARK    5  A    between atoms: C_11  and  C_12
REMARK    6  A    between atoms: C_15  and  C_16
REMARK    7  A    between atoms: N_18  and  C_19
REMARK                            x       y       z     vdW  Elec       q    Type
REMARK                         _______ _______ _______ _____ _____    ______ ____
ROOT
ATOM      1  C   UNL     1       7.186   6.482  17.563  0.00  0.00    +0.000 A 
ATOM      2  N   UNL     1       6.823   7.456  16.745  0.00  0.00    +0.000 NA
ATOM      3  N   UNL     1       7.399   8.675  17.069  0.00  0.00    +0.000 NA
ATOM      4  C   UNL     1       8.182   8.574  18.124  0.00  0.00    +0.000 A 
ATOM      5  S   UNL     1       8.274   6.997  18.794  0.00  0.00    +0.000 S 
ENDROOT
BRANCH   1  12
ATOM      6  C   UNL     1       4.419   5.226  18.650  0.00  0.00    +0.000 C 
ATOM      7  O   UNL     1       4.964   5.594  19.691  0.00  0.00    +0.000 OA
ATOM      8  N   UNL     1       5.143   5.028  17.495  0.00  0.00    +0.000 N 
ATOM      9  C   UNL     1       4.658   4.511  16.227  0.00  0.00    +0.000 C 
ATOM     10  C   UNL     1       5.796   3.636  15.741  0.00  0.00    +0.000 C 
ATOM     11  C   UNL     1       7.047   4.360  16.231  0.00  0.00    +0.000 C 
ATOM     12  C   UNL     1       6.610   5.085  17.518  0.00  0.00    +0.000 C 
BRANCH   6  13
ATOM     13  C   UNL     1       2.934   4.888  18.606  0.00  0.00    +0.000 C 
BRANCH  13  14
ATOM     14  C   UNL     1       2.565   3.683  19.472  0.00  0.00    +0.000 C 
BRANCH  14  16
ATOM     15  C   UNL     1       3.417   1.635  18.270  0.00  0.00    +0.000 C 
ATOM     16  C   UNL     1       2.197   2.471  18.614  0.00  0.00    +0.000 C 
ENDBRANCH  14  16
ENDBRANCH  13  14
ENDBRANCH   6  13
ENDBRANCH   1  12
BRANCH   4  17
ATOM     17  C   UNL     1       8.895   9.687  18.734  0.00  0.00    +0.000 C 
ATOM     18  O   UNL     1       8.936   9.841  19.955  0.00  0.00    +0.000 OA
ATOM     19  N   UNL     1       9.473  10.576  17.828  0.00  0.00    +0.000 N 
ATOM     20  H   UNL     1       9.255  10.410  16.850  0.00  0.00    +0.000 HD
BRANCH  19  21
ATOM     21  C   UNL     1      10.189  11.755  18.153  0.00  0.00    +0.000 A 
ATOM     22  C   UNL     1      11.429  11.731  18.821  0.00  0.00    +0.000 A 
ATOM     23  C   UNL     1      12.086  12.909  19.196  0.00  0.00    +0.000 A 
ATOM     24  C   UNL     1      11.477  14.102  18.892  0.00  0.00    +0.000 A 
ATOM     25  C   UNL     1      10.285  14.145  18.209  0.00  0.00    +0.000 A 
ATOM     26  C   UNL     1       9.627  12.994  17.807  0.00  0.00    +0.000 A 
ATOM     27  O   UNL     1       9.859  15.423  18.014  0.00  0.00    +0.000 OA
ATOM     28  C   UNL     1      10.875  16.164  18.728  0.00  0.00    +0.000 C 
ATOM     29  O   UNL     1      11.949  15.335  19.212  0.00  0.00    +0.000 OA
ENDBRANCH  19  21
ENDBRANCH   4  17
TORSDOF 6
ENDMDL
MODEL 6
REMARK VINA RESULT:      -7.4      5.832      8.013
REMARK  Name = 
REMARK  7 active torsions:
REMARK  status: ('A' for Active; 'I' for Inactive)
REMARK    1  A    between atoms: C_1  and  C_2
REMARK    2  A    between atoms: C_2  and  C_3
REMARK    3  A    between atoms: C_3  and  C_4
REMARK    4  A    between atoms: C_4  and  C_5
REMARK    5  A    between atoms: C_11  and  C_12
REMARK    6  A    between atoms: C_15  and  C_16
REMARK    7  A    between atoms: N_18  and  C_19
REMARK                            x       y       z     vdW  Elec       q    Type
REMARK                         _______ _______ _______ _____ _____    ______ ____
ROOT
ATOM      1  C   UNL     1       4.205   5.705  18.742  0.00  0.00    +0.000 A 
ATOM      2  N   UNL     1       3.214   5.499  19.593  0.00  0.00    +0.000 NA
ATOM      3  N   UNL     1       2.284   6.527  19.596  0.00  0.00    +0.000 NA
ATOM      4  C   UNL     1       2.607   7.474  18.740  0.00  0.00    +0.000 A 
ATOM      5  S   UNL     1       4.059   7.185  17.873  0.00  0.00    +0.000 S 
ENDROOT
BRANCH   1  12
ATOM      6  C   UNL     1       5.297   3.802  16.375  0.00  0.00    +0.000 C 
ATOM      7  O   UNL     1       4.218   3.280  16.651  0.00  0.00    +0.000 OA
ATOM      8  N   UNL     1       5.930   4.645  17.262  0.00  0.00    +0.000 N 
ATOM      9  C   UNL     1       7.240   5.258  17.116  0.00  0.00    +0.000 C 
ATOM     10  C   UNL     1       7.816   5.200  18.517  0.00  0.00    +0.000 C 
ATOM     11  C   UNL     1       6.602   5.398  19.418  0.00  0.00    +0.000 C 
ATOM     12  C   UNL     1       5.418   4.810  18.628  0.00  0.00    +0.000 C 
BRANCH   6  13
ATOM     13  C   UNL     1       6.031   3.477  15.080  0.00  0.00    +0.000 C 
BRANCH  13  14
ATOM     14  C   UNL     1       5.541   4.300  13.889  0.00  0.00    +0.000 C 
BRANCH  14  16
ATOM     15  C   UNL     1       4.704   3.178  11.790  0.00  0.00    +0.000 C 
ATOM     16  C   UNL     1       5.926   3.646  12.560  0.00  0.00    +0.000 C 
ENDBRANCH  14  16
ENDBRANCH  13  14
ENDBRANCH   6  13
ENDBRANCH   1  12
BRANCH   4  17
ATOM     17  C   UNL     1       1.852   8.704  18.542  0.00  0.00    +0.000 C 
ATOM     18  O   UNL     1       1.799   9.265  17.448  0.00  0.00    +0.000 OA
ATOM     19  N   UNL     1       1.248   9.207  19.694  0.00  0.00    +0.000 N 
ATOM     20  H   UNL     1       1.475   8.723  20.557  0.00  0.00    +0.000 HD
BRANCH  19  21
ATOM     21  C   UNL     1       0.489  10.401  19.787  0.00  0.00    +0.000 A 
ATOM     22  C   UNL     1       1.035  11.615  20.249  0.00  0.00    +0.000 A 
ATOM     23  C   UNL     1       0.250  12.764  20.401  0.00  0.00    +0.000 A 
ATOM     24  C   UNL     1      -1.082  12.672  20.084  0.00  0.00    +0.000 A 
ATOM     25  C   UNL     1      -1.624  11.506  19.597  0.00  0.00    +0.000 A 
ATOM     26  C   UNL     1      -0.864  10.361  19.417  0.00  0.00    +0.000 A 
ATOM     27  O   UNL     1      -2.958  11.631  19.350  0.00  0.00    +0.000 OA
ATOM     28  C   UNL     1      -3.199  12.978  19.820  0.00  0.00    +0.000 C 
ATOM     29  O   UNL     1      -1.995  13.670  20.205  0.00  0.00    +0.000 OA
ENDBRANCH  19  21
ENDBRANCH   4  17
TORSDOF 6
ENDMDL
MODEL 7
REMARK VINA RESULT:      -7.3      0.851      1.015
REMARK  Name = 
REMARK  7 active torsions:
REMARK  status: ('A' for Active; 'I' for Inactive)
REMARK    1  A    between atoms: C_1  and  C_2
REMARK    2  A    between atoms: C_2  and  C_3
REMARK    3  A    between atoms: C_3  and  C_4
REMARK    4  A    between atoms: C_4  and  C_5
REMARK    5  A    between atoms: C_11  and  C_12
REMARK    6  A    between atoms: C_15  and  C_16
REMARK    7  A    between atoms: N_18  and  C_19
REMARK                            x       y       z     vdW  Elec       q    Type
REMARK                         _______ _______ _______ _____ _____    ______ ____
ROOT
ATOM      1  C   UNL     1       7.200   5.960  18.007  0.00  0.00    +0.000 A 
ATOM      2  N   UNL     1       8.071   5.961  19.002  0.00  0.00    +0.000 NA
ATOM      3  N   UNL     1       8.620   7.212  19.237  0.00  0.00    +0.000 NA
ATOM      4  C   UNL     1       8.136   8.115  18.410  0.00  0.00    +0.000 A 
ATOM      5  S   UNL     1       6.986   7.511  17.289  0.00  0.00    +0.000 S 
ENDROOT
BRANCH   1  12
ATOM      6  C   UNL     1       4.169   4.855  18.096  0.00  0.00    +0.000 C 
ATOM      7  O   UNL     1       4.475   4.869  19.288  0.00  0.00    +0.000 OA
ATOM      8  N   UNL     1       5.131   4.861  17.110  0.00  0.00    +0.000 N 
ATOM      9  C   UNL     1       4.926   4.754  15.676  0.00  0.00    +0.000 C 
ATOM     10  C   UNL     1       6.080   3.885  15.216  0.00  0.00    +0.000 C 
ATOM     11  C   UNL     1       7.227   4.285  16.139  0.00  0.00    +0.000 C 
ATOM     12  C   UNL     1       6.550   4.712  17.455  0.00  0.00    +0.000 C 
BRANCH   6  13
ATOM     13  C   UNL     1       2.716   4.744  17.649  0.00  0.00    +0.000 C 
BRANCH  13  14
ATOM     14  C   UNL     1       1.763   4.376  18.787  0.00  0.00    +0.000 C 
BRANCH  14  16
ATOM     15  C   UNL     1       1.984   1.909  19.262  0.00  0.00    +0.000 C 
ATOM     16  C   UNL     1       1.158   2.987  18.582  0.00  0.00    +0.000 C 
ENDBRANCH  14  16
ENDBRANCH  13  14
ENDBRANCH   6  13
ENDBRANCH   1  12
BRANCH   4  17
ATOM     17  C   UNL     1       8.546   9.513  18.378  0.00  0.00    +0.000 C 
ATOM     18  O   UNL     1       8.164  10.282  17.496  0.00  0.00    +0.000 OA
ATOM     19  N   UNL     1       9.435   9.882  19.388  0.00  0.00    +0.000 N 
ATOM     20  H   UNL     1       9.774   9.124  19.973  0.00  0.00    +0.000 HD
BRANCH  19  21
ATOM     21  C   UNL     1      10.014  11.163  19.566  0.00  0.00    +0.000 A 
ATOM     22  C   UNL     1      11.275  11.507  19.039  0.00  0.00    +0.000 A 
ATOM     23  C   UNL     1      11.860  12.754  19.287  0.00  0.00    +0.000 A 
ATOM     24  C   UNL     1      11.162  13.641  20.067  0.00  0.00    +0.000 A 
ATOM     25  C   UNL     1       9.915  13.337  20.559  0.00  0.00    +0.000 A 
ATOM     26  C   UNL     1       9.304  12.118  20.310  0.00  0.00    +0.000 A 
ATOM     27  O   UNL     1       9.404  14.353  21.308  0.00  0.00    +0.000 OA
ATOM     28  C   UNL     1      10.508  15.286  21.297  0.00  0.00    +0.000 C 
ATOM     29  O   UNL     1      11.592  14.875  20.440  0.00  0.00    +0.000 OA
ENDBRANCH  19  21
ENDBRANCH   4  17
TORSDOF 6
ENDMDL
MODEL 8
REMARK VINA RESULT:      -7.3      6.533      8.260
REMARK  Name = 
REMARK  7 active torsions:
REMARK  status: ('A' for Active; 'I' for Inactive)
REMARK    1  A    between atoms: C_1  and  C_2
REMARK    2  A    between atoms: C_2  and  C_3
REMARK    3  A    between atoms: C_3  and  C_4
REMARK    4  A    between atoms: C_4  and  C_5
REMARK    5  A    between atoms: C_11  and  C_12
REMARK    6  A    between atoms: C_15  and  C_16
REMARK    7  A    between atoms: N_18  and  C_19
REMARK                            x       y       z     vdW  Elec       q    Type
REMARK                         _______ _______ _______ _____ _____    ______ ____
ROOT
ATOM      1  C   UNL     1       2.523   6.716  18.528  0.00  0.00    +0.000 A 
ATOM      2  N   UNL     1       2.341   6.665  19.837  0.00  0.00    +0.000 NA
ATOM      3  N   UNL     1       1.785   7.827  20.349  0.00  0.00    +0.000 NA
ATOM      4  C   UNL     1       1.564   8.715  19.402  0.00  0.00    +0.000 A 
ATOM      5  S   UNL     1       2.014   8.204  17.828  0.00  0.00    +0.000 S 
ENDROOT
BRANCH   1  12
ATOM      6  C   UNL     1       5.638   6.152  17.901  0.00  0.00    +0.000 C 
ATOM      7  O   UNL     1       5.459   7.245  17.365  0.00  0.00    +0.000 OA
ATOM      8  N   UNL     1       4.581   5.321  18.200  0.00  0.00    +0.000 N 
ATOM      9  C   UNL     1       4.644   3.975  18.745  0.00  0.00    +0.000 C 
ATOM     10  C   UNL     1       3.537   3.244  18.011  0.00  0.00    +0.000 C 
ATOM     11  C   UNL     1       2.460   4.308  17.824  0.00  0.00    +0.000 C 
ATOM     12  C   UNL     1       3.227   5.641  17.732  0.00  0.00    +0.000 C 
BRANCH   6  13
ATOM     13  C   UNL     1       7.040   5.625  18.185  0.00  0.00    +0.000 C 
BRANCH  13  14
ATOM     14  C   UNL     1       7.492   4.554  17.191  0.00  0.00    +0.000 C 
BRANCH  14  16
ATOM     15  C   UNL     1       6.134   3.845  15.187  0.00  0.00    +0.000 C 
ATOM     16  C   UNL     1       7.062   4.900  15.764  0.00  0.00    +0.000 C 
ENDBRANCH  14  16
ENDBRANCH  13  14
ENDBRANCH   6  13
ENDBRANCH   1  12
BRANCH   4  17
ATOM     17  C   UNL     1       1.027  10.050  19.629  0.00  0.00    +0.000 C 
ATOM     18  O   UNL     1       1.530  11.049  19.114  0.00  0.00    +0.000 OA
ATOM     19  N   UNL     1      -0.057  10.100  20.507  0.00  0.00    +0.000 N 
ATOM     20  H   UNL     1      -0.292   9.225  20.965  0.00  0.00    +0.000 HD
BRANCH  19  21
ATOM     21  C   UNL     1      -0.741  11.269  20.925  0.00  0.00    +0.000 A 
ATOM     22  C   UNL     1      -1.687  11.927  20.113  0.00  0.00    +0.000 A 
ATOM     23  C   UNL     1      -2.298  13.120  20.516  0.00  0.00    +0.000 A 
ATOM     24  C   UNL     1      -1.945  13.636  21.738  0.00  0.00    +0.000 A 
ATOM     25  C   UNL     1      -1.051  12.988  22.558  0.00  0.00    +0.000 A 
ATOM     26  C   UNL     1      -0.449  11.795  22.192  0.00  0.00    +0.000 A 
ATOM     27  O   UNL     1      -0.841  13.671  23.718  0.00  0.00    +0.000 OA
ATOM     28  C   UNL     1      -1.637  14.856  23.487  0.00  0.00    +0.000 C 
ATOM     29  O   UNL     1      -2.406  14.797  22.270  0.00  0.00    +0.000 OA
ENDBRANCH  19  21
ENDBRANCH   4  17
TORSDOF 6
ENDMDL
MODEL 9
REMARK VINA RESULT:      -7.3      6.458      8.404
REMARK  Name = 
REMARK  7 active torsions:
REMARK  status: ('A' for Active; 'I' for Inactive)
REMARK    1  A    between atoms: C_1  and  C_2
REMARK    2  A    between atoms: C_2  and  C_3
REMARK    3  A    between atoms: C_3  and  C_4
REMARK    4  A    between atoms: C_4  and  C_5
REMARK    5  A    between atoms: C_11  and  C_12
REMARK    6  A    between atoms: C_15  and  C_16
REMARK    7  A    between atoms: N_18  and  C_19
REMARK                            x       y       z     vdW  Elec       q    Type
REMARK                         _______ _______ _______ _____ _____    ______ ____
ROOT
ATOM      1  C   UNL     1       2.620   6.557  18.568  0.00  0.00    +0.000 A 
ATOM      2  N   UNL     1       2.401   6.532  19.872  0.00  0.00    +0.000 NA
ATOM      3  N   UNL     1       1.817   7.697  20.343  0.00  0.00    +0.000 NA
ATOM      4  C   UNL     1       1.611   8.562  19.371  0.00  0.00    +0.000 A 
ATOM      5  S   UNL     1       2.112   8.024  17.821  0.00  0.00    +0.000 S 
ENDROOT
BRANCH   1  12
ATOM      6  C   UNL     1       5.625   6.372  17.406  0.00  0.00    +0.000 C 
ATOM      7  O   UNL     1       5.154   7.307  16.759  0.00  0.00    +0.000 OA
ATOM      8  N   UNL     1       4.811   5.458  18.038  0.00  0.00    +0.000 N 
ATOM      9  C   UNL     1       5.218   4.261  18.755  0.00  0.00    +0.000 C 
ATOM     10  C   UNL     1       4.154   3.247  18.383  0.00  0.00    +0.000 C 
ATOM     11  C   UNL     1       2.883   4.081  18.263  0.00  0.00    +0.000 C 
ATOM     12  C   UNL     1       3.360   5.475  17.816  0.00  0.00    +0.000 C 
BRANCH   6  13
ATOM     13  C   UNL     1       7.128   6.127  17.471  0.00  0.00    +0.000 C 
BRANCH  13  14
ATOM     14  C   UNL     1       7.864   7.138  18.351  0.00  0.00    +0.000 C 
BRANCH  14  16
ATOM     15  C   UNL     1       8.705   9.510  18.532  0.00  0.00    +0.000 C 
ATOM     16  C   UNL     1       8.003   8.492  17.651  0.00  0.00    +0.000 C 
ENDBRANCH  14  16
ENDBRANCH  13  14
ENDBRANCH   6  13
ENDBRANCH   1  12
BRANCH   4  17
ATOM     17  C   UNL     1       1.051   9.894  19.554  0.00  0.00    +0.000 C 
ATOM     18  O   UNL     1       1.494  10.873  18.954  0.00  0.00    +0.000 OA
ATOM     19  N   UNL     1       0.019   9.969  20.490  0.00  0.00    +0.000 N 
ATOM     20  H   UNL     1      -0.164   9.117  21.011  0.00  0.00    +0.000 HD
BRANCH  19  21
ATOM     21  C   UNL     1      -0.672  11.143  20.882  0.00  0.00    +0.000 A 
ATOM     22  C   UNL     1      -1.588  11.802  20.038  0.00  0.00    +0.000 A 
ATOM     23  C   UNL     1      -2.206  13.000  20.417  0.00  0.00    +0.000 A 
ATOM     24  C   UNL     1      -1.889  13.519  21.647  0.00  0.00    +0.000 A 
ATOM     25  C   UNL     1      -1.025  12.871  22.497  0.00  0.00    +0.000 A 
ATOM     26  C   UNL     1      -0.417  11.673  22.155  0.00  0.00    +0.000 A 
ATOM     27  O   UNL     1      -0.847  13.558  23.660  0.00  0.00    +0.000 OA
ATOM     28  C   UNL     1      -1.629  14.746  23.399  0.00  0.00    +0.000 C 
ATOM     29  O   UNL     1      -2.361  14.685  22.159  0.00  0.00    +0.000 OA
ENDBRANCH  19  21
ENDBRANCH   4  17
TORSDOF 6
ENDMDL
