MODEL 1
REMARK VINA RESULT:      -6.9      0.000      0.000
REMARK  Name = 
REMARK  4 active torsions:
REMARK  status: ('A' for Active; 'I' for Inactive)
REMARK    1  A    between atoms: N_3  and  C_4
REMARK    2  A    between atoms: C_4  and  C_5
REMARK    3  A    between atoms: N_13  and  C_14
REMARK    4  A    between atoms: C_14  and  C_15
REMARK                            x       y       z     vdW  Elec       q    Type
REMARK                         _______ _______ _______ _____ _____    ______ ____
ROOT
ATOM      1  O   UNL     1       2.905   7.849  18.194  0.00  0.00    +0.000 OA
ATOM      2  C   UNL     1       2.636   7.048  19.076  0.00  0.00    +0.000 C 
ATOM      3  N   UNL     1       1.936   7.329  20.245  0.00  0.00    +0.000 N 
ATOM      4  C   UNL     1       1.436   6.116  20.836  0.00  0.00    +0.000 C 
ATOM      5  C   UNL     1       2.455   5.068  20.419  0.00  0.00    +0.000 C 
ATOM      6  C   UNL     1       2.984   5.564  19.058  0.00  0.00    +0.000 C 
ATOM      7  C   UNL     1       4.515   5.444  18.948  0.00  0.00    +0.000 C 
ATOM      8  C   UNL     1       4.977   4.039  18.568  0.00  0.00    +0.000 C 
ATOM      9  N   UNL     1       4.322   3.514  17.365  0.00  0.00    +0.000 NA
ATOM     10  C   UNL     1       2.865   3.491  17.571  0.00  0.00    +0.000 C 
ATOM     11  C   UNL     1       2.266   4.869  17.886  0.00  0.00    +0.000 C 
ENDROOT
BRANCH   3  12
ATOM     12  C   UNL     1       1.290   8.619  20.395  0.00  0.00    +0.000 C 
BRANCH  12  13
ATOM     13  C   UNL     1       0.279   8.655  21.500  0.00  0.00    +0.000 C 
ATOM     14  C   UNL     1       0.531   9.365  22.808  0.00  0.00    +0.000 C 
ATOM     15  C   UNL     1      -0.434   9.947  21.816  0.00  0.00    +0.000 C 
ENDBRANCH  12  13
ENDBRANCH   3  12
BRANCH   9  16
ATOM     16  C   UNL     1       4.667   4.235  16.128  0.00  0.00    +0.000 C 
BRANCH  16  17
ATOM     17  C   UNL     1       5.978   3.789  15.555  0.00  0.00    +0.000 C 
ATOM     18  C   UNL     1       6.249   4.009  14.085  0.00  0.00    +0.000 C 
ATOM     19  C   UNL     1       7.008   4.803  15.105  0.00  0.00    +0.000 C 
ENDBRANCH  16  17
ENDBRANCH   9  16
TORSDOF 4
ENDMDL
MODEL 2
REMARK VINA RESULT:      -6.8      3.329      5.060
REMARK  Name = 
REMARK  4 active torsions:
REMARK  status: ('A' for Active; 'I' for Inactive)
REMARK    1  A    between atoms: N_3  and  C_4
REMARK    2  A    between atoms: C_4  and  C_5
REMARK    3  A    between atoms: N_13  and  C_14
REMARK    4  A    between atoms: C_14  and  C_15
REMARK                            x       y       z     vdW  Elec       q    Type
REMARK                         _______ _______ _______ _____ _____    ______ ____
ROOT
ATOM      1  O   UNL     1       5.246   3.793  19.827  0.00  0.00    +0.000 OA
ATOM      2  C   UNL     1       4.653   3.733  18.760  0.00  0.00    +0.000 C 
ATOM      3  N   UNL     1       3.596   2.877  18.464  0.00  0.00    +0.000 N 
ATOM      4  C   UNL     1       2.875   3.350  17.311  0.00  0.00    +0.000 C 
ATOM      5  C   UNL     1       3.936   4.072  16.496  0.00  0.00    +0.000 C 
ATOM      6  C   UNL     1       4.930   4.611  17.545  0.00  0.00    +0.000 C 
ATOM      7  C   UNL     1       6.396   4.387  17.130  0.00  0.00    +0.000 C 
ATOM      8  C   UNL     1       6.909   5.448  16.161  0.00  0.00    +0.000 C 
ATOM      9  N   UNL     1       6.701   6.821  16.634  0.00  0.00    +0.000 NA
ATOM     10  C   UNL     1       5.266   7.049  16.863  0.00  0.00    +0.000 C 
ATOM     11  C   UNL     1       4.646   6.086  17.886  0.00  0.00    +0.000 C 
ENDROOT
BRANCH   3  12
ATOM     12  C   UNL     1       2.988   2.102  19.528  0.00  0.00    +0.000 C 
BRANCH  12  13
ATOM     13  C   UNL     1       1.741   2.724  20.080  0.00  0.00    +0.000 C 
ATOM     14  C   UNL     1       1.379   2.655  21.543  0.00  0.00    +0.000 C 
ATOM     15  C   UNL     1       1.843   3.953  20.949  0.00  0.00    +0.000 C 
ENDBRANCH  12  13
ENDBRANCH   3  12
BRANCH   9  16
ATOM     16  C   UNL     1       7.487   7.172  17.829  0.00  0.00    +0.000 C 
BRANCH  16  17
ATOM     17  C   UNL     1       8.353   8.376  17.610  0.00  0.00    +0.000 C 
ATOM     18  C   UNL     1       7.769   9.751  17.836  0.00  0.00    +0.000 C 
ATOM     19  C   UNL     1       8.807   9.222  18.779  0.00  0.00    +0.000 C 
ENDBRANCH  16  17
ENDBRANCH   9  16
TORSDOF 4
ENDMDL
MODEL 3
REMARK VINA RESULT:      -6.7      3.384      4.814
REMARK  Name = 
REMARK  4 active torsions:
REMARK  status: ('A' for Active; 'I' for Inactive)
REMARK    1  A    between atoms: N_3  and  C_4
REMARK    2  A    between atoms: C_4  and  C_5
REMARK    3  A    between atoms: N_13  and  C_14
REMARK    4  A    between atoms: C_14  and  C_15
REMARK                            x       y       z     vdW  Elec       q    Type
REMARK                         _______ _______ _______ _____ _____    ______ ____
ROOT
ATOM      1  O   UNL     1       3.394   5.679  19.662  0.00  0.00    +0.000 OA
ATOM      2  C   UNL     1       3.535   4.853  18.773  0.00  0.00    +0.000 C 
ATOM      3  N   UNL     1       2.716   3.751  18.547  0.00  0.00    +0.000 N 
ATOM      4  C   UNL     1       2.903   3.251  17.210  0.00  0.00    +0.000 C 
ATOM      5  C   UNL     1       4.349   3.598  16.897  0.00  0.00    +0.000 C 
ATOM      6  C   UNL     1       4.622   4.884  17.704  0.00  0.00    +0.000 C 
ATOM      7  C   UNL     1       5.984   4.845  18.421  0.00  0.00    +0.000 C 
ATOM      8  C   UNL     1       7.149   5.222  17.509  0.00  0.00    +0.000 C 
ATOM      9  N   UNL     1       6.957   6.499  16.814  0.00  0.00    +0.000 NA
ATOM     10  C   UNL     1       5.728   6.440  16.008  0.00  0.00    +0.000 C 
ATOM     11  C   UNL     1       4.466   6.143  16.831  0.00  0.00    +0.000 C 
ENDROOT
BRANCH   3  12
ATOM     12  C   UNL     1       1.473   3.625  19.284  0.00  0.00    +0.000 C 
BRANCH  12  13
ATOM     13  C   UNL     1       1.536   2.619  20.392  0.00  0.00    +0.000 C 
ATOM     14  C   UNL     1       2.765   2.428  21.246  0.00  0.00    +0.000 C 
ATOM     15  C   UNL     1       1.548   3.090  21.826  0.00  0.00    +0.000 C 
ENDBRANCH  12  13
ENDBRANCH   3  12
BRANCH   9  16
ATOM     16  C   UNL     1       6.946   7.673  17.704  0.00  0.00    +0.000 C 
BRANCH  16  17
ATOM     17  C   UNL     1       8.223   8.455  17.634  0.00  0.00    +0.000 C 
ATOM     18  C   UNL     1       8.178   9.953  17.829  0.00  0.00    +0.000 C 
ATOM     19  C   UNL     1       8.810   9.087  18.876  0.00  0.00    +0.000 C 
ENDBRANCH  16  17
ENDBRANCH   9  16
TORSDOF 4
ENDMDL
MODEL 4
REMARK VINA RESULT:      -6.7      3.281      4.704
REMARK  Name = 
REMARK  4 active torsions:
REMARK  status: ('A' for Active; 'I' for Inactive)
REMARK    1  A    between atoms: N_3  and  C_4
REMARK    2  A    between atoms: C_4  and  C_5
REMARK    3  A    between atoms: N_13  and  C_14
REMARK    4  A    between atoms: C_14  and  C_15
REMARK                            x       y       z     vdW  Elec       q    Type
REMARK                         _______ _______ _______ _____ _____    ______ ____
ROOT
ATOM      1  O   UNL     1       5.351   3.212  19.256  0.00  0.00    +0.000 OA
ATOM      2  C   UNL     1       4.368   3.334  18.540  0.00  0.00    +0.000 C 
ATOM      3  N   UNL     1       3.144   2.699  18.723  0.00  0.00    +0.000 N 
ATOM      4  C   UNL     1       2.112   3.374  17.981  0.00  0.00    +0.000 C 
ATOM      5  C   UNL     1       2.852   3.959  16.789  0.00  0.00    +0.000 C 
ATOM      6  C   UNL     1       4.275   4.239  17.317  0.00  0.00    +0.000 C 
ATOM      7  C   UNL     1       5.364   3.796  16.323  0.00  0.00    +0.000 C 
ATOM      8  C   UNL     1       5.617   4.821  15.220  0.00  0.00    +0.000 C 
ATOM      9  N   UNL     1       5.887   6.170  15.728  0.00  0.00    +0.000 NA
ATOM     10  C   UNL     1       4.749   6.625  16.542  0.00  0.00    +0.000 C 
ATOM     11  C   UNL     1       4.442   5.711  17.736  0.00  0.00    +0.000 C 
ENDROOT
BRANCH   3  12
ATOM     12  C   UNL     1       2.899   1.965  19.950  0.00  0.00    +0.000 C 
BRANCH  12  13
ATOM     13  C   UNL     1       2.631   2.847  21.130  0.00  0.00    +0.000 C 
ATOM     14  C   UNL     1       1.699   4.032  21.062  0.00  0.00    +0.000 C 
ATOM     15  C   UNL     1       1.284   2.796  21.808  0.00  0.00    +0.000 C 
ENDBRANCH  12  13
ENDBRANCH   3  12
BRANCH   9  16
ATOM     16  C   UNL     1       7.150   6.290  16.477  0.00  0.00    +0.000 C 
BRANCH  16  17
ATOM     17  C   UNL     1       7.066   7.302  17.580  0.00  0.00    +0.000 C 
ATOM     18  C   UNL     1       8.174   7.365  18.605  0.00  0.00    +0.000 C 
ATOM     19  C   UNL     1       8.013   8.481  17.618  0.00  0.00    +0.000 C 
ENDBRANCH  16  17
ENDBRANCH   9  16
TORSDOF 4
ENDMDL
MODEL 5
REMARK VINA RESULT:      -6.6      3.390      5.946
REMARK  Name = 
REMARK  4 active torsions:
REMARK  status: ('A' for Active; 'I' for Inactive)
REMARK    1  A    between atoms: N_3  and  C_4
REMARK    2  A    between atoms: C_4  and  C_5
REMARK    3  A    between atoms: N_13  and  C_14
REMARK    4  A    between atoms: C_14  and  C_15
REMARK                            x       y       z     vdW  Elec       q    Type
REMARK                         _______ _______ _______ _____ _____    ______ ____
ROOT
ATOM      1  O   UNL     1       4.872   5.492  19.792  0.00  0.00    +0.000 OA
ATOM      2  C   UNL     1       4.982   5.099  18.640  0.00  0.00    +0.000 C 
ATOM      3  N   UNL     1       6.091   5.279  17.821  0.00  0.00    +0.000 N 
ATOM      4  C   UNL     1       6.059   4.352  16.720  0.00  0.00    +0.000 C 
ATOM      5  C   UNL     1       4.575   4.125  16.486  0.00  0.00    +0.000 C 
ATOM      6  C   UNL     1       3.932   4.298  17.878  0.00  0.00    +0.000 C 
ATOM      7  C   UNL     1       2.646   5.141  17.827  0.00  0.00    +0.000 C 
ATOM      8  C   UNL     1       1.420   4.333  17.408  0.00  0.00    +0.000 C 
ATOM      9  N   UNL     1       1.220   3.118  18.207  0.00  0.00    +0.000 NA
ATOM     10  C   UNL     1       2.410   2.260  18.099  0.00  0.00    +0.000 C 
ATOM     11  C   UNL     1       3.704   2.939  18.567  0.00  0.00    +0.000 C 
ENDROOT
BRANCH   3  12
ATOM     12  C   UNL     1       7.317   5.809  18.388  0.00  0.00    +0.000 C 
BRANCH  12  13
ATOM     13  C   UNL     1       7.879   6.964  17.619  0.00  0.00    +0.000 C 
ATOM     14  C   UNL     1       7.125   8.258  17.431  0.00  0.00    +0.000 C 
ATOM     15  C   UNL     1       8.309   8.210  18.354  0.00  0.00    +0.000 C 
ENDBRANCH  12  13
ENDBRANCH   3  12
BRANCH   9  16
ATOM     16  C   UNL     1       0.883   3.374  19.617  0.00  0.00    +0.000 C 
BRANCH  16  17
ATOM     17  C   UNL     1       1.793   2.649  20.562  0.00  0.00    +0.000 C 
ATOM     18  C   UNL     1       2.390   3.401  21.729  0.00  0.00    +0.000 C 
ATOM     19  C   UNL     1       1.353   2.348  21.978  0.00  0.00    +0.000 C 
ENDBRANCH  16  17
ENDBRANCH   9  16
TORSDOF 4
ENDMDL
MODEL 6
REMARK VINA RESULT:      -6.6      3.322      5.870
REMARK  Name = 
REMARK  4 active torsions:
REMARK  status: ('A' for Active; 'I' for Inactive)
REMARK    1  A    between atoms: N_3  and  C_4
REMARK    2  A    between atoms: C_4  and  C_5
REMARK    3  A    between atoms: N_13  and  C_14
REMARK    4  A    between atoms: C_14  and  C_15
REMARK                            x       y       z     vdW  Elec       q    Type
REMARK                         _______ _______ _______ _____ _____    ______ ____
ROOT
ATOM      1  O   UNL     1       5.835   4.976  19.738  0.00  0.00    +0.000 OA
ATOM      2  C   UNL     1       5.570   5.415  18.629  0.00  0.00    +0.000 C 
ATOM      3  N   UNL     1       6.349   6.305  17.897  0.00  0.00    +0.000 N 
ATOM      4  C   UNL     1       5.974   6.277  16.508  0.00  0.00    +0.000 C 
ATOM      5  C   UNL     1       4.497   5.918  16.542  0.00  0.00    +0.000 C 
ATOM      6  C   UNL     1       4.341   5.045  17.805  0.00  0.00    +0.000 C 
ATOM      7  C   UNL     1       3.095   5.424  18.627  0.00  0.00    +0.000 C 
ATOM      8  C   UNL     1       1.812   4.798  18.087  0.00  0.00    +0.000 C 
ATOM      9  N   UNL     1       1.902   3.344  17.909  0.00  0.00    +0.000 NA
ATOM     10  C   UNL     1       3.003   3.030  16.987  0.00  0.00    +0.000 C 
ATOM     11  C   UNL     1       4.370   3.544  17.461  0.00  0.00    +0.000 C 
ENDROOT
BRANCH   3  12
ATOM     12  C   UNL     1       7.684   6.630  18.361  0.00  0.00    +0.000 C 
BRANCH  12  13
ATOM     13  C   UNL     1       8.247   7.869  17.736  0.00  0.00    +0.000 C 
ATOM     14  C   UNL     1       7.509   9.186  17.738  0.00  0.00    +0.000 C 
ATOM     15  C   UNL     1       8.712   9.003  18.618  0.00  0.00    +0.000 C 
ENDBRANCH  12  13
ENDBRANCH   3  12
BRANCH   9  16
ATOM     16  C   UNL     1       2.039   2.592  19.168  0.00  0.00    +0.000 C 
BRANCH  16  17
ATOM     17  C   UNL     1       1.350   3.268  20.315  0.00  0.00    +0.000 C 
ATOM     18  C   UNL     1       1.296   2.569  21.654  0.00  0.00    +0.000 C 
ATOM     19  C   UNL     1       2.144   3.794  21.490  0.00  0.00    +0.000 C 
ENDBRANCH  16  17
ENDBRANCH   9  16
TORSDOF 4
ENDMDL
MODEL 7
REMARK VINA RESULT:      -6.6      3.218      4.281
REMARK  Name = 
REMARK  4 active torsions:
REMARK  status: ('A' for Active; 'I' for Inactive)
REMARK    1  A    between atoms: N_3  and  C_4
REMARK    2  A    between atoms: C_4  and  C_5
REMARK    3  A    between atoms: N_13  and  C_14
REMARK    4  A    between atoms: C_14  and  C_15
REMARK                            x       y       z     vdW  Elec       q    Type
REMARK                         _______ _______ _______ _____ _____    ______ ____
ROOT
ATOM      1  O   UNL     1       2.599   3.155  16.658  0.00  0.00    +0.000 OA
ATOM      2  C   UNL     1       3.366   3.409  17.575  0.00  0.00    +0.000 C 
ATOM      3  N   UNL     1       3.192   3.046  18.907  0.00  0.00    +0.000 N 
ATOM      4  C   UNL     1       4.442   3.122  19.616  0.00  0.00    +0.000 C 
ATOM      5  C   UNL     1       5.198   4.224  18.892  0.00  0.00    +0.000 C 
ATOM      6  C   UNL     1       4.691   4.150  17.437  0.00  0.00    +0.000 C 
ATOM      7  C   UNL     1       4.392   5.541  16.851  0.00  0.00    +0.000 C 
ATOM      8  C   UNL     1       5.640   6.252  16.335  0.00  0.00    +0.000 C 
ATOM      9  N   UNL     1       6.426   5.445  15.395  0.00  0.00    +0.000 NA
ATOM     10  C   UNL     1       6.834   4.192  16.048  0.00  0.00    +0.000 C 
ATOM     11  C   UNL     1       5.654   3.344  16.545  0.00  0.00    +0.000 C 
ENDROOT
BRANCH   3  12
ATOM     12  C   UNL     1       2.123   2.131  19.261  0.00  0.00    +0.000 C 
BRANCH  12  13
ATOM     13  C   UNL     1       1.083   2.745  20.147  0.00  0.00    +0.000 C 
ATOM     14  C   UNL     1       1.292   2.940  21.629  0.00  0.00    +0.000 C 
ATOM     15  C   UNL     1       1.305   4.128  20.710  0.00  0.00    +0.000 C 
ENDBRANCH  12  13
ENDBRANCH   3  12
BRANCH   9  16
ATOM     16  C   UNL     1       5.745   5.175  14.118  0.00  0.00    +0.000 C 
BRANCH  16  17
ATOM     17  C   UNL     1       6.233   3.917  13.465  0.00  0.00    +0.000 C 
ATOM     18  C   UNL     1       5.488   3.373  12.269  0.00  0.00    +0.000 C 
ATOM     19  C   UNL     1       6.857   3.955  12.087  0.00  0.00    +0.000 C 
ENDBRANCH  16  17
ENDBRANCH   9  16
TORSDOF 4
ENDMDL
MODEL 8
REMARK VINA RESULT:      -6.5      3.433      4.478
REMARK  Name = 
REMARK  4 active torsions:
REMARK  status: ('A' for Active; 'I' for Inactive)
REMARK    1  A    between atoms: N_3  and  C_4
REMARK    2  A    between atoms: C_4  and  C_5
REMARK    3  A    between atoms: N_13  and  C_14
REMARK    4  A    between atoms: C_14  and  C_15
REMARK                            x       y       z     vdW  Elec       q    Type
REMARK                         _______ _______ _______ _____ _____    ______ ____
ROOT
ATOM      1  O   UNL     1       4.273   2.333  17.630  0.00  0.00    +0.000 OA
ATOM      2  C   UNL     1       4.242   3.414  18.200  0.00  0.00    +0.000 C 
ATOM      3  N   UNL     1       3.584   3.685  19.395  0.00  0.00    +0.000 N 
ATOM      4  C   UNL     1       4.093   4.896  19.985  0.00  0.00    +0.000 C 
ATOM      5  C   UNL     1       4.531   5.722  18.787  0.00  0.00    +0.000 C 
ATOM      6  C   UNL     1       4.952   4.679  17.731  0.00  0.00    +0.000 C 
ATOM      7  C   UNL     1       4.420   5.022  16.328  0.00  0.00    +0.000 C 
ATOM      8  C   UNL     1       5.283   6.047  15.597  0.00  0.00    +0.000 C 
ATOM      9  N   UNL     1       6.704   5.685  15.546  0.00  0.00    +0.000 NA
ATOM     10  C   UNL     1       7.219   5.526  16.915  0.00  0.00    +0.000 C 
ATOM     11  C   UNL     1       6.477   4.459  17.732  0.00  0.00    +0.000 C 
ENDROOT
BRANCH   3  12
ATOM     12  C   UNL     1       3.027   2.590  20.165  0.00  0.00    +0.000 C 
BRANCH  12  13
ATOM     13  C   UNL     1       1.531   2.613  20.237  0.00  0.00    +0.000 C 
ATOM     14  C   UNL     1       0.700   3.659  19.535  0.00  0.00    +0.000 C 
ATOM     15  C   UNL     1       0.721   2.250  19.016  0.00  0.00    +0.000 C 
ENDBRANCH  12  13
ENDBRANCH   3  12
BRANCH   9  16
ATOM     16  C   UNL     1       6.991   4.491  14.734  0.00  0.00    +0.000 C 
BRANCH  16  17
ATOM     17  C   UNL     1       6.399   4.579  13.360  0.00  0.00    +0.000 C 
ATOM     18  C   UNL     1       6.919   3.662  12.276  0.00  0.00    +0.000 C 
ATOM     19  C   UNL     1       5.536   3.461  12.818  0.00  0.00    +0.000 C 
ENDBRANCH  16  17
ENDBRANCH   9  16
TORSDOF 4
ENDMDL
MODEL 9
REMARK VINA RESULT:      -6.5      3.042      4.079
REMARK  Name = 
REMARK  4 active torsions:
REMARK  status: ('A' for Active; 'I' for Inactive)
REMARK    1  A    between atoms: N_3  and  C_4
REMARK    2  A    between atoms: C_4  and  C_5
REMARK    3  A    between atoms: N_13  and  C_14
REMARK    4  A    between atoms: C_14  and  C_15
REMARK                            x       y       z     vdW  Elec       q    Type
REMARK                         _______ _______ _______ _____ _____    ______ ____
ROOT
ATOM      1  O   UNL     1       2.937   3.379  17.137  0.00  0.00    +0.000 OA
ATOM      2  C   UNL     1       3.399   4.308  17.783  0.00  0.00    +0.000 C 
ATOM      3  N   UNL     1       2.837   4.862  18.929  0.00  0.00    +0.000 N 
ATOM      4  C   UNL     1       3.822   5.620  19.656  0.00  0.00    +0.000 C 
ATOM      5  C   UNL     1       4.764   6.117  18.571  0.00  0.00    +0.000 C 
ATOM      6  C   UNL     1       4.710   5.026  17.482  0.00  0.00    +0.000 C 
ATOM      7  C   UNL     1       4.603   5.619  16.066  0.00  0.00    +0.000 C 
ATOM      8  C   UNL     1       5.952   6.057  15.500  0.00  0.00    +0.000 C 
ATOM      9  N   UNL     1       6.977   5.009  15.554  0.00  0.00    +0.000 NA
ATOM     10  C   UNL     1       7.167   4.581  16.949  0.00  0.00    +0.000 C 
ATOM     11  C   UNL     1       5.890   4.043  17.608  0.00  0.00    +0.000 C 
ENDROOT
BRANCH   3  12
ATOM     12  C   UNL     1       1.707   4.205  19.558  0.00  0.00    +0.000 C 
BRANCH  12  13
ATOM     13  C   UNL     1       1.941   3.866  20.997  0.00  0.00    +0.000 C 
ATOM     14  C   UNL     1       1.271   2.695  21.675  0.00  0.00    +0.000 C 
ATOM     15  C   UNL     1       2.736   2.633  21.353  0.00  0.00    +0.000 C 
ENDBRANCH  12  13
ENDBRANCH   3  12
BRANCH   9  16
ATOM     16  C   UNL     1       6.702   3.853  14.683  0.00  0.00    +0.000 C 
BRANCH  16  17
ATOM     17  C   UNL     1       6.240   4.265  13.318  0.00  0.00    +0.000 C 
ATOM     18  C   UNL     1       7.057   3.859  12.113  0.00  0.00    +0.000 C 
ATOM     19  C   UNL     1       5.712   3.239  12.340  0.00  0.00    +0.000 C 
ENDBRANCH  16  17
ENDBRANCH   9  16
TORSDOF 4
ENDMDL
