MODEL 1
REMARK VINA RESULT:      -7.4      0.000      0.000
REMARK  Name = 
REMARK  7 active torsions:
REMARK  status: ('A' for Active; 'I' for Inactive)
REMARK    1  A    between atoms: C_1  and  O_2
REMARK    2  A    between atoms: O_2  and  C_3
REMARK    3  A    between atoms: C_5  and  O_6
REMARK    4  A    between atoms: C_7  and  C_8
REMARK    5  A    between atoms: C_8  and  O_10
REMARK    6  A    between atoms: C_11  and  C_12
REMARK    7  A    between atoms: C_13  and  C_14
REMARK                            x       y       z     vdW  Elec       q    Type
REMARK                         _______ _______ _______ _____ _____    ______ ____
ROOT
ATOM      1  C   UNL     1       2.648   6.473  19.051  0.00  0.00    +0.000 A 
ATOM      2  C   UNL     1       2.360   5.596  20.094  0.00  0.00    +0.000 A 
ATOM      3  C   UNL     1       2.815   4.276  20.048  0.00  0.00    +0.000 A 
ATOM      4  C   UNL     1       3.558   3.792  18.953  0.00  0.00    +0.000 A 
ATOM      5  C   UNL     1       3.852   4.687  17.900  0.00  0.00    +0.000 A 
ATOM      6  C   UNL     1       3.398   6.020  17.967  0.00  0.00    +0.000 A 
ENDROOT
BRANCH   1   8
ATOM      7  C   UNL     1       2.147   8.573  18.056  0.00  0.00    +0.000 C 
ATOM      8  O   UNL     1       2.130   7.729  19.202  0.00  0.00    +0.000 OA
ENDBRANCH   1   8
BRANCH   3   9
ATOM      9  O   UNL     1       2.509   3.446  21.100  0.00  0.00    +0.000 OA
ATOM     10  H   UNL     1       2.003   2.681  20.762  0.00  0.00    +0.000 HD
ENDBRANCH   3   9
BRANCH   4  11
ATOM     11  C   UNL     1       3.969   2.351  18.874  0.00  0.00    +0.000 C 
ATOM     12  O   UNL     1       3.430   1.525  18.154  0.00  0.00    +0.000 OA
BRANCH  11  13
ATOM     13  O   UNL     1       5.015   2.012  19.661  0.00  0.00    +0.000 OA
ATOM     14  H   UNL     1       5.500   1.228  19.323  0.00  0.00    +0.000 HD
ENDBRANCH  11  13
ENDBRANCH   4  11
BRANCH   5  15
ATOM     15  C   UNL     1       4.535   4.326  16.644  0.00  0.00    +0.000 C 
ATOM     16  C   UNL     1       5.309   5.145  15.915  0.00  0.00    +0.000 C 
BRANCH  16  17
ATOM     17  C   UNL     1       5.901   4.733  14.625  0.00  0.00    +0.000 A 
ATOM     18  C   UNL     1       7.141   5.255  14.228  0.00  0.00    +0.000 A 
ATOM     19  C   UNL     1       7.717   4.886  13.006  0.00  0.00    +0.000 A 
ATOM     20  C   UNL     1       7.063   3.987  12.166  0.00  0.00    +0.000 A 
ATOM     21  C   UNL     1       5.841   3.446  12.553  0.00  0.00    +0.000 A 
ATOM     22  C   UNL     1       5.273   3.808  13.777  0.00  0.00    +0.000 A 
ENDBRANCH  16  17
ENDBRANCH   5  15
TORSDOF 6
ENDMDL
MODEL 2
REMARK VINA RESULT:      -7.4      0.075      1.078
REMARK  Name = 
REMARK  7 active torsions:
REMARK  status: ('A' for Active; 'I' for Inactive)
REMARK    1  A    between atoms: C_1  and  O_2
REMARK    2  A    between atoms: O_2  and  C_3
REMARK    3  A    between atoms: C_5  and  O_6
REMARK    4  A    between atoms: C_7  and  C_8
REMARK    5  A    between atoms: C_8  and  O_10
REMARK    6  A    between atoms: C_11  and  C_12
REMARK    7  A    between atoms: C_13  and  C_14
REMARK                            x       y       z     vdW  Elec       q    Type
REMARK                         _______ _______ _______ _____ _____    ______ ____
ROOT
ATOM      1  C   UNL     1       2.689   6.436  19.057  0.00  0.00    +0.000 A 
ATOM      2  C   UNL     1       2.374   5.552  20.086  0.00  0.00    +0.000 A 
ATOM      3  C   UNL     1       2.820   4.229  20.038  0.00  0.00    +0.000 A 
ATOM      4  C   UNL     1       3.581   3.749  18.953  0.00  0.00    +0.000 A 
ATOM      5  C   UNL     1       3.903   4.651  17.915  0.00  0.00    +0.000 A 
ATOM      6  C   UNL     1       3.457   5.988  17.985  0.00  0.00    +0.000 A 
ENDROOT
BRANCH   1   8
ATOM      7  C   UNL     1       2.220   8.548  18.070  0.00  0.00    +0.000 C 
ATOM      8  O   UNL     1       2.177   7.695  19.209  0.00  0.00    +0.000 OA
ENDBRANCH   1   8
BRANCH   3   9
ATOM      9  O   UNL     1       2.487   3.393  21.077  0.00  0.00    +0.000 OA
ATOM     10  H   UNL     1       2.079   2.584  20.711  0.00  0.00    +0.000 HD
ENDBRANCH   3   9
BRANCH   4  11
ATOM     11  C   UNL     1       3.984   2.306  18.870  0.00  0.00    +0.000 C 
ATOM     12  O   UNL     1       3.472   1.497  18.112  0.00  0.00    +0.000 OA
BRANCH  11  13
ATOM     13  O   UNL     1       4.988   1.945  19.700  0.00  0.00    +0.000 OA
ATOM     14  H   UNL     1       5.078   2.552  20.466  0.00  0.00    +0.000 HD
ENDBRANCH  11  13
ENDBRANCH   4  11
BRANCH   5  15
ATOM     15  C   UNL     1       4.608   4.296  16.670  0.00  0.00    +0.000 C 
ATOM     16  C   UNL     1       5.238   5.160  15.858  0.00  0.00    +0.000 C 
BRANCH  16  17
ATOM     17  C   UNL     1       5.860   4.738  14.586  0.00  0.00    +0.000 A 
ATOM     18  C   UNL     1       5.181   3.852  13.736  0.00  0.00    +0.000 A 
ATOM     19  C   UNL     1       5.756   3.431  12.530  0.00  0.00    +0.000 A 
ATOM     20  C   UNL     1       7.014   3.894  12.154  0.00  0.00    +0.000 A 
ATOM     21  C   UNL     1       7.694   4.787  12.977  0.00  0.00    +0.000 A 
ATOM     22  C   UNL     1       7.115   5.213  14.175  0.00  0.00    +0.000 A 
ENDBRANCH  16  17
ENDBRANCH   5  15
TORSDOF 6
ENDMDL
MODEL 3
REMARK VINA RESULT:      -7.2      3.089      6.889
REMARK  Name = 
REMARK  7 active torsions:
REMARK  status: ('A' for Active; 'I' for Inactive)
REMARK    1  A    between atoms: C_1  and  O_2
REMARK    2  A    between atoms: O_2  and  C_3
REMARK    3  A    between atoms: C_5  and  O_6
REMARK    4  A    between atoms: C_7  and  C_8
REMARK    5  A    between atoms: C_8  and  O_10
REMARK    6  A    between atoms: C_11  and  C_12
REMARK    7  A    between atoms: C_13  and  C_14
REMARK                            x       y       z     vdW  Elec       q    Type
REMARK                         _______ _______ _______ _____ _____    ______ ____
ROOT
ATOM      1  C   UNL     1       5.732   3.512  13.047  0.00  0.00    +0.000 A 
ATOM      2  C   UNL     1       6.864   4.314  12.932  0.00  0.00    +0.000 A 
ATOM      3  C   UNL     1       7.344   5.016  14.041  0.00  0.00    +0.000 A 
ATOM      4  C   UNL     1       6.698   4.946  15.291  0.00  0.00    +0.000 A 
ATOM      5  C   UNL     1       5.554   4.126  15.404  0.00  0.00    +0.000 A 
ATOM      6  C   UNL     1       5.089   3.413  14.280  0.00  0.00    +0.000 A 
ENDROOT
BRANCH   1   8
ATOM      7  C   UNL     1       4.087   3.269  11.348  0.00  0.00    +0.000 C 
ATOM      8  O   UNL     1       5.349   2.895  11.889  0.00  0.00    +0.000 OA
ENDBRANCH   1   8
BRANCH   3   9
ATOM      9  O   UNL     1       8.466   5.794  13.881  0.00  0.00    +0.000 OA
ATOM     10  H   UNL     1       9.254   5.260  14.106  0.00  0.00    +0.000 HD
ENDBRANCH   3   9
BRANCH   4  11
ATOM     11  C   UNL     1       7.172   5.769  16.453  0.00  0.00    +0.000 C 
ATOM     12  O   UNL     1       7.028   6.978  16.538  0.00  0.00    +0.000 OA
BRANCH  11  13
ATOM     13  O   UNL     1       7.775   5.068  17.440  0.00  0.00    +0.000 OA
ATOM     14  H   UNL     1       7.867   5.589  18.267  0.00  0.00    +0.000 HD
ENDBRANCH  11  13
ENDBRANCH   4  11
BRANCH   5  15
ATOM     15  C   UNL     1       4.707   4.010  16.606  0.00  0.00    +0.000 C 
ATOM     16  C   UNL     1       3.367   3.932  16.610  0.00  0.00    +0.000 C 
BRANCH  16  17
ATOM     17  C   UNL     1       2.582   3.892  17.862  0.00  0.00    +0.000 A 
ATOM     18  C   UNL     1       2.642   4.970  18.758  0.00  0.00    +0.000 A 
ATOM     19  C   UNL     1       1.914   4.950  19.954  0.00  0.00    +0.000 A 
ATOM     20  C   UNL     1       1.112   3.855  20.269  0.00  0.00    +0.000 A 
ATOM     21  C   UNL     1       1.028   2.786  19.382  0.00  0.00    +0.000 A 
ATOM     22  C   UNL     1       1.747   2.811  18.186  0.00  0.00    +0.000 A 
ENDBRANCH  16  17
ENDBRANCH   5  15
TORSDOF 6
ENDMDL
MODEL 4
REMARK VINA RESULT:      -7.2      2.693      6.727
REMARK  Name = 
REMARK  7 active torsions:
REMARK  status: ('A' for Active; 'I' for Inactive)
REMARK    1  A    between atoms: C_1  and  O_2
REMARK    2  A    between atoms: O_2  and  C_3
REMARK    3  A    between atoms: C_5  and  O_6
REMARK    4  A    between atoms: C_7  and  C_8
REMARK    5  A    between atoms: C_8  and  O_10
REMARK    6  A    between atoms: C_11  and  C_12
REMARK    7  A    between atoms: C_13  and  C_14
REMARK                            x       y       z     vdW  Elec       q    Type
REMARK                         _______ _______ _______ _____ _____    ______ ____
ROOT
ATOM      1  C   UNL     1       5.610   4.558  14.793  0.00  0.00    +0.000 A 
ATOM      2  C   UNL     1       6.787   4.074  15.357  0.00  0.00    +0.000 A 
ATOM      3  C   UNL     1       7.174   4.481  16.637  0.00  0.00    +0.000 A 
ATOM      4  C   UNL     1       6.401   5.394  17.382  0.00  0.00    +0.000 A 
ATOM      5  C   UNL     1       5.205   5.878  16.808  0.00  0.00    +0.000 A 
ATOM      6  C   UNL     1       4.821   5.447  15.521  0.00  0.00    +0.000 A 
ENDROOT
BRANCH   1   8
ATOM      7  C   UNL     1       6.465   3.629  12.778  0.00  0.00    +0.000 C 
ATOM      8  O   UNL     1       5.353   4.103  13.530  0.00  0.00    +0.000 OA
ENDBRANCH   1   8
BRANCH   3   9
ATOM      9  O   UNL     1       8.342   3.975  17.155  0.00  0.00    +0.000 OA
ATOM     10  H   UNL     1       8.946   4.717  17.352  0.00  0.00    +0.000 HD
ENDBRANCH   3   9
BRANCH   4  11
ATOM     11  C   UNL     1       6.867   5.889  18.720  0.00  0.00    +0.000 C 
ATOM     12  O   UNL     1       6.389   5.531  19.785  0.00  0.00    +0.000 OA
BRANCH  11  13
ATOM     13  O   UNL     1       7.889   6.774  18.677  0.00  0.00    +0.000 OA
ATOM     14  H   UNL     1       7.673   7.618  19.128  0.00  0.00    +0.000 HD
ENDBRANCH  11  13
ENDBRANCH   4  11
BRANCH   5  15
ATOM     15  C   UNL     1       4.329   6.902  17.406  0.00  0.00    +0.000 C 
ATOM     16  C   UNL     1       3.246   6.657  18.159  0.00  0.00    +0.000 C 
BRANCH  16  17
ATOM     17  C   UNL     1       2.373   7.738  18.664  0.00  0.00    +0.000 A 
ATOM     18  C   UNL     1       1.944   7.723  20.000  0.00  0.00    +0.000 A 
ATOM     19  C   UNL     1       1.109   8.731  20.497  0.00  0.00    +0.000 A 
ATOM     20  C   UNL     1       0.695   9.771  19.668  0.00  0.00    +0.000 A 
ATOM     21  C   UNL     1       1.126   9.811  18.346  0.00  0.00    +0.000 A 
ATOM     22  C   UNL     1       1.966   8.810  17.854  0.00  0.00    +0.000 A 
ENDBRANCH  16  17
ENDBRANCH   5  15
TORSDOF 6
ENDMDL
MODEL 5
REMARK VINA RESULT:      -7.2      3.052      6.977
REMARK  Name = 
REMARK  7 active torsions:
REMARK  status: ('A' for Active; 'I' for Inactive)
REMARK    1  A    between atoms: C_1  and  O_2
REMARK    2  A    between atoms: O_2  and  C_3
REMARK    3  A    between atoms: C_5  and  O_6
REMARK    4  A    between atoms: C_7  and  C_8
REMARK    5  A    between atoms: C_8  and  O_10
REMARK    6  A    between atoms: C_11  and  C_12
REMARK    7  A    between atoms: C_13  and  C_14
REMARK                            x       y       z     vdW  Elec       q    Type
REMARK                         _______ _______ _______ _____ _____    ______ ____
ROOT
ATOM      1  C   UNL     1       5.742   3.617  13.085  0.00  0.00    +0.000 A 
ATOM      2  C   UNL     1       6.923   4.351  13.017  0.00  0.00    +0.000 A 
ATOM      3  C   UNL     1       7.356   5.092  14.120  0.00  0.00    +0.000 A 
ATOM      4  C   UNL     1       6.613   5.129  15.317  0.00  0.00    +0.000 A 
ATOM      5  C   UNL     1       5.419   4.378  15.383  0.00  0.00    +0.000 A 
ATOM      6  C   UNL     1       5.002   3.624  14.266  0.00  0.00    +0.000 A 
ENDROOT
BRANCH   1   8
ATOM      7  C   UNL     1       4.146   3.247  11.362  0.00  0.00    +0.000 C 
ATOM      8  O   UNL     1       5.415   2.952  11.936  0.00  0.00    +0.000 OA
ENDBRANCH   1   8
BRANCH   3   9
ATOM      9  O   UNL     1       8.529   5.799  14.008  0.00  0.00    +0.000 OA
ATOM     10  H   UNL     1       8.325   6.695  13.675  0.00  0.00    +0.000 HD
ENDBRANCH   3   9
BRANCH   4  11
ATOM     11  C   UNL     1       7.042   5.994  16.466  0.00  0.00    +0.000 C 
ATOM     12  O   UNL     1       6.834   7.195  16.531  0.00  0.00    +0.000 OA
BRANCH  11  13
ATOM     13  O   UNL     1       7.681   5.342  17.463  0.00  0.00    +0.000 OA
ATOM     14  H   UNL     1       7.827   4.393  17.257  0.00  0.00    +0.000 HD
ENDBRANCH  11  13
ENDBRANCH   4  11
BRANCH   5  15
ATOM     15  C   UNL     1       4.478   4.377  16.518  0.00  0.00    +0.000 C 
ATOM     16  C   UNL     1       4.090   3.294  17.208  0.00  0.00    +0.000 C 
BRANCH  16  17
ATOM     17  C   UNL     1       3.084   3.362  18.289  0.00  0.00    +0.000 A 
ATOM     18  C   UNL     1       1.906   2.606  18.195  0.00  0.00    +0.000 A 
ATOM     19  C   UNL     1       0.934   2.664  19.201  0.00  0.00    +0.000 A 
ATOM     20  C   UNL     1       1.129   3.472  20.319  0.00  0.00    +0.000 A 
ATOM     21  C   UNL     1       2.300   4.215  20.436  0.00  0.00    +0.000 A 
ATOM     22  C   UNL     1       3.272   4.150  19.435  0.00  0.00    +0.000 A 
ENDBRANCH  16  17
ENDBRANCH   5  15
TORSDOF 6
ENDMDL
MODEL 6
REMARK VINA RESULT:      -7.1      2.647      6.654
REMARK  Name = 
REMARK  7 active torsions:
REMARK  status: ('A' for Active; 'I' for Inactive)
REMARK    1  A    between atoms: C_1  and  O_2
REMARK    2  A    between atoms: O_2  and  C_3
REMARK    3  A    between atoms: C_5  and  O_6
REMARK    4  A    between atoms: C_7  and  C_8
REMARK    5  A    between atoms: C_8  and  O_10
REMARK    6  A    between atoms: C_11  and  C_12
REMARK    7  A    between atoms: C_13  and  C_14
REMARK                            x       y       z     vdW  Elec       q    Type
REMARK                         _______ _______ _______ _____ _____    ______ ____
ROOT
ATOM      1  C   UNL     1       5.855   6.310  16.921  0.00  0.00    +0.000 A 
ATOM      2  C   UNL     1       5.803   4.926  16.778  0.00  0.00    +0.000 A 
ATOM      3  C   UNL     1       4.642   4.227  17.120  0.00  0.00    +0.000 A 
ATOM      4  C   UNL     1       3.507   4.891  17.626  0.00  0.00    +0.000 A 
ATOM      5  C   UNL     1       3.563   6.296  17.764  0.00  0.00    +0.000 A 
ATOM      6  C   UNL     1       4.737   6.989  17.402  0.00  0.00    +0.000 A 
ENDROOT
BRANCH   1   8
ATOM      7  C   UNL     1       7.672   7.712  17.544  0.00  0.00    +0.000 C 
ATOM      8  O   UNL     1       7.051   6.876  16.574  0.00  0.00    +0.000 OA
ENDBRANCH   1   8
BRANCH   3   9
ATOM      9  O   UNL     1       4.635   2.862  16.960  0.00  0.00    +0.000 OA
ATOM     10  H   UNL     1       5.553   2.532  17.029  0.00  0.00    +0.000 HD
ENDBRANCH   3   9
BRANCH   4  11
ATOM     11  C   UNL     1       2.296   4.123  18.069  0.00  0.00    +0.000 C 
ATOM     12  O   UNL     1       1.250   4.077  17.442  0.00  0.00    +0.000 OA
BRANCH  11  13
ATOM     13  O   UNL     1       2.441   3.452  19.234  0.00  0.00    +0.000 OA
ATOM     14  H   UNL     1       1.588   3.108  19.576  0.00  0.00    +0.000 HD
ENDBRANCH  11  13
ENDBRANCH   4  11
BRANCH   5  15
ATOM     15  C   UNL     1       2.507   7.134  18.360  0.00  0.00    +0.000 C 
ATOM     16  C   UNL     1       2.164   8.364  17.950  0.00  0.00    +0.000 C 
BRANCH  16  17
ATOM     17  C   UNL     1       1.142   9.174  18.646  0.00  0.00    +0.000 A 
ATOM     18  C   UNL     1       0.202   9.902  17.902  0.00  0.00    +0.000 A 
ATOM     19  C   UNL     1      -0.769  10.684  18.540  0.00  0.00    +0.000 A 
ATOM     20  C   UNL     1      -0.816  10.745  19.931  0.00  0.00    +0.000 A 
ATOM     21  C   UNL     1       0.098  10.015  20.684  0.00  0.00    +0.000 A 
ATOM     22  C   UNL     1       1.060   9.229  20.046  0.00  0.00    +0.000 A 
ENDBRANCH  16  17
ENDBRANCH   5  15
TORSDOF 6
ENDMDL
MODEL 7
REMARK VINA RESULT:      -7.1      2.660      6.700
REMARK  Name = 
REMARK  7 active torsions:
REMARK  status: ('A' for Active; 'I' for Inactive)
REMARK    1  A    between atoms: C_1  and  O_2
REMARK    2  A    between atoms: O_2  and  C_3
REMARK    3  A    between atoms: C_5  and  O_6
REMARK    4  A    between atoms: C_7  and  C_8
REMARK    5  A    between atoms: C_8  and  O_10
REMARK    6  A    between atoms: C_11  and  C_12
REMARK    7  A    between atoms: C_13  and  C_14
REMARK                            x       y       z     vdW  Elec       q    Type
REMARK                         _______ _______ _______ _____ _____    ______ ____
ROOT
ATOM      1  C   UNL     1       5.629   4.492  14.808  0.00  0.00    +0.000 A 
ATOM      2  C   UNL     1       6.813   4.028  15.375  0.00  0.00    +0.000 A 
ATOM      3  C   UNL     1       7.206   4.468  16.642  0.00  0.00    +0.000 A 
ATOM      4  C   UNL     1       6.432   5.395  17.370  0.00  0.00    +0.000 A 
ATOM      5  C   UNL     1       5.229   5.858  16.793  0.00  0.00    +0.000 A 
ATOM      6  C   UNL     1       4.840   5.394  15.519  0.00  0.00    +0.000 A 
ENDROOT
BRANCH   1   8
ATOM      7  C   UNL     1       6.477   3.847  12.682  0.00  0.00    +0.000 C 
ATOM      8  O   UNL     1       5.366   4.005  13.558  0.00  0.00    +0.000 OA
ENDBRANCH   1   8
BRANCH   3   9
ATOM      9  O   UNL     1       8.380   3.982  17.164  0.00  0.00    +0.000 OA
ATOM     10  H   UNL     1       8.923   4.734  17.473  0.00  0.00    +0.000 HD
ENDBRANCH   3   9
BRANCH   4  11
ATOM     11  C   UNL     1       6.904   5.925  18.692  0.00  0.00    +0.000 C 
ATOM     12  O   UNL     1       7.831   6.709  18.822  0.00  0.00    +0.000 OA
BRANCH  11  13
ATOM     13  O   UNL     1       6.211   5.481  19.765  0.00  0.00    +0.000 OA
ATOM     14  H   UNL     1       6.798   5.142  20.476  0.00  0.00    +0.000 HD
ENDBRANCH  11  13
ENDBRANCH   4  11
BRANCH   5  15
ATOM     15  C   UNL     1       4.352   6.891  17.372  0.00  0.00    +0.000 C 
ATOM     16  C   UNL     1       3.292   6.660  18.161  0.00  0.00    +0.000 C 
BRANCH  16  17
ATOM     17  C   UNL     1       2.414   7.746  18.645  0.00  0.00    +0.000 A 
ATOM     18  C   UNL     1       2.030   8.774  17.771  0.00  0.00    +0.000 A 
ATOM     19  C   UNL     1       1.207   9.820  18.209  0.00  0.00    +0.000 A 
ATOM     20  C   UNL     1       0.752   9.848  19.526  0.00  0.00    +0.000 A 
ATOM     21  C   UNL     1       1.108   8.826  20.400  0.00  0.00    +0.000 A 
ATOM     22  C   UNL     1       1.922   7.780  19.959  0.00  0.00    +0.000 A 
ENDBRANCH  16  17
ENDBRANCH   5  15
TORSDOF 6
ENDMDL
MODEL 8
REMARK VINA RESULT:      -7.0      2.629      6.618
REMARK  Name = 
REMARK  7 active torsions:
REMARK  status: ('A' for Active; 'I' for Inactive)
REMARK    1  A    between atoms: C_1  and  O_2
REMARK    2  A    between atoms: O_2  and  C_3
REMARK    3  A    between atoms: C_5  and  O_6
REMARK    4  A    between atoms: C_7  and  C_8
REMARK    5  A    between atoms: C_8  and  O_10
REMARK    6  A    between atoms: C_11  and  C_12
REMARK    7  A    between atoms: C_13  and  C_14
REMARK                            x       y       z     vdW  Elec       q    Type
REMARK                         _______ _______ _______ _____ _____    ______ ____
ROOT
ATOM      1  C   UNL     1       5.740   6.204  16.956  0.00  0.00    +0.000 A 
ATOM      2  C   UNL     1       5.682   4.815  16.890  0.00  0.00    +0.000 A 
ATOM      3  C   UNL     1       4.523   4.140  17.282  0.00  0.00    +0.000 A 
ATOM      4  C   UNL     1       3.395   4.835  17.764  0.00  0.00    +0.000 A 
ATOM      5  C   UNL     1       3.458   6.245  17.823  0.00  0.00    +0.000 A 
ATOM      6  C   UNL     1       4.630   6.912  17.411  0.00  0.00    +0.000 A 
ENDROOT
BRANCH   1   8
ATOM      7  C   UNL     1       7.602   7.576  17.508  0.00  0.00    +0.000 C 
ATOM      8  O   UNL     1       6.934   6.745  16.565  0.00  0.00    +0.000 OA
ENDBRANCH   1   8
BRANCH   3   9
ATOM      9  O   UNL     1       4.509   2.768  17.198  0.00  0.00    +0.000 OA
ATOM     10  H   UNL     1       5.030   2.496  16.417  0.00  0.00    +0.000 HD
ENDBRANCH   3   9
BRANCH   4  11
ATOM     11  C   UNL     1       2.187   4.098  18.261  0.00  0.00    +0.000 C 
ATOM     12  O   UNL     1       1.314   3.648  17.535  0.00  0.00    +0.000 OA
BRANCH  11  13
ATOM     13  O   UNL     1       2.126   3.942  19.603  0.00  0.00    +0.000 OA
ATOM     14  H   UNL     1       2.527   4.696  20.086  0.00  0.00    +0.000 HD
ENDBRANCH  11  13
ENDBRANCH   4  11
BRANCH   5  15
ATOM     15  C   UNL     1       2.411   7.118  18.384  0.00  0.00    +0.000 C 
ATOM     16  C   UNL     1       2.126   8.361  17.965  0.00  0.00    +0.000 C 
BRANCH  16  17
ATOM     17  C   UNL     1       1.109   9.205  18.627  0.00  0.00    +0.000 A 
ATOM     18  C   UNL     1       1.076   9.289  20.027  0.00  0.00    +0.000 A 
ATOM     19  C   UNL     1       0.115  10.074  20.676  0.00  0.00    +0.000 A 
ATOM     20  C   UNL     1      -0.822  10.791  19.935  0.00  0.00    +0.000 A 
ATOM     21  C   UNL     1      -0.791  10.734  18.546  0.00  0.00    +0.000 A 
ATOM     22  C   UNL     1       0.173   9.957  17.899  0.00  0.00    +0.000 A 
ENDBRANCH  16  17
ENDBRANCH   5  15
TORSDOF 6
ENDMDL
MODEL 9
REMARK VINA RESULT:      -7.0      0.933      1.648
REMARK  Name = 
REMARK  7 active torsions:
REMARK  status: ('A' for Active; 'I' for Inactive)
REMARK    1  A    between atoms: C_1  and  O_2
REMARK    2  A    between atoms: O_2  and  C_3
REMARK    3  A    between atoms: C_5  and  O_6
REMARK    4  A    between atoms: C_7  and  C_8
REMARK    5  A    between atoms: C_8  and  O_10
REMARK    6  A    between atoms: C_11  and  C_12
REMARK    7  A    between atoms: C_13  and  C_14
REMARK                            x       y       z     vdW  Elec       q    Type
REMARK                         _______ _______ _______ _____ _____    ______ ____
ROOT
ATOM      1  C   UNL     1       2.520   6.366  19.311  0.00  0.00    +0.000 A 
ATOM      2  C   UNL     1       1.854   5.424  20.090  0.00  0.00    +0.000 A 
ATOM      3  C   UNL     1       1.949   4.064  19.786  0.00  0.00    +0.000 A 
ATOM      4  C   UNL     1       2.704   3.608  18.686  0.00  0.00    +0.000 A 
ATOM      5  C   UNL     1       3.383   4.567  17.902  0.00  0.00    +0.000 A 
ATOM      6  C   UNL     1       3.288   5.935  18.230  0.00  0.00    +0.000 A 
ENDROOT
BRANCH   1   8
ATOM      7  C   UNL     1       1.470   7.885  20.808  0.00  0.00    +0.000 C 
ATOM      8  O   UNL     1       2.331   7.664  19.696  0.00  0.00    +0.000 OA
ENDBRANCH   1   8
BRANCH   3   9
ATOM      9  O   UNL     1       1.276   3.170  20.584  0.00  0.00    +0.000 OA
ATOM     10  H   UNL     1       0.584   2.732  20.051  0.00  0.00    +0.000 HD
ENDBRANCH   3   9
BRANCH   4  11
ATOM     11  C   UNL     1       2.732   2.154  18.318  0.00  0.00    +0.000 C 
ATOM     12  O   UNL     1       3.713   1.437  18.443  0.00  0.00    +0.000 OA
BRANCH  11  13
ATOM     13  O   UNL     1       1.568   1.664  17.836  0.00  0.00    +0.000 OA
ATOM     14  H   UNL     1       1.699   0.875  17.268  0.00  0.00    +0.000 HD
ENDBRANCH  11  13
ENDBRANCH   4  11
BRANCH   5  15
ATOM     15  C   UNL     1       4.137   4.275  16.669  0.00  0.00    +0.000 C 
ATOM     16  C   UNL     1       5.122   5.032  16.161  0.00  0.00    +0.000 C 
BRANCH  16  17
ATOM     17  C   UNL     1       5.783   4.713  14.878  0.00  0.00    +0.000 A 
ATOM     18  C   UNL     1       5.152   3.857  13.962  0.00  0.00    +0.000 A 
ATOM     19  C   UNL     1       5.764   3.532  12.745  0.00  0.00    +0.000 A 
ATOM     20  C   UNL     1       7.011   4.063  12.423  0.00  0.00    +0.000 A 
ATOM     21  C   UNL     1       7.641   4.928  13.312  0.00  0.00    +0.000 A 
ATOM     22  C   UNL     1       7.026   5.258  14.522  0.00  0.00    +0.000 A 
ENDBRANCH  16  17
ENDBRANCH   5  15
TORSDOF 6
ENDMDL
