MODEL 1
REMARK VINA RESULT:      -7.6      0.000      0.000
REMARK  Name = 
REMARK  8 active torsions:
REMARK  status: ('A' for Active; 'I' for Inactive)
REMARK    1  A    between atoms: C_2  and  C_3
REMARK    2  A    between atoms: C_3  and  C_4
REMARK    3  A    between atoms: C_4  and  C_5
REMARK    4  A    between atoms: N_11  and  C_12
REMARK    5  A    between atoms: C_12  and  C_13
REMARK    6  A    between atoms: C_12  and  C_20
REMARK    7  A    between atoms: C_13  and  C_14
REMARK    8  A    between atoms: C_22  and  O_23
REMARK                            x       y       z     vdW  Elec       q    Type
REMARK                         _______ _______ _______ _____ _____    ______ ____
ROOT
ATOM      1  C   UNL     1       2.838   5.030  18.515  0.00  0.00    +0.000 C 
ENDROOT
BRANCH   1   4
ATOM      2  O   UNL     1       4.014   7.618  17.827  0.00  0.00    +0.000 OA
ATOM      3  C   UNL     1       2.798   7.498  17.916  0.00  0.00    +0.000 C 
ATOM      4  N   UNL     1       2.167   6.334  18.332  0.00  0.00    +0.000 N 
ATOM      5  H   UNL     1       1.156   6.316  18.270  0.00  0.00    +0.000 HD
BRANCH   3   6
ATOM      6  C   UNL     1       1.828   8.645  17.638  0.00  0.00    +0.000 C 
BRANCH   6   7
ATOM      7  C   UNL     1       1.346   9.380  18.901  0.00  0.00    +0.000 C 
BRANCH   7   8
ATOM      8  C   UNL     1       0.109  10.205  18.621  0.00  0.00    +0.000 A 
ATOM      9  C   UNL     1      -0.872   9.799  17.707  0.00  0.00    +0.000 A 
ATOM     10  C   UNL     1      -1.956  10.637  17.410  0.00  0.00    +0.000 A 
ATOM     11  C   UNL     1      -2.007  11.865  18.039  0.00  0.00    +0.000 A 
ATOM     12  N   UNL     1      -1.106  12.281  18.956  0.00  0.00    +0.000 NA
ATOM     13  C   UNL     1      -0.080  11.443  19.227  0.00  0.00    +0.000 A 
ENDBRANCH   7   8
ENDBRANCH   6   7
ENDBRANCH   3   6
ENDBRANCH   1   4
BRANCH   1  14
ATOM     14  C   UNL     1       1.863   4.095  19.267  0.00  0.00    +0.000 C 
ATOM     15  C   UNL     1       2.327   2.742  19.868  0.00  0.00    +0.000 C 
ATOM     16  C   UNL     1       2.136   3.311  21.285  0.00  0.00    +0.000 C 
ATOM     17  C   UNL     1       1.333   4.478  20.677  0.00  0.00    +0.000 C 
BRANCH  16  18
ATOM     18  O   UNL     1       1.429   2.480  22.223  0.00  0.00    +0.000 OA
ATOM     19  H   UNL     1       1.954   2.504  23.043  0.00  0.00    +0.000 HD
ENDBRANCH  16  18
ENDBRANCH   1  14
BRANCH   1  20
ATOM     20  C   UNL     1       3.308   4.436  17.160  0.00  0.00    +0.000 C 
BRANCH  20  21
ATOM     21  C   UNL     1       4.800   4.502  16.920  0.00  0.00    +0.000 A 
ATOM     22  C   UNL     1       5.323   4.575  15.623  0.00  0.00    +0.000 A 
ATOM     23  C   UNL     1       6.698   4.638  15.458  0.00  0.00    +0.000 A 
ATOM     24  N   UNL     1       7.577   4.661  16.481  0.00  0.00    +0.000 NA
ATOM     25  C   UNL     1       7.054   4.632  17.725  0.00  0.00    +0.000 A 
ATOM     26  C   UNL     1       5.695   4.558  17.991  0.00  0.00    +0.000 A 
ENDBRANCH  20  21
ENDBRANCH   1  20
TORSDOF 8
ENDMDL
MODEL 2
REMARK VINA RESULT:      -7.5      0.995      1.307
REMARK  Name = 
REMARK  8 active torsions:
REMARK  status: ('A' for Active; 'I' for Inactive)
REMARK    1  A    between atoms: C_2  and  C_3
REMARK    2  A    between atoms: C_3  and  C_4
REMARK    3  A    between atoms: C_4  and  C_5
REMARK    4  A    between atoms: N_11  and  C_12
REMARK    5  A    between atoms: C_12  and  C_13
REMARK    6  A    between atoms: C_12  and  C_20
REMARK    7  A    between atoms: C_13  and  C_14
REMARK    8  A    between atoms: C_22  and  O_23
REMARK                            x       y       z     vdW  Elec       q    Type
REMARK                         _______ _______ _______ _____ _____    ______ ____
ROOT
ATOM      1  C   UNL     1       3.009   5.423  18.682  0.00  0.00    +0.000 C 
ENDROOT
BRANCH   1   4
ATOM      2  O   UNL     1       2.197   7.916  19.981  0.00  0.00    +0.000 OA
ATOM      3  C   UNL     1       2.110   7.798  18.765  0.00  0.00    +0.000 C 
ATOM      4  N   UNL     1       2.380   6.618  18.084  0.00  0.00    +0.000 N 
ATOM      5  H   UNL     1       2.373   6.666  17.072  0.00  0.00    +0.000 HD
BRANCH   3   6
ATOM      6  C   UNL     1       1.628   8.925  17.854  0.00  0.00    +0.000 C 
BRANCH   6   7
ATOM      7  C   UNL     1       1.229  10.210  18.601  0.00  0.00    +0.000 C 
BRANCH   7   8
ATOM      8  C   UNL     1      -0.255  10.478  18.486  0.00  0.00    +0.000 A 
ATOM      9  C   UNL     1      -1.068   9.810  17.560  0.00  0.00    +0.000 A 
ATOM     10  C   UNL     1      -2.421  10.155  17.425  0.00  0.00    +0.000 A 
ATOM     11  C   UNL     1      -2.905  11.172  18.222  0.00  0.00    +0.000 A 
ATOM     12  N   UNL     1      -2.169  11.816  19.155  0.00  0.00    +0.000 NA
ATOM     13  C   UNL     1      -0.871  11.451  19.267  0.00  0.00    +0.000 A 
ENDBRANCH   7   8
ENDBRANCH   6   7
ENDBRANCH   3   6
ENDBRANCH   1   4
BRANCH   1  14
ATOM     14  C   UNL     1       1.952   4.723  19.568  0.00  0.00    +0.000 C 
ATOM     15  C   UNL     1       1.818   3.178  19.616  0.00  0.00    +0.000 C 
ATOM     16  C   UNL     1       2.346   3.182  21.061  0.00  0.00    +0.000 C 
ATOM     17  C   UNL     1       2.107   4.704  21.114  0.00  0.00    +0.000 C 
BRANCH  16  18
ATOM     18  O   UNL     1       1.613   2.395  22.017  0.00  0.00    +0.000 OA
ATOM     19  H   UNL     1       0.762   2.191  21.591  0.00  0.00    +0.000 HD
ENDBRANCH  16  18
ENDBRANCH   1  14
BRANCH   1  20
ATOM     20  C   UNL     1       3.595   4.483  17.596  0.00  0.00    +0.000 C 
BRANCH  20  21
ATOM     21  C   UNL     1       4.911   4.935  17.004  0.00  0.00    +0.000 A 
ATOM     22  C   UNL     1       5.724   5.862  17.668  0.00  0.00    +0.000 A 
ATOM     23  C   UNL     1       6.924   6.240  17.083  0.00  0.00    +0.000 A 
ATOM     24  N   UNL     1       7.379   5.744  15.915  0.00  0.00    +0.000 NA
ATOM     25  C   UNL     1       6.603   4.820  15.310  0.00  0.00    +0.000 A 
ATOM     26  C   UNL     1       5.383   4.387  15.809  0.00  0.00    +0.000 A 
ENDBRANCH  20  21
ENDBRANCH   1  20
TORSDOF 8
ENDMDL
MODEL 3
REMARK VINA RESULT:      -7.5      1.936      6.655
REMARK  Name = 
REMARK  8 active torsions:
REMARK  status: ('A' for Active; 'I' for Inactive)
REMARK    1  A    between atoms: C_2  and  C_3
REMARK    2  A    between atoms: C_3  and  C_4
REMARK    3  A    between atoms: C_4  and  C_5
REMARK    4  A    between atoms: N_11  and  C_12
REMARK    5  A    between atoms: C_12  and  C_13
REMARK    6  A    between atoms: C_12  and  C_20
REMARK    7  A    between atoms: C_13  and  C_14
REMARK    8  A    between atoms: C_22  and  O_23
REMARK                            x       y       z     vdW  Elec       q    Type
REMARK                         _______ _______ _______ _____ _____    ______ ____
ROOT
ATOM      1  C   UNL     1       2.394   5.009  18.312  0.00  0.00    +0.000 C 
ENDROOT
BRANCH   1   4
ATOM      2  O   UNL     1       4.270   6.016  16.306  0.00  0.00    +0.000 OA
ATOM      3  C   UNL     1       4.330   4.849  16.675  0.00  0.00    +0.000 C 
ATOM      4  N   UNL     1       3.418   4.269  17.546  0.00  0.00    +0.000 N 
ATOM      5  H   UNL     1       3.624   3.328  17.861  0.00  0.00    +0.000 HD
BRANCH   3   6
ATOM      6  C   UNL     1       5.385   3.870  16.165  0.00  0.00    +0.000 C 
BRANCH   6   7
ATOM      7  C   UNL     1       6.758   4.510  15.895  0.00  0.00    +0.000 C 
BRANCH   7   8
ATOM      8  C   UNL     1       7.230   5.325  17.079  0.00  0.00    +0.000 A 
ATOM      9  C   UNL     1       7.400   6.715  17.013  0.00  0.00    +0.000 A 
ATOM     10  C   UNL     1       7.927   7.417  18.106  0.00  0.00    +0.000 A 
ATOM     11  C   UNL     1       8.276   6.691  19.227  0.00  0.00    +0.000 A 
ATOM     12  N   UNL     1       8.094   5.357  19.349  0.00  0.00    +0.000 NA
ATOM     13  C   UNL     1       7.573   4.712  18.281  0.00  0.00    +0.000 A 
ENDBRANCH   7   8
ENDBRANCH   6   7
ENDBRANCH   3   6
ENDBRANCH   1   4
BRANCH   1  14
ATOM     14  C   UNL     1       1.597   3.987  19.154  0.00  0.00    +0.000 C 
ATOM     15  C   UNL     1       2.254   2.697  19.713  0.00  0.00    +0.000 C 
ATOM     16  C   UNL     1       2.135   3.261  21.139  0.00  0.00    +0.000 C 
ATOM     17  C   UNL     1       1.160   4.329  20.605  0.00  0.00    +0.000 C 
BRANCH  16  18
ATOM     18  O   UNL     1       1.609   2.372  22.141  0.00  0.00    +0.000 OA
ATOM     19  H   UNL     1       2.327   1.746  22.341  0.00  0.00    +0.000 HD
ENDBRANCH  16  18
ENDBRANCH   1  14
BRANCH   1  20
ATOM     20  C   UNL     1       3.030   6.129  19.178  0.00  0.00    +0.000 C 
BRANCH  20  21
ATOM     21  C   UNL     1       2.300   7.454  19.144  0.00  0.00    +0.000 A 
ATOM     22  C   UNL     1       1.700   7.981  20.294  0.00  0.00    +0.000 A 
ATOM     23  C   UNL     1       1.047   9.201  20.209  0.00  0.00    +0.000 A 
ATOM     24  N   UNL     1       0.975   9.937  19.082  0.00  0.00    +0.000 NA
ATOM     25  C   UNL     1       1.594   9.434  17.993  0.00  0.00    +0.000 A 
ATOM     26  C   UNL     1       2.263   8.219  17.976  0.00  0.00    +0.000 A 
ENDBRANCH  20  21
ENDBRANCH   1  20
TORSDOF 8
ENDMDL
MODEL 4
REMARK VINA RESULT:      -7.5      4.705      7.372
REMARK  Name = 
REMARK  8 active torsions:
REMARK  status: ('A' for Active; 'I' for Inactive)
REMARK    1  A    between atoms: C_2  and  C_3
REMARK    2  A    between atoms: C_3  and  C_4
REMARK    3  A    between atoms: C_4  and  C_5
REMARK    4  A    between atoms: N_11  and  C_12
REMARK    5  A    between atoms: C_12  and  C_13
REMARK    6  A    between atoms: C_12  and  C_20
REMARK    7  A    between atoms: C_13  and  C_14
REMARK    8  A    between atoms: C_22  and  O_23
REMARK                            x       y       z     vdW  Elec       q    Type
REMARK                         _______ _______ _______ _____ _____    ______ ____
ROOT
ATOM      1  C   UNL     1       5.574   5.834  16.790  0.00  0.00    +0.000 C 
ENDROOT
BRANCH   1   4
ATOM      2  O   UNL     1       7.897   6.344  18.493  0.00  0.00    +0.000 OA
ATOM      3  C   UNL     1       7.434   7.240  17.798  0.00  0.00    +0.000 C 
ATOM      4  N   UNL     1       6.279   7.109  17.039  0.00  0.00    +0.000 N 
ATOM      5  H   UNL     1       6.048   7.880  16.424  0.00  0.00    +0.000 HD
BRANCH   3   6
ATOM      6  C   UNL     1       8.044   8.639  17.732  0.00  0.00    +0.000 C 
BRANCH   6   7
ATOM      7  C   UNL     1       8.945   8.988  18.930  0.00  0.00    +0.000 C 
BRANCH   7   8
ATOM      8  C   UNL     1       9.253  10.469  18.976  0.00  0.00    +0.000 A 
ATOM      9  C   UNL     1       9.639  11.190  17.838  0.00  0.00    +0.000 A 
ATOM     10  C   UNL     1      10.004  12.540  17.943  0.00  0.00    +0.000 A 
ATOM     11  C   UNL     1       9.977  13.115  19.197  0.00  0.00    +0.000 A 
ATOM     12  N   UNL     1       9.574  12.470  20.315  0.00  0.00    +0.000 NA
ATOM     13  C   UNL     1       9.218  11.173  20.176  0.00  0.00    +0.000 A 
ENDBRANCH   7   8
ENDBRANCH   6   7
ENDBRANCH   3   6
ENDBRANCH   1   4
BRANCH   1  14
ATOM     14  C   UNL     1       6.488   4.948  15.914  0.00  0.00    +0.000 C 
ATOM     15  C   UNL     1       6.036   3.552  15.409  0.00  0.00    +0.000 C 
ATOM     16  C   UNL     1       5.974   4.097  13.972  0.00  0.00    +0.000 C 
ATOM     17  C   UNL     1       6.776   5.330  14.435  0.00  0.00    +0.000 C 
BRANCH  16  18
ATOM     18  O   UNL     1       6.590   3.293  12.950  0.00  0.00    +0.000 OA
ATOM     19  H   UNL     1       6.046   3.419  12.153  0.00  0.00    +0.000 HD
ENDBRANCH  16  18
ENDBRANCH   1  14
BRANCH   1  20
ATOM     20  C   UNL     1       5.164   5.141  18.116  0.00  0.00    +0.000 C 
BRANCH  20  21
ATOM     21  C   UNL     1       3.844   4.403  18.069  0.00  0.00    +0.000 A 
ATOM     22  C   UNL     1       2.643   5.081  17.826  0.00  0.00    +0.000 A 
ATOM     23  C   UNL     1       1.462   4.355  17.788  0.00  0.00    +0.000 A 
ATOM     24  N   UNL     1       1.396   3.018  17.944  0.00  0.00    +0.000 NA
ATOM     25  C   UNL     1       2.568   2.376  18.133  0.00  0.00    +0.000 A 
ATOM     26  C   UNL     1       3.798   3.013  18.198  0.00  0.00    +0.000 A 
ENDBRANCH  20  21
ENDBRANCH   1  20
TORSDOF 8
ENDMDL
MODEL 5
REMARK VINA RESULT:      -7.5      4.707      7.594
REMARK  Name = 
REMARK  8 active torsions:
REMARK  status: ('A' for Active; 'I' for Inactive)
REMARK    1  A    between atoms: C_2  and  C_3
REMARK    2  A    between atoms: C_3  and  C_4
REMARK    3  A    between atoms: C_4  and  C_5
REMARK    4  A    between atoms: N_11  and  C_12
REMARK    5  A    between atoms: C_12  and  C_13
REMARK    6  A    between atoms: C_12  and  C_20
REMARK    7  A    between atoms: C_13  and  C_14
REMARK    8  A    between atoms: C_22  and  O_23
REMARK                            x       y       z     vdW  Elec       q    Type
REMARK                         _______ _______ _______ _____ _____    ______ ____
ROOT
ATOM      1  C   UNL     1       5.994   5.422  17.866  0.00  0.00    +0.000 C 
ENDROOT
BRANCH   1   4
ATOM      2  O   UNL     1       6.525   8.037  16.668  0.00  0.00    +0.000 OA
ATOM      3  C   UNL     1       7.222   7.628  17.590  0.00  0.00    +0.000 C 
ATOM      4  N   UNL     1       7.099   6.362  18.146  0.00  0.00    +0.000 N 
ATOM      5  H   UNL     1       7.657   6.170  18.969  0.00  0.00    +0.000 HD
BRANCH   3   6
ATOM      6  C   UNL     1       8.359   8.447  18.197  0.00  0.00    +0.000 C 
BRANCH   6   7
ATOM      7  C   UNL     1       8.279   9.954  17.896  0.00  0.00    +0.000 C 
BRANCH   7   8
ATOM      8  C   UNL     1       9.385  10.715  18.592  0.00  0.00    +0.000 A 
ATOM      9  C   UNL     1      10.481  11.247  17.897  0.00  0.00    +0.000 A 
ATOM     10  C   UNL     1      11.530  11.866  18.593  0.00  0.00    +0.000 A 
ATOM     11  C   UNL     1      11.442  11.918  19.970  0.00  0.00    +0.000 A 
ATOM     12  N   UNL     1      10.388  11.454  20.677  0.00  0.00    +0.000 NA
ATOM     13  C   UNL     1       9.389  10.874  19.974  0.00  0.00    +0.000 A 
ENDBRANCH   7   8
ENDBRANCH   6   7
ENDBRANCH   3   6
ENDBRANCH   1   4
BRANCH   1  14
ATOM     14  C   UNL     1       6.512   4.363  16.866  0.00  0.00    +0.000 C 
ATOM     15  C   UNL     1       5.546   3.532  15.981  0.00  0.00    +0.000 C 
ATOM     16  C   UNL     1       6.053   4.278  14.735  0.00  0.00    +0.000 C 
ATOM     17  C   UNL     1       7.243   4.799  15.565  0.00  0.00    +0.000 C 
BRANCH  16  18
ATOM     18  O   UNL     1       6.388   3.471  13.592  0.00  0.00    +0.000 OA
ATOM     19  H   UNL     1       6.059   3.963  12.818  0.00  0.00    +0.000 HD
ENDBRANCH  16  18
ENDBRANCH   1  14
BRANCH   1  20
ATOM     20  C   UNL     1       5.440   4.789  19.171  0.00  0.00    +0.000 C 
BRANCH  20  21
ATOM     21  C   UNL     1       4.079   4.143  19.039  0.00  0.00    +0.000 A 
ATOM     22  C   UNL     1       2.962   4.883  18.632  0.00  0.00    +0.000 A 
ATOM     23  C   UNL     1       1.738   4.240  18.523  0.00  0.00    +0.000 A 
ATOM     24  N   UNL     1       1.556   2.925  18.758  0.00  0.00    +0.000 NA
ATOM     25  C   UNL     1       2.652   2.219  19.107  0.00  0.00    +0.000 A 
ATOM     26  C   UNL     1       3.915   2.772  19.254  0.00  0.00    +0.000 A 
ENDBRANCH  20  21
ENDBRANCH   1  20
TORSDOF 8
ENDMDL
MODEL 6
REMARK VINA RESULT:      -7.5      2.139      7.110
REMARK  Name = 
REMARK  8 active torsions:
REMARK  status: ('A' for Active; 'I' for Inactive)
REMARK    1  A    between atoms: C_2  and  C_3
REMARK    2  A    between atoms: C_3  and  C_4
REMARK    3  A    between atoms: C_4  and  C_5
REMARK    4  A    between atoms: N_11  and  C_12
REMARK    5  A    between atoms: C_12  and  C_13
REMARK    6  A    between atoms: C_12  and  C_20
REMARK    7  A    between atoms: C_13  and  C_14
REMARK    8  A    between atoms: C_22  and  O_23
REMARK                            x       y       z     vdW  Elec       q    Type
REMARK                         _______ _______ _______ _____ _____    ______ ____
ROOT
ATOM      1  C   UNL     1       3.136   5.760  18.157  0.00  0.00    +0.000 C 
ENDROOT
BRANCH   1   4
ATOM      2  O   UNL     1       5.328   7.422  17.163  0.00  0.00    +0.000 OA
ATOM      3  C   UNL     1       5.566   6.368  17.739  0.00  0.00    +0.000 C 
ATOM      4  N   UNL     1       4.586   5.477  18.153  0.00  0.00    +0.000 N 
ATOM      5  H   UNL     1       4.893   4.688  18.710  0.00  0.00    +0.000 HD
BRANCH   3   6
ATOM      6  C   UNL     1       6.985   5.877  18.017  0.00  0.00    +0.000 C 
BRANCH   6   7
ATOM      7  C   UNL     1       7.317   4.519  17.374  0.00  0.00    +0.000 C 
BRANCH   7   8
ATOM      8  C   UNL     1       7.031   4.526  15.888  0.00  0.00    +0.000 A 
ATOM      9  C   UNL     1       6.056   3.703  15.308  0.00  0.00    +0.000 A 
ATOM     10  C   UNL     1       5.887   3.676  13.917  0.00  0.00    +0.000 A 
ATOM     11  C   UNL     1       6.716   4.473  13.155  0.00  0.00    +0.000 A 
ATOM     12  N   UNL     1       7.641   5.311  13.672  0.00  0.00    +0.000 NA
ATOM     13  C   UNL     1       7.771   5.322  15.018  0.00  0.00    +0.000 A 
ENDBRANCH   7   8
ENDBRANCH   6   7
ENDBRANCH   3   6
ENDBRANCH   1   4
BRANCH   1  14
ATOM     14  C   UNL     1       2.398   4.467  17.739  0.00  0.00    +0.000 C 
ATOM     15  C   UNL     1       3.118   3.094  17.684  0.00  0.00    +0.000 C 
ATOM     16  C   UNL     1       2.293   2.618  18.892  0.00  0.00    +0.000 C 
ATOM     17  C   UNL     1       1.347   3.818  18.683  0.00  0.00    +0.000 C 
BRANCH  16  18
ATOM     18  O   UNL     1       1.690   1.316  18.788  0.00  0.00    +0.000 OA
ATOM     19  H   UNL     1       1.044   1.383  18.063  0.00  0.00    +0.000 HD
ENDBRANCH  16  18
ENDBRANCH   1  14
BRANCH   1  20
ATOM     20  C   UNL     1       2.663   6.298  19.534  0.00  0.00    +0.000 C 
BRANCH  20  21
ATOM     21  C   UNL     1       2.021   7.667  19.497  0.00  0.00    +0.000 A 
ATOM     22  C   UNL     1       1.431   8.222  20.639  0.00  0.00    +0.000 A 
ATOM     23  C   UNL     1       0.860   9.483  20.551  0.00  0.00    +0.000 A 
ATOM     24  N   UNL     1       0.860  10.231  19.430  0.00  0.00    +0.000 NA
ATOM     25  C   UNL     1       1.470   9.698  18.350  0.00  0.00    +0.000 A 
ATOM     26  C   UNL     1       2.059   8.443  18.335  0.00  0.00    +0.000 A 
ENDBRANCH  20  21
ENDBRANCH   1  20
TORSDOF 8
ENDMDL
MODEL 7
REMARK VINA RESULT:      -7.4      1.815      7.132
REMARK  Name = 
REMARK  8 active torsions:
REMARK  status: ('A' for Active; 'I' for Inactive)
REMARK    1  A    between atoms: C_2  and  C_3
REMARK    2  A    between atoms: C_3  and  C_4
REMARK    3  A    between atoms: C_4  and  C_5
REMARK    4  A    between atoms: N_11  and  C_12
REMARK    5  A    between atoms: C_12  and  C_13
REMARK    6  A    between atoms: C_12  and  C_20
REMARK    7  A    between atoms: C_13  and  C_14
REMARK    8  A    between atoms: C_22  and  O_23
REMARK                            x       y       z     vdW  Elec       q    Type
REMARK                         _______ _______ _______ _____ _____    ______ ____
ROOT
ATOM      1  C   UNL     1       2.112   5.610  19.159  0.00  0.00    +0.000 C 
ENDROOT
BRANCH   1   4
ATOM      2  O   UNL     1       1.685   3.611  17.066  0.00  0.00    +0.000 OA
ATOM      3  C   UNL     1       2.811   3.813  17.505  0.00  0.00    +0.000 C 
ATOM      4  N   UNL     1       3.083   4.670  18.563  0.00  0.00    +0.000 N 
ATOM      5  H   UNL     1       4.060   4.836  18.773  0.00  0.00    +0.000 HD
BRANCH   3   6
ATOM      6  C   UNL     1       4.049   3.090  16.979  0.00  0.00    +0.000 C 
BRANCH   6   7
ATOM      7  C   UNL     1       5.365   3.856  17.198  0.00  0.00    +0.000 C 
BRANCH   7   8
ATOM      8  C   UNL     1       6.001   4.250  15.883  0.00  0.00    +0.000 A 
ATOM      9  C   UNL     1       5.603   3.691  14.661  0.00  0.00    +0.000 A 
ATOM     10  C   UNL     1       6.282   4.017  13.478  0.00  0.00    +0.000 A 
ATOM     11  C   UNL     1       7.348   4.888  13.570  0.00  0.00    +0.000 A 
ATOM     12  N   UNL     1       7.741   5.481  14.719  0.00  0.00    +0.000 NA
ATOM     13  C   UNL     1       7.058   5.154  15.839  0.00  0.00    +0.000 A 
ENDBRANCH   7   8
ENDBRANCH   6   7
ENDBRANCH   3   6
ENDBRANCH   1   4
BRANCH   1  14
ATOM     14  C   UNL     1       1.528   4.950  20.428  0.00  0.00    +0.000 C 
ATOM     15  C   UNL     1       0.756   3.605  20.371  0.00  0.00    +0.000 C 
ATOM     16  C   UNL     1       1.915   2.915  21.111  0.00  0.00    +0.000 C 
ATOM     17  C   UNL     1       2.467   4.305  21.485  0.00  0.00    +0.000 C 
BRANCH  16  18
ATOM     18  O   UNL     1       1.558   2.062  22.213  0.00  0.00    +0.000 OA
ATOM     19  H   UNL     1       0.981   1.373  21.837  0.00  0.00    +0.000 HD
ENDBRANCH  16  18
ENDBRANCH   1  14
BRANCH   1  20
ATOM     20  C   UNL     1       2.760   6.991  19.448  0.00  0.00    +0.000 C 
BRANCH  20  21
ATOM     21  C   UNL     1       1.805   8.163  19.413  0.00  0.00    +0.000 A 
ATOM     22  C   UNL     1       1.134   8.586  20.568  0.00  0.00    +0.000 A 
ATOM     23  C   UNL     1       0.272   9.669  20.482  0.00  0.00    +0.000 A 
ATOM     24  N   UNL     1       0.056  10.369  19.350  0.00  0.00    +0.000 NA
ATOM     25  C   UNL     1       0.743   9.974  18.258  0.00  0.00    +0.000 A 
ATOM     26  C   UNL     1       1.618   8.898  18.240  0.00  0.00    +0.000 A 
ENDBRANCH  20  21
ENDBRANCH   1  20
TORSDOF 8
ENDMDL
MODEL 8
REMARK VINA RESULT:      -7.4      1.372      1.810
REMARK  Name = 
REMARK  8 active torsions:
REMARK  status: ('A' for Active; 'I' for Inactive)
REMARK    1  A    between atoms: C_2  and  C_3
REMARK    2  A    between atoms: C_3  and  C_4
REMARK    3  A    between atoms: C_4  and  C_5
REMARK    4  A    between atoms: N_11  and  C_12
REMARK    5  A    between atoms: C_12  and  C_13
REMARK    6  A    between atoms: C_12  and  C_20
REMARK    7  A    between atoms: C_13  and  C_14
REMARK    8  A    between atoms: C_22  and  O_23
REMARK                            x       y       z     vdW  Elec       q    Type
REMARK                         _______ _______ _______ _____ _____    ______ ____
ROOT
ATOM      1  C   UNL     1       3.062   4.677  18.460  0.00  0.00    +0.000 C 
ENDROOT
BRANCH   1   4
ATOM      2  O   UNL     1       3.886   7.435  17.942  0.00  0.00    +0.000 OA
ATOM      3  C   UNL     1       2.697   7.153  18.022  0.00  0.00    +0.000 C 
ATOM      4  N   UNL     1       2.226   5.891  18.362  0.00  0.00    +0.000 N 
ATOM      5  H   UNL     1       1.226   5.747  18.297  0.00  0.00    +0.000 HD
BRANCH   3   6
ATOM      6  C   UNL     1       1.584   8.178  17.819  0.00  0.00    +0.000 C 
BRANCH   6   7
ATOM      7  C   UNL     1       2.059   9.641  17.878  0.00  0.00    +0.000 C 
BRANCH   7   8
ATOM      8  C   UNL     1       1.266  10.439  18.889  0.00  0.00    +0.000 A 
ATOM      9  C   UNL     1       1.360  11.834  18.984  0.00  0.00    +0.000 A 
ATOM     10  C   UNL     1       0.677  12.524  19.996  0.00  0.00    +0.000 A 
ATOM     11  C   UNL     1      -0.070  11.780  20.887  0.00  0.00    +0.000 A 
ATOM     12  N   UNL     1      -0.220  10.439  20.810  0.00  0.00    +0.000 NA
ATOM     13  C   UNL     1       0.442   9.806  19.816  0.00  0.00    +0.000 A 
ENDBRANCH   7   8
ENDBRANCH   6   7
ENDBRANCH   3   6
ENDBRANCH   1   4
BRANCH   1  14
ATOM     14  C   UNL     1       2.252   3.602  19.221  0.00  0.00    +0.000 C 
ATOM     15  C   UNL     1       2.915   2.660  20.260  0.00  0.00    +0.000 C 
ATOM     16  C   UNL     1       2.145   3.370  21.387  0.00  0.00    +0.000 C 
ATOM     17  C   UNL     1       1.235   4.014  20.322  0.00  0.00    +0.000 C 
BRANCH  16  18
ATOM     18  O   UNL     1       1.488   2.525  22.349  0.00  0.00    +0.000 OA
ATOM     19  H   UNL     1       0.760   3.059  22.714  0.00  0.00    +0.000 HD
ENDBRANCH  16  18
ENDBRANCH   1  14
BRANCH   1  20
ATOM     20  C   UNL     1       3.530   4.193  17.062  0.00  0.00    +0.000 C 
BRANCH  20  21
ATOM     21  C   UNL     1       5.009   4.361  16.791  0.00  0.00    +0.000 A 
ATOM     22  C   UNL     1       5.929   4.475  17.840  0.00  0.00    +0.000 A 
ATOM     23  C   UNL     1       7.274   4.622  17.537  0.00  0.00    +0.000 A 
ATOM     24  N   UNL     1       7.764   4.635  16.281  0.00  0.00    +0.000 NA
ATOM     25  C   UNL     1       6.868   4.482  15.284  0.00  0.00    +0.000 A 
ATOM     26  C   UNL     1       5.503   4.339  15.485  0.00  0.00    +0.000 A 
ENDBRANCH  20  21
ENDBRANCH   1  20
TORSDOF 8
ENDMDL
MODEL 9
REMARK VINA RESULT:      -7.4      2.088      2.774
REMARK  Name = 
REMARK  8 active torsions:
REMARK  status: ('A' for Active; 'I' for Inactive)
REMARK    1  A    between atoms: C_2  and  C_3
REMARK    2  A    between atoms: C_3  and  C_4
REMARK    3  A    between atoms: C_4  and  C_5
REMARK    4  A    between atoms: N_11  and  C_12
REMARK    5  A    between atoms: C_12  and  C_13
REMARK    6  A    between atoms: C_12  and  C_20
REMARK    7  A    between atoms: C_13  and  C_14
REMARK    8  A    between atoms: C_22  and  O_23
REMARK                            x       y       z     vdW  Elec       q    Type
REMARK                         _______ _______ _______ _____ _____    ______ ____
ROOT
ATOM      1  C   UNL     1       3.220   6.057  18.434  0.00  0.00    +0.000 C 
ENDROOT
BRANCH   1   4
ATOM      2  O   UNL     1       2.470   8.626  17.253  0.00  0.00    +0.000 OA
ATOM      3  C   UNL     1       2.079   8.326  18.374  0.00  0.00    +0.000 C 
ATOM      4  N   UNL     1       2.468   7.174  19.044  0.00  0.00    +0.000 N 
ATOM      5  H   UNL     1       2.003   6.978  19.922  0.00  0.00    +0.000 HD
BRANCH   3   6
ATOM      6  C   UNL     1       1.159   9.222  19.200  0.00  0.00    +0.000 C 
BRANCH   6   7
ATOM      7  C   UNL     1       1.078   8.839  20.688  0.00  0.00    +0.000 C 
BRANCH   7   8
ATOM      8  C   UNL     1       0.409   9.925  21.502  0.00  0.00    +0.000 A 
ATOM      9  C   UNL     1      -0.487   9.638  22.542  0.00  0.00    +0.000 A 
ATOM     10  C   UNL     1      -1.154  10.675  23.210  0.00  0.00    +0.000 A 
ATOM     11  C   UNL     1      -0.903  11.968  22.798  0.00  0.00    +0.000 A 
ATOM     12  N   UNL     1      -0.019  12.293  21.828  0.00  0.00    +0.000 NA
ATOM     13  C   UNL     1       0.615  11.270  21.213  0.00  0.00    +0.000 A 
ENDBRANCH   7   8
ENDBRANCH   6   7
ENDBRANCH   3   6
ENDBRANCH   1   4
BRANCH   1  14
ATOM     14  C   UNL     1       2.203   4.970  18.018  0.00  0.00    +0.000 C 
ATOM     15  C   UNL     1       2.653   3.633  17.371  0.00  0.00    +0.000 C 
ATOM     16  C   UNL     1       2.228   2.881  18.644  0.00  0.00    +0.000 C 
ATOM     17  C   UNL     1       1.454   4.136  19.094  0.00  0.00    +0.000 C 
BRANCH  16  18
ATOM     18  O   UNL     1       1.442   1.690  18.457  0.00  0.00    +0.000 OA
ATOM     19  H   UNL     1       2.078   0.988  18.230  0.00  0.00    +0.000 HD
ENDBRANCH  16  18
ENDBRANCH   1  14
BRANCH   1  20
ATOM     20  C   UNL     1       4.097   6.541  17.248  0.00  0.00    +0.000 C 
BRANCH  20  21
ATOM     21  C   UNL     1       5.419   5.822  17.099  0.00  0.00    +0.000 A 
ATOM     22  C   UNL     1       6.279   5.651  18.191  0.00  0.00    +0.000 A 
ATOM     23  C   UNL     1       7.478   4.980  18.001  0.00  0.00    +0.000 A 
ATOM     24  N   UNL     1       7.863   4.451  16.822  0.00  0.00    +0.000 NA
ATOM     25  C   UNL     1       7.003   4.588  15.790  0.00  0.00    +0.000 A 
ATOM     26  C   UNL     1       5.788   5.251  15.879  0.00  0.00    +0.000 A 
ENDBRANCH  20  21
ENDBRANCH   1  20
TORSDOF 8
ENDMDL
