MODEL 1
REMARK VINA RESULT:      -8.1      0.000      0.000
REMARK  Name = 
REMARK  10 active torsions:
REMARK  status: ('A' for Active; 'I' for Inactive)
REMARK    1  A    between atoms: C_1  and  C_2
REMARK    2  A    between atoms: C_2  and  C_3
REMARK    3  A    between atoms: C_4  and  C_5
REMARK    4  A    between atoms: C_5  and  C_6
REMARK    5  A    between atoms: C_7  and  C_8
REMARK    6  A    between atoms: C_11  and  O_12
REMARK    7  A    between atoms: C_14  and  O_15
REMARK    8  A    between atoms: C_21  and  O_22
REMARK    9  A    between atoms: C_28  and  C_29
REMARK   10  A    between atoms: C_28  and  C_30
REMARK                            x       y       z     vdW  Elec       q    Type
REMARK                         _______ _______ _______ _____ _____    ______ ____
ROOT
ATOM      1  C   UNL     1       3.755   5.865  19.138  0.00  0.00    +0.000 A 
ATOM      2  C   UNL     1       3.991   6.463  17.956  0.00  0.00    +0.000 A 
ATOM      3  O   UNL     1       3.321   7.579  17.492  0.00  0.00    +0.000 OA
ATOM      4  C   UNL     1       2.434   8.204  18.330  0.00  0.00    +0.000 A 
ATOM      5  C   UNL     1       1.902   9.411  17.884  0.00  0.00    +0.000 A 
ATOM      6  C   UNL     1       0.970  10.097  18.665  0.00  0.00    +0.000 A 
ATOM      7  C   UNL     1       0.556   9.588  19.904  0.00  0.00    +0.000 A 
ATOM      8  C   UNL     1       1.112   8.375  20.352  0.00  0.00    +0.000 A 
ATOM      9  C   UNL     1       2.050   7.685  19.562  0.00  0.00    +0.000 A 
ATOM     10  C   UNL     1       2.663   6.409  19.987  0.00  0.00    +0.000 A 
ATOM     11  O   UNL     1       2.297   5.792  20.978  0.00  0.00    +0.000 OA
ATOM     12  C   UNL     1      -0.427  10.348  20.673  0.00  0.00    +0.000 C 
ATOM     13  C   UNL     1      -0.931  11.466  20.140  0.00  0.00    +0.000 C 
ATOM     14  C   UNL     1      -0.526  11.997  18.791  0.00  0.00    +0.000 C 
ATOM     15  C   UNL     1      -1.737  11.964  17.854  0.00  0.00    +0.000 C 
ATOM     16  C   UNL     1      -0.022  13.435  18.963  0.00  0.00    +0.000 C 
ATOM     17  O   UNL     1       0.529  11.275  18.129  0.00  0.00    +0.000 OA
ENDROOT
BRANCH   2  18
ATOM     18  C   UNL     1       4.989   5.962  16.997  0.00  0.00    +0.000 A 
ATOM     19  C   UNL     1       4.629   4.947  16.096  0.00  0.00    +0.000 A 
ATOM     20  C   UNL     1       5.538   4.484  15.141  0.00  0.00    +0.000 A 
ATOM     21  C   UNL     1       6.816   5.035  15.093  0.00  0.00    +0.000 A 
ATOM     22  C   UNL     1       7.200   6.031  15.985  0.00  0.00    +0.000 A 
ATOM     23  C   UNL     1       6.285   6.493  16.931  0.00  0.00    +0.000 A 
BRANCH  21  24
ATOM     24  O   UNL     1       7.732   4.624  14.170  0.00  0.00    +0.000 OA
ATOM     25  H   UNL     1       8.005   3.716  14.382  0.00  0.00    +0.000 HD
ENDBRANCH  21  24
BRANCH  23  26
ATOM     26  O   UNL     1       6.648   7.482  17.805  0.00  0.00    +0.000 OA
ATOM     27  H   UNL     1       6.617   8.333  17.340  0.00  0.00    +0.000 HD
ENDBRANCH  23  26
ENDBRANCH   2  18
BRANCH   8  28
ATOM     28  O   UNL     1       0.774   7.838  21.567  0.00  0.00    +0.000 OA
ATOM     29  H   UNL     1       1.309   8.193  22.286  0.00  0.00    +0.000 HD
ENDBRANCH   8  28
BRANCH   1  30
ATOM     30  C   UNL     1       4.508   4.706  19.731  0.00  0.00    +0.000 C 
BRANCH  30  34
ATOM     31  C   UNL     1       3.413   1.287  18.208  0.00  0.00    +0.000 C 
ATOM     32  C   UNL     1       3.469   2.479  19.121  0.00  0.00    +0.000 C 
ATOM     33  C   UNL     1       2.444   2.568  20.217  0.00  0.00    +0.000 C 
ATOM     34  C   UNL     1       4.377   3.450  18.910  0.00  0.00    +0.000 C 
ENDBRANCH  30  34
ENDBRANCH   1  30
TORSDOF 6
ENDMDL
MODEL 2
REMARK VINA RESULT:      -7.8      1.596      8.207
REMARK  Name = 
REMARK  10 active torsions:
REMARK  status: ('A' for Active; 'I' for Inactive)
REMARK    1  A    between atoms: C_1  and  C_2
REMARK    2  A    between atoms: C_2  and  C_3
REMARK    3  A    between atoms: C_4  and  C_5
REMARK    4  A    between atoms: C_5  and  C_6
REMARK    5  A    between atoms: C_7  and  C_8
REMARK    6  A    between atoms: C_11  and  O_12
REMARK    7  A    between atoms: C_14  and  O_15
REMARK    8  A    between atoms: C_21  and  O_22
REMARK    9  A    between atoms: C_28  and  C_29
REMARK   10  A    between atoms: C_28  and  C_30
REMARK                            x       y       z     vdW  Elec       q    Type
REMARK                         _______ _______ _______ _____ _____    ______ ____
ROOT
ATOM      1  C   UNL     1       0.686   9.356  20.356  0.00  0.00    +0.000 A 
ATOM      2  C   UNL     1       1.144  10.109  19.340  0.00  0.00    +0.000 A 
ATOM      3  O   UNL     1       2.117   9.711  18.441  0.00  0.00    +0.000 OA
ATOM      4  C   UNL     1       2.572   8.419  18.503  0.00  0.00    +0.000 A 
ATOM      5  C   UNL     1       3.430   8.014  17.484  0.00  0.00    +0.000 A 
ATOM      6  C   UNL     1       3.962   6.723  17.488  0.00  0.00    +0.000 A 
ATOM      7  C   UNL     1       3.642   5.816  18.509  0.00  0.00    +0.000 A 
ATOM      8  C   UNL     1       2.761   6.231  19.525  0.00  0.00    +0.000 A 
ATOM      9  C   UNL     1       2.228   7.534  19.519  0.00  0.00    +0.000 A 
ATOM     10  C   UNL     1       1.300   8.019  20.562  0.00  0.00    +0.000 A 
ATOM     11  O   UNL     1       1.043   7.380  21.573  0.00  0.00    +0.000 OA
ATOM     12  C   UNL     1       4.234   4.481  18.461  0.00  0.00    +0.000 C 
ATOM     13  C   UNL     1       5.097   4.198  17.480  0.00  0.00    +0.000 C 
ATOM     14  C   UNL     1       5.480   5.178  16.404  0.00  0.00    +0.000 C 
ATOM     15  C   UNL     1       6.972   5.503  16.529  0.00  0.00    +0.000 C 
ATOM     16  C   UNL     1       5.183   4.548  15.039  0.00  0.00    +0.000 C 
ATOM     17  O   UNL     1       4.781   6.437  16.431  0.00  0.00    +0.000 OA
ENDROOT
BRANCH   2  18
ATOM     18  C   UNL     1       0.670  11.481  19.089  0.00  0.00    +0.000 A 
ATOM     19  C   UNL     1       1.397  12.565  19.608  0.00  0.00    +0.000 A 
ATOM     20  C   UNL     1       1.001  13.879  19.347  0.00  0.00    +0.000 A 
ATOM     21  C   UNL     1      -0.131  14.108  18.571  0.00  0.00    +0.000 A 
ATOM     22  C   UNL     1      -0.875  13.051  18.059  0.00  0.00    +0.000 A 
ATOM     23  C   UNL     1      -0.470  11.741  18.317  0.00  0.00    +0.000 A 
BRANCH  21  24
ATOM     24  O   UNL     1      -0.548  15.375  18.279  0.00  0.00    +0.000 OA
ATOM     25  H   UNL     1      -1.517  15.409  18.345  0.00  0.00    +0.000 HD
ENDBRANCH  21  24
BRANCH  23  26
ATOM     26  O   UNL     1      -1.187  10.693  17.808  0.00  0.00    +0.000 OA
ATOM     27  H   UNL     1      -1.740  10.323  18.516  0.00  0.00    +0.000 HD
ENDBRANCH  23  26
ENDBRANCH   2  18
BRANCH   8  28
ATOM     28  O   UNL     1       2.384   5.386  20.535  0.00  0.00    +0.000 OA
ATOM     29  H   UNL     1       2.381   5.821  21.396  0.00  0.00    +0.000 HD
ENDBRANCH   8  28
BRANCH   1  30
ATOM     30  C   UNL     1      -0.427   9.702  21.307  0.00  0.00    +0.000 C 
BRANCH  30  34
ATOM     31  C   UNL     1      -0.660  13.256  22.893  0.00  0.00    +0.000 C 
ATOM     32  C   UNL     1      -1.008  12.041  22.081  0.00  0.00    +0.000 C 
ATOM     33  C   UNL     1      -2.332  12.032  21.371  0.00  0.00    +0.000 C 
ATOM     34  C   UNL     1      -0.173  10.985  22.052  0.00  0.00    +0.000 C 
ENDBRANCH  30  34
ENDBRANCH   1  30
TORSDOF 6
ENDMDL
MODEL 3
REMARK VINA RESULT:      -7.6      1.598      8.171
REMARK  Name = 
REMARK  10 active torsions:
REMARK  status: ('A' for Active; 'I' for Inactive)
REMARK    1  A    between atoms: C_1  and  C_2
REMARK    2  A    between atoms: C_2  and  C_3
REMARK    3  A    between atoms: C_4  and  C_5
REMARK    4  A    between atoms: C_5  and  C_6
REMARK    5  A    between atoms: C_7  and  C_8
REMARK    6  A    between atoms: C_11  and  O_12
REMARK    7  A    between atoms: C_14  and  O_15
REMARK    8  A    between atoms: C_21  and  O_22
REMARK    9  A    between atoms: C_28  and  C_29
REMARK   10  A    between atoms: C_28  and  C_30
REMARK                            x       y       z     vdW  Elec       q    Type
REMARK                         _______ _______ _______ _____ _____    ______ ____
ROOT
ATOM      1  C   UNL     1       0.616   9.478  20.400  0.00  0.00    +0.000 A 
ATOM      2  C   UNL     1       1.082  10.203  19.368  0.00  0.00    +0.000 A 
ATOM      3  O   UNL     1       2.057   9.777  18.483  0.00  0.00    +0.000 OA
ATOM      4  C   UNL     1       2.505   8.485  18.579  0.00  0.00    +0.000 A 
ATOM      5  C   UNL     1       3.364   8.051  17.574  0.00  0.00    +0.000 A 
ATOM      6  C   UNL     1       3.889   6.757  17.612  0.00  0.00    +0.000 A 
ATOM      7  C   UNL     1       3.561   5.878  18.653  0.00  0.00    +0.000 A 
ATOM      8  C   UNL     1       2.679   6.323  19.655  0.00  0.00    +0.000 A 
ATOM      9  C   UNL     1       2.152   7.627  19.615  0.00  0.00    +0.000 A 
ATOM     10  C   UNL     1       1.223   8.143  20.642  0.00  0.00    +0.000 A 
ATOM     11  O   UNL     1       0.959   7.530  21.668  0.00  0.00    +0.000 OA
ATOM     12  C   UNL     1       4.146   4.539  18.641  0.00  0.00    +0.000 C 
ATOM     13  C   UNL     1       5.011   4.227  17.671  0.00  0.00    +0.000 C 
ATOM     14  C   UNL     1       5.404   5.179  16.572  0.00  0.00    +0.000 C 
ATOM     15  C   UNL     1       6.897   5.498  16.694  0.00  0.00    +0.000 C 
ATOM     16  C   UNL     1       5.108   4.516  15.221  0.00  0.00    +0.000 C 
ATOM     17  O   UNL     1       4.710   6.441  16.565  0.00  0.00    +0.000 OA
ENDROOT
BRANCH   2  18
ATOM     18  C   UNL     1       0.617  11.570  19.081  0.00  0.00    +0.000 A 
ATOM     19  C   UNL     1      -0.594  11.754  18.394  0.00  0.00    +0.000 A 
ATOM     20  C   UNL     1      -1.086  13.039  18.149  0.00  0.00    +0.000 A 
ATOM     21  C   UNL     1      -0.360  14.143  18.587  0.00  0.00    +0.000 A 
ATOM     22  C   UNL     1       0.848  13.985  19.256  0.00  0.00    +0.000 A 
ATOM     23  C   UNL     1       1.331  12.700  19.505  0.00  0.00    +0.000 A 
BRANCH  21  24
ATOM     24  O   UNL     1      -0.809  15.415  18.382  0.00  0.00    +0.000 OA
ATOM     25  H   UNL     1      -0.402  15.763  17.571  0.00  0.00    +0.000 HD
ENDBRANCH  21  24
BRANCH  23  26
ATOM     26  O   UNL     1       2.513  12.533  20.173  0.00  0.00    +0.000 OA
ATOM     27  H   UNL     1       2.742  11.589  20.166  0.00  0.00    +0.000 HD
ENDBRANCH  23  26
ENDBRANCH   2  18
BRANCH   8  28
ATOM     28  O   UNL     1       2.293   5.504  20.685  0.00  0.00    +0.000 OA
ATOM     29  H   UNL     1       1.424   5.114  20.536  0.00  0.00    +0.000 HD
ENDBRANCH   8  28
BRANCH   1  30
ATOM     30  C   UNL     1      -0.498   9.853  21.338  0.00  0.00    +0.000 C 
BRANCH  30  34
ATOM     31  C   UNL     1      -0.678  13.385  22.979  0.00  0.00    +0.000 C 
ATOM     32  C   UNL     1      -1.055  12.179  22.166  0.00  0.00    +0.000 C 
ATOM     33  C   UNL     1      -2.408  12.173  21.512  0.00  0.00    +0.000 C 
ATOM     34  C   UNL     1      -0.218  11.127  22.089  0.00  0.00    +0.000 C 
ENDBRANCH  30  34
ENDBRANCH   1  30
TORSDOF 6
ENDMDL
MODEL 4
REMARK VINA RESULT:      -7.5      2.224      8.983
REMARK  Name = 
REMARK  10 active torsions:
REMARK  status: ('A' for Active; 'I' for Inactive)
REMARK    1  A    between atoms: C_1  and  C_2
REMARK    2  A    between atoms: C_2  and  C_3
REMARK    3  A    between atoms: C_4  and  C_5
REMARK    4  A    between atoms: C_5  and  C_6
REMARK    5  A    between atoms: C_7  and  C_8
REMARK    6  A    between atoms: C_11  and  O_12
REMARK    7  A    between atoms: C_14  and  O_15
REMARK    8  A    between atoms: C_21  and  O_22
REMARK    9  A    between atoms: C_28  and  C_29
REMARK   10  A    between atoms: C_28  and  C_30
REMARK                            x       y       z     vdW  Elec       q    Type
REMARK                         _______ _______ _______ _____ _____    ______ ____
ROOT
ATOM      1  C   UNL     1       1.122  10.478  19.230  0.00  0.00    +0.000 A 
ATOM      2  C   UNL     1       0.416   9.969  20.255  0.00  0.00    +0.000 A 
ATOM      3  O   UNL     1       0.409   8.635  20.621  0.00  0.00    +0.000 OA
ATOM      4  C   UNL     1       1.266   7.779  19.980  0.00  0.00    +0.000 A 
ATOM      5  C   UNL     1       1.342   6.484  20.484  0.00  0.00    +0.000 A 
ATOM      6  C   UNL     1       2.170   5.541  19.871  0.00  0.00    +0.000 A 
ATOM      7  C   UNL     1       2.935   5.879  18.746  0.00  0.00    +0.000 A 
ATOM      8  C   UNL     1       2.862   7.195  18.254  0.00  0.00    +0.000 A 
ATOM      9  C   UNL     1       2.026   8.143  18.873  0.00  0.00    +0.000 A 
ATOM     10  C   UNL     1       1.914   9.537  18.396  0.00  0.00    +0.000 A 
ATOM     11  O   UNL     1       2.422   9.927  17.353  0.00  0.00    +0.000 OA
ATOM     12  C   UNL     1       3.778   4.847  18.145  0.00  0.00    +0.000 C 
ATOM     13  C   UNL     1       3.742   3.613  18.657  0.00  0.00    +0.000 C 
ATOM     14  C   UNL     1       2.891   3.229  19.838  0.00  0.00    +0.000 C 
ATOM     15  C   UNL     1       1.844   2.204  19.390  0.00  0.00    +0.000 C 
ATOM     16  C   UNL     1       3.796   2.630  20.920  0.00  0.00    +0.000 C 
ATOM     17  O   UNL     1       2.171   4.308  20.463  0.00  0.00    +0.000 OA
ENDROOT
BRANCH   2  18
ATOM     18  C   UNL     1      -0.469  10.791  21.098  0.00  0.00    +0.000 A 
ATOM     19  C   UNL     1      -1.429  11.615  20.488  0.00  0.00    +0.000 A 
ATOM     20  C   UNL     1      -2.316  12.370  21.261  0.00  0.00    +0.000 A 
ATOM     21  C   UNL     1      -2.235  12.305  22.649  0.00  0.00    +0.000 A 
ATOM     22  C   UNL     1      -1.283  11.508  23.275  0.00  0.00    +0.000 A 
ATOM     23  C   UNL     1      -0.406  10.751  22.497  0.00  0.00    +0.000 A 
BRANCH  21  24
ATOM     24  O   UNL     1      -3.088  13.014  23.443  0.00  0.00    +0.000 OA
ATOM     25  H   UNL     1      -3.534  12.401  24.051  0.00  0.00    +0.000 HD
ENDBRANCH  21  24
BRANCH  23  26
ATOM     26  O   UNL     1       0.527   9.954  23.103  0.00  0.00    +0.000 OA
ATOM     27  H   UNL     1       1.206  10.522  23.504  0.00  0.00    +0.000 HD
ENDBRANCH  23  26
ENDBRANCH   2  18
BRANCH   8  28
ATOM     28  O   UNL     1       3.607   7.599  17.176  0.00  0.00    +0.000 OA
ATOM     29  H   UNL     1       4.530   7.758  17.408  0.00  0.00    +0.000 HD
ENDBRANCH   8  28
BRANCH   1  30
ATOM     30  C   UNL     1       1.234  11.927  18.841  0.00  0.00    +0.000 C 
BRANCH  30  34
ATOM     31  C   UNL     1       2.674  14.629  21.255  0.00  0.00    +0.000 C 
ATOM     32  C   UNL     1       1.772  13.951  20.264  0.00  0.00    +0.000 C 
ATOM     33  C   UNL     1       0.512  14.664  19.865  0.00  0.00    +0.000 C 
ATOM     34  C   UNL     1       2.074  12.721  19.805  0.00  0.00    +0.000 C 
ENDBRANCH  30  34
ENDBRANCH   1  30
TORSDOF 6
ENDMDL
MODEL 5
REMARK VINA RESULT:      -7.4      0.940      1.428
REMARK  Name = 
REMARK  10 active torsions:
REMARK  status: ('A' for Active; 'I' for Inactive)
REMARK    1  A    between atoms: C_1  and  C_2
REMARK    2  A    between atoms: C_2  and  C_3
REMARK    3  A    between atoms: C_4  and  C_5
REMARK    4  A    between atoms: C_5  and  C_6
REMARK    5  A    between atoms: C_7  and  C_8
REMARK    6  A    between atoms: C_11  and  O_12
REMARK    7  A    between atoms: C_14  and  O_15
REMARK    8  A    between atoms: C_21  and  O_22
REMARK    9  A    between atoms: C_28  and  C_29
REMARK   10  A    between atoms: C_28  and  C_30
REMARK                            x       y       z     vdW  Elec       q    Type
REMARK                         _______ _______ _______ _____ _____    ______ ____
ROOT
ATOM      1  C   UNL     1       3.331   6.018  19.337  0.00  0.00    +0.000 A 
ATOM      2  C   UNL     1       3.771   6.676  18.250  0.00  0.00    +0.000 A 
ATOM      3  O   UNL     1       3.274   7.890  17.810  0.00  0.00    +0.000 OA
ATOM      4  C   UNL     1       2.350   8.537  18.589  0.00  0.00    +0.000 A 
ATOM      5  C   UNL     1       1.995   9.824  18.192  0.00  0.00    +0.000 A 
ATOM      6  C   UNL     1       1.040  10.541  18.914  0.00  0.00    +0.000 A 
ATOM      7  C   UNL     1       0.425   9.984  20.045  0.00  0.00    +0.000 A 
ATOM      8  C   UNL     1       0.802   8.689  20.446  0.00  0.00    +0.000 A 
ATOM      9  C   UNL     1       1.765   7.968  19.715  0.00  0.00    +0.000 A 
ATOM     10  C   UNL     1       2.195   6.606  20.094  0.00  0.00    +0.000 A 
ATOM     11  O   UNL     1       1.649   5.956  20.975  0.00  0.00    +0.000 OA
ATOM     12  C   UNL     1      -0.573  10.782  20.755  0.00  0.00    +0.000 C 
ATOM     13  C   UNL     1      -0.897  11.983  20.268  0.00  0.00    +0.000 C 
ATOM     14  C   UNL     1      -0.275  12.572  19.030  0.00  0.00    +0.000 C 
ATOM     15  C   UNL     1      -1.354  12.738  17.956  0.00  0.00    +0.000 C 
ATOM     16  C   UNL     1       0.336  13.932  19.388  0.00  0.00    +0.000 C 
ATOM     17  O   UNL     1       0.784  11.797  18.437  0.00  0.00    +0.000 OA
ENDROOT
BRANCH   2  18
ATOM     18  C   UNL     1       4.833   6.150  17.376  0.00  0.00    +0.000 A 
ATOM     19  C   UNL     1       6.106   6.743  17.407  0.00  0.00    +0.000 A 
ATOM     20  C   UNL     1       7.147   6.236  16.625  0.00  0.00    +0.000 A 
ATOM     21  C   UNL     1       6.911   5.138  15.803  0.00  0.00    +0.000 A 
ATOM     22  C   UNL     1       5.655   4.544  15.745  0.00  0.00    +0.000 A 
ATOM     23  C   UNL     1       4.621   5.050  16.534  0.00  0.00    +0.000 A 
BRANCH  21  24
ATOM     24  O   UNL     1       7.901   4.601  15.033  0.00  0.00    +0.000 OA
ATOM     25  H   UNL     1       8.141   5.241  14.342  0.00  0.00    +0.000 HD
ENDBRANCH  21  24
BRANCH  23  26
ATOM     26  O   UNL     1       3.384   4.467  16.493  0.00  0.00    +0.000 OA
ATOM     27  H   UNL     1       2.907   4.807  15.718  0.00  0.00    +0.000 HD
ENDBRANCH  23  26
ENDBRANCH   2  18
BRANCH   8  28
ATOM     28  O   UNL     1       0.262   8.098  21.559  0.00  0.00    +0.000 OA
ATOM     29  H   UNL     1      -0.702   8.102  21.544  0.00  0.00    +0.000 HD
ENDBRANCH   8  28
BRANCH   1  30
ATOM     30  C   UNL     1       3.889   4.744  19.909  0.00  0.00    +0.000 C 
BRANCH  30  34
ATOM     31  C   UNL     1       1.818   1.475  19.428  0.00  0.00    +0.000 C 
ATOM     32  C   UNL     1       2.483   2.647  20.094  0.00  0.00    +0.000 C 
ATOM     33  C   UNL     1       2.254   2.835  21.567  0.00  0.00    +0.000 C 
ATOM     34  C   UNL     1       3.207   3.517  19.365  0.00  0.00    +0.000 C 
ENDBRANCH  30  34
ENDBRANCH   1  30
TORSDOF 6
ENDMDL
MODEL 6
REMARK VINA RESULT:      -7.4      0.901      1.257
REMARK  Name = 
REMARK  10 active torsions:
REMARK  status: ('A' for Active; 'I' for Inactive)
REMARK    1  A    between atoms: C_1  and  C_2
REMARK    2  A    between atoms: C_2  and  C_3
REMARK    3  A    between atoms: C_4  and  C_5
REMARK    4  A    between atoms: C_5  and  C_6
REMARK    5  A    between atoms: C_7  and  C_8
REMARK    6  A    between atoms: C_11  and  O_12
REMARK    7  A    between atoms: C_14  and  O_15
REMARK    8  A    between atoms: C_21  and  O_22
REMARK    9  A    between atoms: C_28  and  C_29
REMARK   10  A    between atoms: C_28  and  C_30
REMARK                            x       y       z     vdW  Elec       q    Type
REMARK                         _______ _______ _______ _____ _____    ______ ____
ROOT
ATOM      1  C   UNL     1       3.271   5.710  19.199  0.00  0.00    +0.000 A 
ATOM      2  C   UNL     1       3.557   6.234  17.993  0.00  0.00    +0.000 A 
ATOM      3  O   UNL     1       3.089   7.451  17.533  0.00  0.00    +0.000 OA
ATOM      4  C   UNL     1       2.380   8.246  18.395  0.00  0.00    +0.000 A 
ATOM      5  C   UNL     1       2.065   9.525  17.945  0.00  0.00    +0.000 A 
ATOM      6  C   UNL     1       1.321  10.388  18.751  0.00  0.00    +0.000 A 
ATOM      7  C   UNL     1       0.880   9.987  20.020  0.00  0.00    +0.000 A 
ATOM      8  C   UNL     1       1.217   8.697  20.472  0.00  0.00    +0.000 A 
ATOM      9  C   UNL     1       1.967   7.829  19.656  0.00  0.00    +0.000 A 
ATOM     10  C   UNL     1       2.346   6.466  20.084  0.00  0.00    +0.000 A 
ATOM     11  O   UNL     1       1.919   5.945  21.105  0.00  0.00    +0.000 OA
ATOM     12  C   UNL     1       0.099  10.933  20.815  0.00  0.00    +0.000 C 
ATOM     13  C   UNL     1      -0.209  12.117  20.278  0.00  0.00    +0.000 C 
ATOM     14  C   UNL     1       0.222  12.542  18.900  0.00  0.00    +0.000 C 
ATOM     15  C   UNL     1      -1.019  12.726  18.021  0.00  0.00    +0.000 C 
ATOM     16  C   UNL     1       0.997  13.859  19.013  0.00  0.00    +0.000 C 
ATOM     17  O   UNL     1       1.086  11.621  18.207  0.00  0.00    +0.000 OA
ENDROOT
BRANCH   2  18
ATOM     18  C   UNL     1       4.393   5.538  17.001  0.00  0.00    +0.000 A 
ATOM     19  C   UNL     1       4.052   4.233  16.609  0.00  0.00    +0.000 A 
ATOM     20  C   UNL     1       4.797   3.563  15.634  0.00  0.00    +0.000 A 
ATOM     21  C   UNL     1       5.891   4.200  15.057  0.00  0.00    +0.000 A 
ATOM     22  C   UNL     1       6.257   5.485  15.440  0.00  0.00    +0.000 A 
ATOM     23  C   UNL     1       5.505   6.151  16.408  0.00  0.00    +0.000 A 
BRANCH  21  24
ATOM     24  O   UNL     1       6.639   3.590  14.092  0.00  0.00    +0.000 OA
ATOM     25  H   UNL     1       6.242   2.727  13.887  0.00  0.00    +0.000 HD
ENDBRANCH  21  24
BRANCH  23  26
ATOM     26  O   UNL     1       5.849   7.421  16.785  0.00  0.00    +0.000 OA
ATOM     27  H   UNL     1       6.317   7.846  16.047  0.00  0.00    +0.000 HD
ENDBRANCH  23  26
ENDBRANCH   2  18
BRANCH   8  28
ATOM     28  O   UNL     1       0.844   8.253  21.714  0.00  0.00    +0.000 OA
ATOM     29  H   UNL     1       1.102   7.337  21.867  0.00  0.00    +0.000 HD
ENDBRANCH   8  28
BRANCH   1  30
ATOM     30  C   UNL     1       3.818   4.438  19.784  0.00  0.00    +0.000 C 
BRANCH  30  34
ATOM     31  C   UNL     1       1.234   2.298  21.771  0.00  0.00    +0.000 C 
ATOM     32  C   UNL     1       2.061   2.825  20.633  0.00  0.00    +0.000 C 
ATOM     33  C   UNL     1       1.944   2.131  19.305  0.00  0.00    +0.000 C 
ATOM     34  C   UNL     1       2.914   3.848  20.833  0.00  0.00    +0.000 C 
ENDBRANCH  30  34
ENDBRANCH   1  30
TORSDOF 6
ENDMDL
MODEL 7
REMARK VINA RESULT:      -7.2      2.966      9.967
REMARK  Name = 
REMARK  10 active torsions:
REMARK  status: ('A' for Active; 'I' for Inactive)
REMARK    1  A    between atoms: C_1  and  C_2
REMARK    2  A    between atoms: C_2  and  C_3
REMARK    3  A    between atoms: C_4  and  C_5
REMARK    4  A    between atoms: C_5  and  C_6
REMARK    5  A    between atoms: C_7  and  C_8
REMARK    6  A    between atoms: C_11  and  O_12
REMARK    7  A    between atoms: C_14  and  O_15
REMARK    8  A    between atoms: C_21  and  O_22
REMARK    9  A    between atoms: C_28  and  C_29
REMARK   10  A    between atoms: C_28  and  C_30
REMARK                            x       y       z     vdW  Elec       q    Type
REMARK                         _______ _______ _______ _____ _____    ______ ____
ROOT
ATOM      1  C   UNL     1      -0.512  12.768  19.804  0.00  0.00    +0.000 A 
ATOM      2  C   UNL     1      -1.079  11.873  20.633  0.00  0.00    +0.000 A 
ATOM      3  O   UNL     1      -0.779  10.523  20.657  0.00  0.00    +0.000 OA
ATOM      4  C   UNL     1       0.248  10.069  19.870  0.00  0.00    +0.000 A 
ATOM      5  C   UNL     1       0.621   8.739  20.042  0.00  0.00    +0.000 A 
ATOM      6  C   UNL     1       1.639   8.190  19.260  0.00  0.00    +0.000 A 
ATOM      7  C   UNL     1       2.302   8.962  18.296  0.00  0.00    +0.000 A 
ATOM      8  C   UNL     1       1.928  10.310  18.142  0.00  0.00    +0.000 A 
ATOM      9  C   UNL     1       0.900  10.860  18.931  0.00  0.00    +0.000 A 
ATOM     10  C   UNL     1       0.470  12.269  18.807  0.00  0.00    +0.000 A 
ATOM     11  O   UNL     1       0.871  13.013  17.922  0.00  0.00    +0.000 OA
ATOM     12  C   UNL     1       3.355   8.330  17.505  0.00  0.00    +0.000 C 
ATOM     13  C   UNL     1       3.605   7.031  17.694  0.00  0.00    +0.000 C 
ATOM     14  C   UNL     1       2.869   6.181  18.695  0.00  0.00    +0.000 C 
ATOM     15  C   UNL     1       2.082   5.097  17.953  0.00  0.00    +0.000 C 
ATOM     16  C   UNL     1       3.892   5.545  19.643  0.00  0.00    +0.000 C 
ATOM     17  O   UNL     1       1.925   6.879  19.529  0.00  0.00    +0.000 OA
ENDROOT
BRANCH   2  18
ATOM     18  C   UNL     1      -2.124  12.237  21.604  0.00  0.00    +0.000 A 
ATOM     19  C   UNL     1      -3.374  12.676  21.137  0.00  0.00    +0.000 A 
ATOM     20  C   UNL     1      -4.402  12.982  22.032  0.00  0.00    +0.000 A 
ATOM     21  C   UNL     1      -4.176  12.857  23.399  0.00  0.00    +0.000 A 
ATOM     22  C   UNL     1      -2.942  12.439  23.886  0.00  0.00    +0.000 A 
ATOM     23  C   UNL     1      -1.922  12.127  22.986  0.00  0.00    +0.000 A 
BRANCH  21  24
ATOM     24  O   UNL     1      -5.154  13.132  24.309  0.00  0.00    +0.000 OA
ATOM     25  H   UNL     1      -4.761  13.613  25.057  0.00  0.00    +0.000 HD
ENDBRANCH  21  24
BRANCH  23  26
ATOM     26  O   UNL     1      -0.707  11.703  23.454  0.00  0.00    +0.000 OA
ATOM     27  H   UNL     1      -0.011  12.228  23.026  0.00  0.00    +0.000 HD
ENDBRANCH  23  26
ENDBRANCH   2  18
BRANCH   8  28
ATOM     28  O   UNL     1       2.555  11.129  17.239  0.00  0.00    +0.000 OA
ATOM     29  H   UNL     1       3.341  11.548  17.610  0.00  0.00    +0.000 HD
ENDBRANCH   8  28
BRANCH   1  30
ATOM     30  C   UNL     1      -0.735  14.256  19.793  0.00  0.00    +0.000 C 
BRANCH  30  34
ATOM     31  C   UNL     1       0.462  16.361  22.848  0.00  0.00    +0.000 C 
ATOM     32  C   UNL     1      -0.445  15.727  21.832  0.00  0.00    +0.000 C 
ATOM     33  C   UNL     1      -1.926  15.917  22.003  0.00  0.00    +0.000 C 
ATOM     34  C   UNL     1       0.070  14.970  20.845  0.00  0.00    +0.000 C 
ENDBRANCH  30  34
ENDBRANCH   1  30
TORSDOF 6
ENDMDL
MODEL 8
REMARK VINA RESULT:      -7.2      3.448      7.265
REMARK  Name = 
REMARK  10 active torsions:
REMARK  status: ('A' for Active; 'I' for Inactive)
REMARK    1  A    between atoms: C_1  and  C_2
REMARK    2  A    between atoms: C_2  and  C_3
REMARK    3  A    between atoms: C_4  and  C_5
REMARK    4  A    between atoms: C_5  and  C_6
REMARK    5  A    between atoms: C_7  and  C_8
REMARK    6  A    between atoms: C_11  and  O_12
REMARK    7  A    between atoms: C_14  and  O_15
REMARK    8  A    between atoms: C_21  and  O_22
REMARK    9  A    between atoms: C_28  and  C_29
REMARK   10  A    between atoms: C_28  and  C_30
REMARK                            x       y       z     vdW  Elec       q    Type
REMARK                         _______ _______ _______ _____ _____    ______ ____
ROOT
ATOM      1  C   UNL     1      -0.818  11.038  19.365  0.00  0.00    +0.000 A 
ATOM      2  C   UNL     1       0.460  10.851  19.737  0.00  0.00    +0.000 A 
ATOM      3  O   UNL     1       1.251  11.809  20.346  0.00  0.00    +0.000 OA
ATOM      4  C   UNL     1       0.673  12.997  20.709  0.00  0.00    +0.000 A 
ATOM      5  C   UNL     1       1.460  13.867  21.459  0.00  0.00    +0.000 A 
ATOM      6  C   UNL     1       0.956  15.111  21.846  0.00  0.00    +0.000 A 
ATOM      7  C   UNL     1      -0.342  15.503  21.491  0.00  0.00    +0.000 A 
ATOM      8  C   UNL     1      -1.134  14.610  20.746  0.00  0.00    +0.000 A 
ATOM      9  C   UNL     1      -0.623  13.357  20.357  0.00  0.00    +0.000 A 
ATOM     10  C   UNL     1      -1.414  12.384  19.575  0.00  0.00    +0.000 A 
ATOM     11  O   UNL     1      -2.506  12.649  19.091  0.00  0.00    +0.000 OA
ATOM     12  C   UNL     1      -0.810  16.819  21.920  0.00  0.00    +0.000 C 
ATOM     13  C   UNL     1       0.034  17.614  22.583  0.00  0.00    +0.000 C 
ATOM     14  C   UNL     1       1.445  17.220  22.931  0.00  0.00    +0.000 C 
ATOM     15  C   UNL     1       2.421  18.145  22.197  0.00  0.00    +0.000 C 
ATOM     16  C   UNL     1       1.628  17.345  24.448  0.00  0.00    +0.000 C 
ATOM     17  O   UNL     1       1.817  15.872  22.589  0.00  0.00    +0.000 OA
ENDROOT
BRANCH   2  18
ATOM     18  C   UNL     1       1.181   9.588  19.503  0.00  0.00    +0.000 A 
ATOM     19  C   UNL     1       1.187   8.605  20.506  0.00  0.00    +0.000 A 
ATOM     20  C   UNL     1       1.821   7.377  20.296  0.00  0.00    +0.000 A 
ATOM     21  C   UNL     1       2.457   7.137  19.082  0.00  0.00    +0.000 A 
ATOM     22  C   UNL     1       2.477   8.101  18.081  0.00  0.00    +0.000 A 
ATOM     23  C   UNL     1       1.836   9.322  18.293  0.00  0.00    +0.000 A 
BRANCH  21  24
ATOM     24  O   UNL     1       3.077   5.948  18.828  0.00  0.00    +0.000 OA
ATOM     25  H   UNL     1       3.058   5.783  17.871  0.00  0.00    +0.000 HD
ENDBRANCH  21  24
BRANCH  23  26
ATOM     26  O   UNL     1       1.838  10.274  17.310  0.00  0.00    +0.000 OA
ATOM     27  H   UNL     1       2.548  10.066  16.680  0.00  0.00    +0.000 HD
ENDBRANCH  23  26
ENDBRANCH   2  18
BRANCH   8  28
ATOM     28  O   UNL     1      -2.422  14.918  20.392  0.00  0.00    +0.000 OA
ATOM     29  H   UNL     1      -2.463  15.635  19.749  0.00  0.00    +0.000 HD
ENDBRANCH   8  28
BRANCH   1  30
ATOM     30  C   UNL     1      -1.749  10.012  18.781  0.00  0.00    +0.000 C 
BRANCH  30  34
ATOM     31  C   UNL     1      -2.787  10.325  15.035  0.00  0.00    +0.000 C 
ATOM     32  C   UNL     1      -2.886  10.272  16.534  0.00  0.00    +0.000 C 
ATOM     33  C   UNL     1      -4.228  10.535  17.155  0.00  0.00    +0.000 C 
ATOM     34  C   UNL     1      -1.784  10.052  17.276  0.00  0.00    +0.000 C 
ENDBRANCH  30  34
ENDBRANCH   1  30
TORSDOF 6
ENDMDL
MODEL 9
REMARK VINA RESULT:      -7.1      3.235      7.115
REMARK  Name = 
REMARK  10 active torsions:
REMARK  status: ('A' for Active; 'I' for Inactive)
REMARK    1  A    between atoms: C_1  and  C_2
REMARK    2  A    between atoms: C_2  and  C_3
REMARK    3  A    between atoms: C_4  and  C_5
REMARK    4  A    between atoms: C_5  and  C_6
REMARK    5  A    between atoms: C_7  and  C_8
REMARK    6  A    between atoms: C_11  and  O_12
REMARK    7  A    between atoms: C_14  and  O_15
REMARK    8  A    between atoms: C_21  and  O_22
REMARK    9  A    between atoms: C_28  and  C_29
REMARK   10  A    between atoms: C_28  and  C_30
REMARK                            x       y       z     vdW  Elec       q    Type
REMARK                         _______ _______ _______ _____ _____    ______ ____
ROOT
ATOM      1  C   UNL     1      -0.494  11.022  19.041  0.00  0.00    +0.000 A 
ATOM      2  C   UNL     1       0.788  10.735  19.328  0.00  0.00    +0.000 A 
ATOM      3  O   UNL     1       1.717  11.653  19.782  0.00  0.00    +0.000 OA
ATOM      4  C   UNL     1       1.291  12.921  20.079  0.00  0.00    +0.000 A 
ATOM      5  C   UNL     1       2.220  13.764  20.682  0.00  0.00    +0.000 A 
ATOM      6  C   UNL     1       1.875  15.081  20.991  0.00  0.00    +0.000 A 
ATOM      7  C   UNL     1       0.594  15.575  20.704  0.00  0.00    +0.000 A 
ATOM      8  C   UNL     1      -0.342  14.710  20.109  0.00  0.00    +0.000 A 
ATOM      9  C   UNL     1       0.009  13.383  19.797  0.00  0.00    +0.000 A 
ATOM     10  C   UNL     1      -0.937  12.435  19.172  0.00  0.00    +0.000 A 
ATOM     11  O   UNL     1      -2.036  12.771  18.753  0.00  0.00    +0.000 OA
ATOM     12  C   UNL     1       0.295  16.964  21.045  0.00  0.00    +0.000 C 
ATOM     13  C   UNL     1       1.267  17.719  21.565  0.00  0.00    +0.000 C 
ATOM     14  C   UNL     1       2.657  17.211  21.836  0.00  0.00    +0.000 C 
ATOM     15  C   UNL     1       3.650  17.965  20.946  0.00  0.00    +0.000 C 
ATOM     16  C   UNL     1       2.983  17.443  23.316  0.00  0.00    +0.000 C 
ATOM     17  O   UNL     1       2.866  15.808  21.591  0.00  0.00    +0.000 OA
ENDROOT
BRANCH   2  18
ATOM     18  C   UNL     1       1.360   9.389  19.156  0.00  0.00    +0.000 A 
ATOM     19  C   UNL     1       1.811   8.991  17.886  0.00  0.00    +0.000 A 
ATOM     20  C   UNL     1       2.402   7.738  17.701  0.00  0.00    +0.000 A 
ATOM     21  C   UNL     1       2.535   6.879  18.787  0.00  0.00    +0.000 A 
ATOM     22  C   UNL     1       2.082   7.245  20.050  0.00  0.00    +0.000 A 
ATOM     23  C   UNL     1       1.500   8.500  20.230  0.00  0.00    +0.000 A 
BRANCH  21  24
ATOM     24  O   UNL     1       3.118   5.652  18.655  0.00  0.00    +0.000 OA
ATOM     25  H   UNL     1       2.452   5.023  18.332  0.00  0.00    +0.000 HD
ENDBRANCH  21  24
BRANCH  23  26
ATOM     26  O   UNL     1       1.061   8.876  21.471  0.00  0.00    +0.000 OA
ATOM     27  H   UNL     1       1.562   8.381  22.140  0.00  0.00    +0.000 HD
ENDBRANCH  23  26
ENDBRANCH   2  18
BRANCH   8  28
ATOM     28  O   UNL     1      -1.620  15.120  19.830  0.00  0.00    +0.000 OA
ATOM     29  H   UNL     1      -2.105  15.372  20.624  0.00  0.00    +0.000 HD
ENDBRANCH   8  28
BRANCH   1  30
ATOM     30  C   UNL     1      -1.567  10.052  18.628  0.00  0.00    +0.000 C 
BRANCH  30  34
ATOM     31  C   UNL     1      -2.873  10.107  14.955  0.00  0.00    +0.000 C 
ATOM     32  C   UNL     1      -2.856  10.198  16.454  0.00  0.00    +0.000 C 
ATOM     33  C   UNL     1      -4.123  10.622  17.142  0.00  0.00    +0.000 C 
ATOM     34  C   UNL     1      -1.718   9.958  17.133  0.00  0.00    +0.000 C 
ENDBRANCH  30  34
ENDBRANCH   1  30
TORSDOF 6
ENDMDL
