MODEL 1
REMARK VINA RESULT:      -9.2      0.000      0.000
REMARK  Name = 
REMARK  9 active torsions:
REMARK  status: ('A' for Active; 'I' for Inactive)
REMARK    1  A    between atoms: C_1  and  N_2
REMARK    2  A    between atoms: N_2  and  C_3
REMARK    3  A    between atoms: N_2  and  C_4
REMARK    4  A    between atoms: C_4  and  C_5
REMARK    5  A    between atoms: C_4  and  C_28
REMARK    6  A    between atoms: C_5  and  N_6
REMARK    7  A    between atoms: C_7  and  C_9
REMARK    8  A    between atoms: N_15  and  C_16
REMARK    9  A    between atoms: C_28  and  C_29
REMARK                            x       y       z     vdW  Elec       q    Type
REMARK                         _______ _______ _______ _____ _____    ______ ____
ROOT
ATOM      1  C   UNL     1       1.789   8.623  19.307  0.00  0.00    +0.000 A 
ATOM      2  C   UNL     1       1.708   8.106  20.607  0.00  0.00    +0.000 A 
ATOM      3  C   UNL     1       1.008   8.805  21.584  0.00  0.00    +0.000 A 
ATOM      4  C   UNL     1       0.385  10.017  21.258  0.00  0.00    +0.000 A 
ATOM      5  C   UNL     1      -0.342  10.775  22.281  0.00  0.00    +0.000 A 
ATOM      6  O   UNL     1      -0.362  10.325  23.423  0.00  0.00    +0.000 OA
ATOM      7  N   UNL     1      -0.989  11.958  21.862  0.00  0.00    +0.000 N 
ATOM      8  C   UNL     1      -0.928  12.449  20.551  0.00  0.00    +0.000 A 
ATOM      9  S   UNL     1      -1.562  13.887  19.948  0.00  0.00    +0.000 S 
ATOM     10  N   UNL     1      -0.201  11.704  19.653  0.00  0.00    +0.000 N 
ATOM     11  C   UNL     1       0.453  10.518  19.967  0.00  0.00    +0.000 A 
ATOM     12  C   UNL     1       1.168   9.839  18.987  0.00  0.00    +0.000 A 
ATOM     13  H   UNL     1      -0.145  12.077  18.710  0.00  0.00    +0.000 HD
ENDROOT
BRANCH   7  14
ATOM     14  C   UNL     1      -1.744  12.635  22.874  0.00  0.00    +0.000 A 
ATOM     15  C   UNL     1      -3.012  12.160  23.238  0.00  0.00    +0.000 A 
ATOM     16  C   UNL     1      -3.781  12.853  24.176  0.00  0.00    +0.000 A 
ATOM     17  C   UNL     1      -3.297  14.029  24.746  0.00  0.00    +0.000 A 
ATOM     18  C   UNL     1      -2.041  14.514  24.384  0.00  0.00    +0.000 A 
ATOM     19  C   UNL     1      -1.275  13.821  23.449  0.00  0.00    +0.000 A 
ATOM     20  F   UNL     1      -0.107  14.352  23.059  0.00  0.00    +0.000 F 
ENDBRANCH   7  14
BRANCH   1  22
ATOM     21  N   UNL     1       3.076   6.693  18.612  0.00  0.00    +0.000 N 
ATOM     22  C   UNL     1       2.545   7.916  18.250  0.00  0.00    +0.000 C 
ATOM     23  O   UNL     1       2.638   8.405  17.129  0.00  0.00    +0.000 OA
ATOM     24  H   UNL     1       2.710   6.246  19.442  0.00  0.00    +0.000 HD
BRANCH  21  25
ATOM     25  C   UNL     1       3.709   5.886  17.590  0.00  0.00    +0.000 C 
BRANCH  25  26
ATOM     26  C   UNL     1       4.697   4.800  18.103  0.00  0.00    +0.000 C 
BRANCH  26  28
ATOM     27  C   UNL     1       5.926   5.408  16.036  0.00  0.00    +0.000 C 
ATOM     28  N   UNL     1       6.000   4.815  17.371  0.00  0.00    +0.000 NA
ATOM     29  C   UNL     1       7.079   5.438  18.140  0.00  0.00    +0.000 C 
ENDBRANCH  26  28
BRANCH  26  30
ATOM     30  C   UNL     1       4.002   3.398  18.075  0.00  0.00    +0.000 C 
BRANCH  30  31
ATOM     31  C   UNL     1       3.012   3.141  19.190  0.00  0.00    +0.000 A 
ATOM     32  C   UNL     1       1.631   3.254  18.974  0.00  0.00    +0.000 A 
ATOM     33  C   UNL     1       0.736   3.124  20.038  0.00  0.00    +0.000 A 
ATOM     34  C   UNL     1       1.209   2.840  21.317  0.00  0.00    +0.000 A 
ATOM     35  C   UNL     1       2.570   2.642  21.526  0.00  0.00    +0.000 A 
ATOM     36  C   UNL     1       3.467   2.787  20.468  0.00  0.00    +0.000 A 
ENDBRANCH  30  31
ENDBRANCH  26  30
ENDBRANCH  25  26
ENDBRANCH  21  25
ENDBRANCH   1  22
TORSDOF 7
ENDMDL
MODEL 2
REMARK VINA RESULT:      -9.2      1.447      1.727
REMARK  Name = 
REMARK  9 active torsions:
REMARK  status: ('A' for Active; 'I' for Inactive)
REMARK    1  A    between atoms: C_1  and  N_2
REMARK    2  A    between atoms: N_2  and  C_3
REMARK    3  A    between atoms: N_2  and  C_4
REMARK    4  A    between atoms: C_4  and  C_5
REMARK    5  A    between atoms: C_4  and  C_28
REMARK    6  A    between atoms: C_5  and  N_6
REMARK    7  A    between atoms: C_7  and  C_9
REMARK    8  A    between atoms: N_15  and  C_16
REMARK    9  A    between atoms: C_28  and  C_29
REMARK                            x       y       z     vdW  Elec       q    Type
REMARK                         _______ _______ _______ _____ _____    ______ ____
ROOT
ATOM      1  C   UNL     1       2.000   7.874  19.147  0.00  0.00    +0.000 A 
ATOM      2  C   UNL     1       1.768   7.661  20.513  0.00  0.00    +0.000 A 
ATOM      3  C   UNL     1       1.175   8.662  21.275  0.00  0.00    +0.000 A 
ATOM      4  C   UNL     1       0.811   9.872  20.670  0.00  0.00    +0.000 A 
ATOM      5  C   UNL     1       0.202  10.943  21.464  0.00  0.00    +0.000 A 
ATOM      6  O   UNL     1       0.048  10.750  22.667  0.00  0.00    +0.000 OA
ATOM      7  N   UNL     1      -0.188  12.111  20.772  0.00  0.00    +0.000 N 
ATOM      8  C   UNL     1       0.022  12.300  19.399  0.00  0.00    +0.000 A 
ATOM      9  S   UNL     1      -0.298  13.673  18.479  0.00  0.00    +0.000 S 
ATOM     10  N   UNL     1       0.628  11.268  18.725  0.00  0.00    +0.000 N 
ATOM     11  C   UNL     1       1.028  10.074  19.316  0.00  0.00    +0.000 A 
ATOM     12  C   UNL     1       1.639   9.089  18.548  0.00  0.00    +0.000 A 
ATOM     13  H   UNL     1       0.794  11.420  17.735  0.00  0.00    +0.000 HD
ENDROOT
BRANCH   7  14
ATOM     14  C   UNL     1      -0.839  13.107  21.568  0.00  0.00    +0.000 A 
ATOM     15  C   UNL     1      -0.076  14.054  22.268  0.00  0.00    +0.000 A 
ATOM     16  C   UNL     1      -0.701  14.987  23.099  0.00  0.00    +0.000 A 
ATOM     17  C   UNL     1      -2.088  14.975  23.246  0.00  0.00    +0.000 A 
ATOM     18  C   UNL     1      -2.853  14.032  22.561  0.00  0.00    +0.000 A 
ATOM     19  C   UNL     1      -2.228  13.103  21.732  0.00  0.00    +0.000 A 
ATOM     20  F   UNL     1      -2.980  12.157  21.149  0.00  0.00    +0.000 F 
ENDBRANCH   7  14
BRANCH   1  22
ATOM     21  N   UNL     1       4.029   6.886  18.269  0.00  0.00    +0.000 N 
ATOM     22  C   UNL     1       2.649   6.839  18.313  0.00  0.00    +0.000 C 
ATOM     23  O   UNL     1       1.968   5.994  17.743  0.00  0.00    +0.000 OA
ATOM     24  H   UNL     1       4.506   7.419  18.984  0.00  0.00    +0.000 HD
BRANCH  21  25
ATOM     25  C   UNL     1       4.734   5.823  17.585  0.00  0.00    +0.000 C 
BRANCH  25  26
ATOM     26  C   UNL     1       5.333   4.714  18.495  0.00  0.00    +0.000 C 
BRANCH  26  28
ATOM     27  C   UNL     1       7.284   4.518  16.977  0.00  0.00    +0.000 C 
ATOM     28  N   UNL     1       6.815   4.595  18.361  0.00  0.00    +0.000 NA
ATOM     29  C   UNL     1       7.540   5.646  19.081  0.00  0.00    +0.000 C 
ENDBRANCH  26  28
BRANCH  26  30
ATOM     30  C   UNL     1       4.590   3.360  18.235  0.00  0.00    +0.000 C 
BRANCH  30  31
ATOM     31  C   UNL     1       3.251   3.210  18.924  0.00  0.00    +0.000 A 
ATOM     32  C   UNL     1       2.186   2.545  18.302  0.00  0.00    +0.000 A 
ATOM     33  C   UNL     1       0.926   2.511  18.903  0.00  0.00    +0.000 A 
ATOM     34  C   UNL     1       0.729   3.106  20.147  0.00  0.00    +0.000 A 
ATOM     35  C   UNL     1       1.801   3.696  20.811  0.00  0.00    +0.000 A 
ATOM     36  C   UNL     1       3.057   3.743  20.206  0.00  0.00    +0.000 A 
ENDBRANCH  30  31
ENDBRANCH  26  30
ENDBRANCH  25  26
ENDBRANCH  21  25
ENDBRANCH   1  22
TORSDOF 7
ENDMDL
MODEL 3
REMARK VINA RESULT:      -9.1      0.956      1.231
REMARK  Name = 
REMARK  9 active torsions:
REMARK  status: ('A' for Active; 'I' for Inactive)
REMARK    1  A    between atoms: C_1  and  N_2
REMARK    2  A    between atoms: N_2  and  C_3
REMARK    3  A    between atoms: N_2  and  C_4
REMARK    4  A    between atoms: C_4  and  C_5
REMARK    5  A    between atoms: C_4  and  C_28
REMARK    6  A    between atoms: C_5  and  N_6
REMARK    7  A    between atoms: C_7  and  C_9
REMARK    8  A    between atoms: N_15  and  C_16
REMARK    9  A    between atoms: C_28  and  C_29
REMARK                            x       y       z     vdW  Elec       q    Type
REMARK                         _______ _______ _______ _____ _____    ______ ____
ROOT
ATOM      1  C   UNL     1       1.933   7.831  19.188  0.00  0.00    +0.000 A 
ATOM      2  C   UNL     1       1.853   7.503  20.549  0.00  0.00    +0.000 A 
ATOM      3  C   UNL     1       1.255   8.390  21.437  0.00  0.00    +0.000 A 
ATOM      4  C   UNL     1       0.735   9.602  20.964  0.00  0.00    +0.000 A 
ATOM      5  C   UNL     1       0.119  10.556  21.890  0.00  0.00    +0.000 A 
ATOM      6  O   UNL     1       0.098  10.267  23.083  0.00  0.00    +0.000 OA
ATOM      7  N   UNL     1      -0.432  11.729  21.329  0.00  0.00    +0.000 N 
ATOM      8  C   UNL     1      -0.373  12.032  19.962  0.00  0.00    +0.000 A 
ATOM      9  S   UNL     1      -0.894  13.431  19.184  0.00  0.00    +0.000 S 
ATOM     10  N   UNL     1       0.249  11.108  19.157  0.00  0.00    +0.000 N 
ATOM     11  C   UNL     1       0.802   9.917  19.615  0.00  0.00    +0.000 A 
ATOM     12  C   UNL     1       1.416   9.047  18.720  0.00  0.00    +0.000 A 
ATOM     13  H   UNL     1       0.305  11.344  18.171  0.00  0.00    +0.000 HD
ENDROOT
BRANCH   7  14
ATOM     14  C   UNL     1      -1.084  12.605  22.256  0.00  0.00    +0.000 A 
ATOM     15  C   UNL     1      -2.399  12.338  22.666  0.00  0.00    +0.000 A 
ATOM     16  C   UNL     1      -3.064  13.223  23.517  0.00  0.00    +0.000 A 
ATOM     17  C   UNL     1      -2.428  14.384  23.956  0.00  0.00    +0.000 A 
ATOM     18  C   UNL     1      -1.125  14.661  23.547  0.00  0.00    +0.000 A 
ATOM     19  C   UNL     1      -0.462  13.777  22.699  0.00  0.00    +0.000 A 
ATOM     20  F   UNL     1       0.760  14.108  22.257  0.00  0.00    +0.000 F 
ENDBRANCH   7  14
BRANCH   1  22
ATOM     21  N   UNL     1       3.962   6.971  18.185  0.00  0.00    +0.000 N 
ATOM     22  C   UNL     1       2.582   6.920  18.220  0.00  0.00    +0.000 C 
ATOM     23  O   UNL     1       1.901   6.161  17.540  0.00  0.00    +0.000 OA
ATOM     24  H   UNL     1       4.439   7.400  18.966  0.00  0.00    +0.000 HD
BRANCH  21  25
ATOM     25  C   UNL     1       4.668   6.012  17.362  0.00  0.00    +0.000 C 
BRANCH  25  26
ATOM     26  C   UNL     1       5.289   4.802  18.115  0.00  0.00    +0.000 C 
BRANCH  26  28
ATOM     27  C   UNL     1       7.018   4.709  16.341  0.00  0.00    +0.000 C 
ATOM     28  N   UNL     1       6.724   4.581  17.768  0.00  0.00    +0.000 NA
ATOM     29  C   UNL     1       7.636   5.422  18.547  0.00  0.00    +0.000 C 
ENDBRANCH  26  28
BRANCH  26  30
ATOM     30  C   UNL     1       4.407   3.529  17.888  0.00  0.00    +0.000 C 
BRANCH  30  31
ATOM     31  C   UNL     1       3.188   3.414  18.778  0.00  0.00    +0.000 A 
ATOM     32  C   UNL     1       3.203   3.898  20.094  0.00  0.00    +0.000 A 
ATOM     33  C   UNL     1       2.110   3.684  20.936  0.00  0.00    +0.000 A 
ATOM     34  C   UNL     1       0.980   3.023  20.462  0.00  0.00    +0.000 A 
ATOM     35  C   UNL     1       0.923   2.613  19.133  0.00  0.00    +0.000 A 
ATOM     36  C   UNL     1       2.019   2.811  18.293  0.00  0.00    +0.000 A 
ENDBRANCH  30  31
ENDBRANCH  26  30
ENDBRANCH  25  26
ENDBRANCH  21  25
ENDBRANCH   1  22
TORSDOF 7
ENDMDL
MODEL 4
REMARK VINA RESULT:      -9.0      0.419      1.029
REMARK  Name = 
REMARK  9 active torsions:
REMARK  status: ('A' for Active; 'I' for Inactive)
REMARK    1  A    between atoms: C_1  and  N_2
REMARK    2  A    between atoms: N_2  and  C_3
REMARK    3  A    between atoms: N_2  and  C_4
REMARK    4  A    between atoms: C_4  and  C_5
REMARK    5  A    between atoms: C_4  and  C_28
REMARK    6  A    between atoms: C_5  and  N_6
REMARK    7  A    between atoms: C_7  and  C_9
REMARK    8  A    between atoms: N_15  and  C_16
REMARK    9  A    between atoms: C_28  and  C_29
REMARK                            x       y       z     vdW  Elec       q    Type
REMARK                         _______ _______ _______ _____ _____    ______ ____
ROOT
ATOM      1  C   UNL     1       1.739   8.693  19.275  0.00  0.00    +0.000 A 
ATOM      2  C   UNL     1       1.689   8.179  20.578  0.00  0.00    +0.000 A 
ATOM      3  C   UNL     1       0.999   8.873  21.566  0.00  0.00    +0.000 A 
ATOM      4  C   UNL     1       0.356  10.077  21.249  0.00  0.00    +0.000 A 
ATOM      5  C   UNL     1      -0.360  10.830  22.283  0.00  0.00    +0.000 A 
ATOM      6  O   UNL     1      -0.353  10.383  23.426  0.00  0.00    +0.000 OA
ATOM      7  N   UNL     1      -1.028  12.004  21.873  0.00  0.00    +0.000 N 
ATOM      8  C   UNL     1      -0.997  12.492  20.560  0.00  0.00    +0.000 A 
ATOM      9  S   UNL     1      -1.659  13.921  19.966  0.00  0.00    +0.000 S 
ATOM     10  N   UNL     1      -0.279  11.753  19.650  0.00  0.00    +0.000 N 
ATOM     11  C   UNL     1       0.395  10.576  19.955  0.00  0.00    +0.000 A 
ATOM     12  C   UNL     1       1.099   9.901  18.963  0.00  0.00    +0.000 A 
ATOM     13  H   UNL     1      -0.245  12.123  18.705  0.00  0.00    +0.000 HD
ENDROOT
BRANCH   7  14
ATOM     14  C   UNL     1      -1.772  12.676  22.897  0.00  0.00    +0.000 A 
ATOM     15  C   UNL     1      -3.039  12.202  23.268  0.00  0.00    +0.000 A 
ATOM     16  C   UNL     1      -3.797  12.890  24.218  0.00  0.00    +0.000 A 
ATOM     17  C   UNL     1      -3.303  14.059  24.795  0.00  0.00    +0.000 A 
ATOM     18  C   UNL     1      -2.048  14.542  24.425  0.00  0.00    +0.000 A 
ATOM     19  C   UNL     1      -1.293  13.854  23.479  0.00  0.00    +0.000 A 
ATOM     20  F   UNL     1      -0.126  14.384  23.083  0.00  0.00    +0.000 F 
ENDBRANCH   7  14
BRANCH   1  22
ATOM     21  N   UNL     1       3.100   6.814  18.581  0.00  0.00    +0.000 N 
ATOM     22  C   UNL     1       2.483   7.992  18.206  0.00  0.00    +0.000 C 
ATOM     23  O   UNL     1       2.496   8.446  17.067  0.00  0.00    +0.000 OA
ATOM     24  H   UNL     1       2.800   6.378  19.442  0.00  0.00    +0.000 HD
BRANCH  21  25
ATOM     25  C   UNL     1       3.729   6.007  17.557  0.00  0.00    +0.000 C 
BRANCH  25  26
ATOM     26  C   UNL     1       4.849   5.046  18.046  0.00  0.00    +0.000 C 
BRANCH  26  28
ATOM     27  C   UNL     1       7.320   4.871  17.930  0.00  0.00    +0.000 C 
ATOM     28  N   UNL     1       6.076   5.111  17.198  0.00  0.00    +0.000 NA
ATOM     29  C   UNL     1       6.006   4.236  16.024  0.00  0.00    +0.000 C 
ENDBRANCH  26  28
BRANCH  26  30
ATOM     30  C   UNL     1       4.278   3.594  18.178  0.00  0.00    +0.000 C 
BRANCH  30  31
ATOM     31  C   UNL     1       3.074   3.448  19.082  0.00  0.00    +0.000 A 
ATOM     32  C   UNL     1       3.139   3.797  20.439  0.00  0.00    +0.000 A 
ATOM     33  C   UNL     1       2.055   3.551  21.284  0.00  0.00    +0.000 A 
ATOM     34  C   UNL     1       0.884   2.994  20.775  0.00  0.00    +0.000 A 
ATOM     35  C   UNL     1       0.780   2.722  19.414  0.00  0.00    +0.000 A 
ATOM     36  C   UNL     1       1.867   2.952  18.571  0.00  0.00    +0.000 A 
ENDBRANCH  30  31
ENDBRANCH  26  30
ENDBRANCH  25  26
ENDBRANCH  21  25
ENDBRANCH   1  22
TORSDOF 7
ENDMDL
MODEL 5
REMARK VINA RESULT:      -8.9      0.994      1.378
REMARK  Name = 
REMARK  9 active torsions:
REMARK  status: ('A' for Active; 'I' for Inactive)
REMARK    1  A    between atoms: C_1  and  N_2
REMARK    2  A    between atoms: N_2  and  C_3
REMARK    3  A    between atoms: N_2  and  C_4
REMARK    4  A    between atoms: C_4  and  C_5
REMARK    5  A    between atoms: C_4  and  C_28
REMARK    6  A    between atoms: C_5  and  N_6
REMARK    7  A    between atoms: C_7  and  C_9
REMARK    8  A    between atoms: N_15  and  C_16
REMARK    9  A    between atoms: C_28  and  C_29
REMARK                            x       y       z     vdW  Elec       q    Type
REMARK                         _______ _______ _______ _____ _____    ______ ____
ROOT
ATOM      1  C   UNL     1       1.430   9.104  19.408  0.00  0.00    +0.000 A 
ATOM      2  C   UNL     1       1.158   8.527  20.656  0.00  0.00    +0.000 A 
ATOM      3  C   UNL     1       0.482   9.264  21.622  0.00  0.00    +0.000 A 
ATOM      4  C   UNL     1       0.075  10.574  21.338  0.00  0.00    +0.000 A 
ATOM      5  C   UNL     1      -0.622  11.369  22.352  0.00  0.00    +0.000 A 
ATOM      6  O   UNL     1      -0.811  10.859  23.452  0.00  0.00    +0.000 OA
ATOM      7  N   UNL     1      -1.049  12.661  21.971  0.00  0.00    +0.000 N 
ATOM      8  C   UNL     1      -0.798  13.216  20.709  0.00  0.00    +0.000 A 
ATOM      9  S   UNL     1      -1.158  14.768  20.165  0.00  0.00    +0.000 S 
ATOM     10  N   UNL     1      -0.110  12.425  19.820  0.00  0.00    +0.000 N 
ATOM     11  C   UNL     1       0.333  11.137  20.097  0.00  0.00    +0.000 A 
ATOM     12  C   UNL     1       1.026  10.417  19.130  0.00  0.00    +0.000 A 
ATOM     13  H   UNL     1       0.085  12.842  18.914  0.00  0.00    +0.000 HD
ENDROOT
BRANCH   7  14
ATOM     14  C   UNL     1      -1.785  13.382  22.966  0.00  0.00    +0.000 A 
ATOM     15  C   UNL     1      -1.122  14.286  23.809  0.00  0.00    +0.000 A 
ATOM     16  C   UNL     1      -1.821  14.943  24.825  0.00  0.00    +0.000 A 
ATOM     17  C   UNL     1      -3.180  14.695  25.013  0.00  0.00    +0.000 A 
ATOM     18  C   UNL     1      -3.844  13.791  24.185  0.00  0.00    +0.000 A 
ATOM     19  C   UNL     1      -3.147  13.138  23.172  0.00  0.00    +0.000 A 
ATOM     20  F   UNL     1      -3.791  12.215  22.443  0.00  0.00    +0.000 F 
ENDBRANCH   7  14
BRANCH   1  22
ATOM     21  N   UNL     1       2.648   7.118  18.747  0.00  0.00    +0.000 N 
ATOM     22  C   UNL     1       2.167   8.356  18.366  0.00  0.00    +0.000 C 
ATOM     23  O   UNL     1       2.289   8.828  17.241  0.00  0.00    +0.000 OA
ATOM     24  H   UNL     1       2.258   6.695  19.578  0.00  0.00    +0.000 HD
BRANCH  21  25
ATOM     25  C   UNL     1       3.258   6.275  17.740  0.00  0.00    +0.000 C 
BRANCH  25  26
ATOM     26  C   UNL     1       4.459   5.411  18.219  0.00  0.00    +0.000 C 
BRANCH  26  28
ATOM     27  C   UNL     1       6.703   4.631  17.509  0.00  0.00    +0.000 C 
ATOM     28  N   UNL     1       5.719   5.713  17.477  0.00  0.00    +0.000 NA
ATOM     29  C   UNL     1       5.481   6.135  16.094  0.00  0.00    +0.000 C 
ENDBRANCH  26  28
BRANCH  26  30
ATOM     30  C   UNL     1       4.072   3.895  18.166  0.00  0.00    +0.000 C 
BRANCH  30  31
ATOM     31  C   UNL     1       3.069   3.442  19.204  0.00  0.00    +0.000 A 
ATOM     32  C   UNL     1       1.697   3.408  18.920  0.00  0.00    +0.000 A 
ATOM     33  C   UNL     1       0.776   3.096  19.922  0.00  0.00    +0.000 A 
ATOM     34  C   UNL     1       1.219   2.776  21.204  0.00  0.00    +0.000 A 
ATOM     35  C   UNL     1       2.583   2.724  21.473  0.00  0.00    +0.000 A 
ATOM     36  C   UNL     1       3.504   3.051  20.478  0.00  0.00    +0.000 A 
ENDBRANCH  30  31
ENDBRANCH  26  30
ENDBRANCH  25  26
ENDBRANCH  21  25
ENDBRANCH   1  22
TORSDOF 7
ENDMDL
MODEL 6
REMARK VINA RESULT:      -8.9      0.990      1.153
REMARK  Name = 
REMARK  9 active torsions:
REMARK  status: ('A' for Active; 'I' for Inactive)
REMARK    1  A    between atoms: C_1  and  N_2
REMARK    2  A    between atoms: N_2  and  C_3
REMARK    3  A    between atoms: N_2  and  C_4
REMARK    4  A    between atoms: C_4  and  C_5
REMARK    5  A    between atoms: C_4  and  C_28
REMARK    6  A    between atoms: C_5  and  N_6
REMARK    7  A    between atoms: C_7  and  C_9
REMARK    8  A    between atoms: N_15  and  C_16
REMARK    9  A    between atoms: C_28  and  C_29
REMARK                            x       y       z     vdW  Elec       q    Type
REMARK                         _______ _______ _______ _____ _____    ______ ____
ROOT
ATOM      1  C   UNL     1       1.853   8.015  19.388  0.00  0.00    +0.000 A 
ATOM      2  C   UNL     1       1.803   7.646  20.740  0.00  0.00    +0.000 A 
ATOM      3  C   UNL     1       1.151   8.468  21.653  0.00  0.00    +0.000 A 
ATOM      4  C   UNL     1       0.548   9.654  21.214  0.00  0.00    +0.000 A 
ATOM      5  C   UNL     1      -0.126  10.540  22.167  0.00  0.00    +0.000 A 
ATOM      6  O   UNL     1      -0.119  10.219  23.353  0.00  0.00    +0.000 OA
ATOM      7  N   UNL     1      -0.757  11.687  21.639  0.00  0.00    +0.000 N 
ATOM      8  C   UNL     1      -0.727  12.029  20.281  0.00  0.00    +0.000 A 
ATOM      9  S   UNL     1      -1.345  13.409  19.542  0.00  0.00    +0.000 S 
ATOM     10  N   UNL     1      -0.048  11.170  19.450  0.00  0.00    +0.000 N 
ATOM     11  C   UNL     1       0.587  10.008  19.873  0.00  0.00    +0.000 A 
ATOM     12  C   UNL     1       1.253   9.205  18.954  0.00  0.00    +0.000 A 
ATOM     13  H   UNL     1      -0.014  11.434  18.469  0.00  0.00    +0.000 HD
ENDROOT
BRANCH   7  14
ATOM     14  C   UNL     1      -1.462  12.493  22.592  0.00  0.00    +0.000 A 
ATOM     15  C   UNL     1      -2.757  12.132  22.993  0.00  0.00    +0.000 A 
ATOM     16  C   UNL     1      -3.475  12.948  23.870  0.00  0.00    +0.000 A 
ATOM     17  C   UNL     1      -2.912  14.133  24.343  0.00  0.00    +0.000 A 
ATOM     18  C   UNL     1      -1.629  14.503  23.943  0.00  0.00    +0.000 A 
ATOM     19  C   UNL     1      -0.914  13.688  23.069  0.00  0.00    +0.000 A 
ATOM     20  F   UNL     1       0.285  14.107  22.638  0.00  0.00    +0.000 F 
ENDBRANCH   7  14
BRANCH   1  22
ATOM     21  N   UNL     1       3.824   7.598  18.045  0.00  0.00    +0.000 N 
ATOM     22  C   UNL     1       2.556   7.174  18.394  0.00  0.00    +0.000 C 
ATOM     23  O   UNL     1       2.024   6.158  17.962  0.00  0.00    +0.000 OA
ATOM     24  H   UNL     1       4.284   8.262  18.652  0.00  0.00    +0.000 HD
BRANCH  21  25
ATOM     25  C   UNL     1       4.621   6.751  17.183  0.00  0.00    +0.000 C 
BRANCH  25  26
ATOM     26  C   UNL     1       5.396   5.604  17.892  0.00  0.00    +0.000 C 
BRANCH  26  28
ATOM     27  C   UNL     1       7.299   7.028  17.184  0.00  0.00    +0.000 C 
ATOM     28  N   UNL     1       6.877   5.790  17.840  0.00  0.00    +0.000 NA
ATOM     29  C   UNL     1       7.514   5.674  19.154  0.00  0.00    +0.000 C 
ENDBRANCH  26  28
BRANCH  26  30
ATOM     30  C   UNL     1       4.938   4.223  17.317  0.00  0.00    +0.000 C 
BRANCH  30  31
ATOM     31  C   UNL     1       3.896   3.491  18.134  0.00  0.00    +0.000 A 
ATOM     32  C   UNL     1       2.853   2.786  17.517  0.00  0.00    +0.000 A 
ATOM     33  C   UNL     1       1.839   2.210  18.284  0.00  0.00    +0.000 A 
ATOM     34  C   UNL     1       1.878   2.298  19.674  0.00  0.00    +0.000 A 
ATOM     35  C   UNL     1       2.953   2.923  20.300  0.00  0.00    +0.000 A 
ATOM     36  C   UNL     1       3.959   3.512  19.535  0.00  0.00    +0.000 A 
ENDBRANCH  30  31
ENDBRANCH  26  30
ENDBRANCH  25  26
ENDBRANCH  21  25
ENDBRANCH   1  22
TORSDOF 7
ENDMDL
MODEL 7
REMARK VINA RESULT:      -8.7      1.005      2.956
REMARK  Name = 
REMARK  9 active torsions:
REMARK  status: ('A' for Active; 'I' for Inactive)
REMARK    1  A    between atoms: C_1  and  N_2
REMARK    2  A    between atoms: N_2  and  C_3
REMARK    3  A    between atoms: N_2  and  C_4
REMARK    4  A    between atoms: C_4  and  C_5
REMARK    5  A    between atoms: C_4  and  C_28
REMARK    6  A    between atoms: C_5  and  N_6
REMARK    7  A    between atoms: C_7  and  C_9
REMARK    8  A    between atoms: N_15  and  C_16
REMARK    9  A    between atoms: C_28  and  C_29
REMARK                            x       y       z     vdW  Elec       q    Type
REMARK                         _______ _______ _______ _____ _____    ______ ____
ROOT
ATOM      1  C   UNL     1       1.669   8.319  19.616  0.00  0.00    +0.000 A 
ATOM      2  C   UNL     1       1.629   7.921  20.959  0.00  0.00    +0.000 A 
ATOM      3  C   UNL     1       0.955   8.704  21.890  0.00  0.00    +0.000 A 
ATOM      4  C   UNL     1       0.318   9.881  21.475  0.00  0.00    +0.000 A 
ATOM      5  C   UNL     1      -0.381  10.727  22.447  0.00  0.00    +0.000 A 
ATOM      6  O   UNL     1      -0.365  10.382  23.626  0.00  0.00    +0.000 OA
ATOM      7  N   UNL     1      -1.044  11.867  21.944  0.00  0.00    +0.000 N 
ATOM      8  C   UNL     1      -1.024  12.239  20.593  0.00  0.00    +0.000 A 
ATOM      9  S   UNL     1      -1.681  13.617  19.884  0.00  0.00    +0.000 S 
ATOM     10  N   UNL     1      -0.321  11.418  19.744  0.00  0.00    +0.000 N 
ATOM     11  C   UNL     1       0.346  10.265  20.143  0.00  0.00    +0.000 A 
ATOM     12  C   UNL     1       1.035   9.501  19.207  0.00  0.00    +0.000 A 
ATOM     13  H   UNL     1      -0.295  11.704  18.770  0.00  0.00    +0.000 HD
ENDROOT
BRANCH   7  14
ATOM     14  C   UNL     1      -1.771  12.632  22.913  0.00  0.00    +0.000 A 
ATOM     15  C   UNL     1      -3.053  12.223  23.310  0.00  0.00    +0.000 A 
ATOM     16  C   UNL     1      -3.794  12.999  24.204  0.00  0.00    +0.000 A 
ATOM     17  C   UNL     1      -3.268  14.192  24.699  0.00  0.00    +0.000 A 
ATOM     18  C   UNL     1      -1.998  14.610  24.303  0.00  0.00    +0.000 A 
ATOM     19  C   UNL     1      -1.260  13.834  23.412  0.00  0.00    +0.000 A 
ATOM     20  F   UNL     1      -0.076  14.300  22.987  0.00  0.00    +0.000 F 
ENDBRANCH   7  14
BRANCH   1  22
ATOM     21  N   UNL     1       2.293   6.150  18.739  0.00  0.00    +0.000 N 
ATOM     22  C   UNL     1       2.396   7.521  18.604  0.00  0.00    +0.000 C 
ATOM     23  O   UNL     1       3.008   8.083  17.702  0.00  0.00    +0.000 OA
ATOM     24  H   UNL     1       1.549   5.787  19.318  0.00  0.00    +0.000 HD
BRANCH  21  25
ATOM     25  C   UNL     1       2.864   5.311  17.707  0.00  0.00    +0.000 C 
BRANCH  25  26
ATOM     26  C   UNL     1       2.763   3.778  17.949  0.00  0.00    +0.000 C 
BRANCH  26  28
ATOM     27  C   UNL     1       0.802   2.548  18.837  0.00  0.00    +0.000 C 
ATOM     28  N   UNL     1       1.926   3.436  19.137  0.00  0.00    +0.000 NA
ATOM     29  C   UNL     1       2.709   2.897  20.252  0.00  0.00    +0.000 C 
ENDBRANCH  26  28
BRANCH  26  30
ATOM     30  C   UNL     1       4.199   3.160  18.021  0.00  0.00    +0.000 C 
BRANCH  30  31
ATOM     31  C   UNL     1       5.339   4.154  17.979  0.00  0.00    +0.000 A 
ATOM     32  C   UNL     1       6.001   4.448  16.778  0.00  0.00    +0.000 A 
ATOM     33  C   UNL     1       7.121   5.282  16.775  0.00  0.00    +0.000 A 
ATOM     34  C   UNL     1       7.565   5.860  17.961  0.00  0.00    +0.000 A 
ATOM     35  C   UNL     1       6.865   5.642  19.144  0.00  0.00    +0.000 A 
ATOM     36  C   UNL     1       5.755   4.797  19.153  0.00  0.00    +0.000 A 
ENDBRANCH  30  31
ENDBRANCH  26  30
ENDBRANCH  25  26
ENDBRANCH  21  25
ENDBRANCH   1  22
TORSDOF 7
ENDMDL
MODEL 8
REMARK VINA RESULT:      -8.7      1.115      1.562
REMARK  Name = 
REMARK  9 active torsions:
REMARK  status: ('A' for Active; 'I' for Inactive)
REMARK    1  A    between atoms: C_1  and  N_2
REMARK    2  A    between atoms: N_2  and  C_3
REMARK    3  A    between atoms: N_2  and  C_4
REMARK    4  A    between atoms: C_4  and  C_5
REMARK    5  A    between atoms: C_4  and  C_28
REMARK    6  A    between atoms: C_5  and  N_6
REMARK    7  A    between atoms: C_7  and  C_9
REMARK    8  A    between atoms: N_15  and  C_16
REMARK    9  A    between atoms: C_28  and  C_29
REMARK                            x       y       z     vdW  Elec       q    Type
REMARK                         _______ _______ _______ _____ _____    ______ ____
ROOT
ATOM      1  C   UNL     1       1.477   9.098  19.362  0.00  0.00    +0.000 A 
ATOM      2  C   UNL     1       1.202   8.516  20.608  0.00  0.00    +0.000 A 
ATOM      3  C   UNL     1       0.522   9.250  21.575  0.00  0.00    +0.000 A 
ATOM      4  C   UNL     1       0.116  10.560  21.294  0.00  0.00    +0.000 A 
ATOM      5  C   UNL     1      -0.585  11.352  22.308  0.00  0.00    +0.000 A 
ATOM      6  O   UNL     1      -0.777  10.838  23.407  0.00  0.00    +0.000 OA
ATOM      7  N   UNL     1      -1.011  12.645  21.931  0.00  0.00    +0.000 N 
ATOM      8  C   UNL     1      -0.757  13.204  20.672  0.00  0.00    +0.000 A 
ATOM      9  S   UNL     1      -1.116  14.758  20.132  0.00  0.00    +0.000 S 
ATOM     10  N   UNL     1      -0.066  12.417  19.782  0.00  0.00    +0.000 N 
ATOM     11  C   UNL     1       0.377  11.128  20.055  0.00  0.00    +0.000 A 
ATOM     12  C   UNL     1       1.073  10.412  19.088  0.00  0.00    +0.000 A 
ATOM     13  H   UNL     1       0.131  12.837  18.878  0.00  0.00    +0.000 HD
ENDROOT
BRANCH   7  14
ATOM     14  C   UNL     1      -1.750  13.362  22.926  0.00  0.00    +0.000 A 
ATOM     15  C   UNL     1      -1.093  14.272  23.767  0.00  0.00    +0.000 A 
ATOM     16  C   UNL     1      -1.793  14.926  24.783  0.00  0.00    +0.000 A 
ATOM     17  C   UNL     1      -3.150  14.668  24.975  0.00  0.00    +0.000 A 
ATOM     18  C   UNL     1      -3.810  13.758  24.150  0.00  0.00    +0.000 A 
ATOM     19  C   UNL     1      -3.109  13.108  23.136  0.00  0.00    +0.000 A 
ATOM     20  F   UNL     1      -3.749  12.179  22.410  0.00  0.00    +0.000 F 
ENDBRANCH   7  14
BRANCH   1  22
ATOM     21  N   UNL     1       2.784   7.161  18.726  0.00  0.00    +0.000 N 
ATOM     22  C   UNL     1       2.218   8.354  18.320  0.00  0.00    +0.000 C 
ATOM     23  O   UNL     1       2.269   8.788  17.175  0.00  0.00    +0.000 OA
ATOM     24  H   UNL     1       2.451   6.749  19.587  0.00  0.00    +0.000 HD
BRANCH  21  25
ATOM     25  C   UNL     1       3.404   6.316  17.727  0.00  0.00    +0.000 C 
BRANCH  25  26
ATOM     26  C   UNL     1       4.750   5.656  18.141  0.00  0.00    +0.000 C 
BRANCH  26  28
ATOM     27  C   UNL     1       5.359   5.985  15.760  0.00  0.00    +0.000 C 
ATOM     28  N   UNL     1       5.835   5.880  17.139  0.00  0.00    +0.000 NA
ATOM     29  C   UNL     1       6.686   7.027  17.466  0.00  0.00    +0.000 C 
ENDBRANCH  26  28
BRANCH  26  30
ATOM     30  C   UNL     1       4.520   4.140  18.457  0.00  0.00    +0.000 C 
BRANCH  30  31
ATOM     31  C   UNL     1       3.160   3.793  19.021  0.00  0.00    +0.000 A 
ATOM     32  C   UNL     1       2.824   4.100  20.348  0.00  0.00    +0.000 A 
ATOM     33  C   UNL     1       1.609   3.674  20.886  0.00  0.00    +0.000 A 
ATOM     34  C   UNL     1       0.702   2.972  20.095  0.00  0.00    +0.000 A 
ATOM     35  C   UNL     1       0.989   2.735  18.753  0.00  0.00    +0.000 A 
ATOM     36  C   UNL     1       2.209   3.148  18.218  0.00  0.00    +0.000 A 
ENDBRANCH  30  31
ENDBRANCH  26  30
ENDBRANCH  25  26
ENDBRANCH  21  25
ENDBRANCH   1  22
TORSDOF 7
ENDMDL
MODEL 9
REMARK VINA RESULT:      -8.6      2.102      2.555
REMARK  Name = 
REMARK  9 active torsions:
REMARK  status: ('A' for Active; 'I' for Inactive)
REMARK    1  A    between atoms: C_1  and  N_2
REMARK    2  A    between atoms: N_2  and  C_3
REMARK    3  A    between atoms: N_2  and  C_4
REMARK    4  A    between atoms: C_4  and  C_5
REMARK    5  A    between atoms: C_4  and  C_28
REMARK    6  A    between atoms: C_5  and  N_6
REMARK    7  A    between atoms: C_7  and  C_9
REMARK    8  A    between atoms: N_15  and  C_16
REMARK    9  A    between atoms: C_28  and  C_29
REMARK                            x       y       z     vdW  Elec       q    Type
REMARK                         _______ _______ _______ _____ _____    ______ ____
ROOT
ATOM      1  C   UNL     1       2.240   8.006  18.393  0.00  0.00    +0.000 A 
ATOM      2  C   UNL     1       2.375   9.105  17.533  0.00  0.00    +0.000 A 
ATOM      3  C   UNL     1       1.825  10.331  17.892  0.00  0.00    +0.000 A 
ATOM      4  C   UNL     1       1.147  10.457  19.111  0.00  0.00    +0.000 A 
ATOM      5  C   UNL     1       0.546  11.738  19.495  0.00  0.00    +0.000 A 
ATOM      6  O   UNL     1       0.638  12.675  18.707  0.00  0.00    +0.000 OA
ATOM      7  N   UNL     1      -0.073  11.800  20.763  0.00  0.00    +0.000 N 
ATOM      8  C   UNL     1      -0.174  10.702  21.628  0.00  0.00    +0.000 A 
ATOM      9  S   UNL     1      -0.968  10.615  23.110  0.00  0.00    +0.000 S 
ATOM     10  N   UNL     1       0.382   9.525  21.188  0.00  0.00    +0.000 N 
ATOM     11  C   UNL     1       1.028   9.372  19.966  0.00  0.00    +0.000 A 
ATOM     12  C   UNL     1       1.556   8.136  19.609  0.00  0.00    +0.000 A 
ATOM     13  H   UNL     1       0.289   8.729  21.812  0.00  0.00    +0.000 HD
ENDROOT
BRANCH   7  14
ATOM     14  C   UNL     1      -0.589  13.085  21.131  0.00  0.00    +0.000 A 
ATOM     15  C   UNL     1      -1.934  13.396  20.885  0.00  0.00    +0.000 A 
ATOM     16  C   UNL     1      -2.428  14.668  21.180  0.00  0.00    +0.000 A 
ATOM     17  C   UNL     1      -1.583  15.642  21.711  0.00  0.00    +0.000 A 
ATOM     18  C   UNL     1      -0.242  15.344  21.951  0.00  0.00    +0.000 A 
ATOM     19  C   UNL     1       0.249  14.074  21.657  0.00  0.00    +0.000 A 
ATOM     20  F   UNL     1       1.559  13.840  21.821  0.00  0.00    +0.000 F 
ENDBRANCH   7  14
BRANCH   1  22
ATOM     21  N   UNL     1       4.172   6.609  17.963  0.00  0.00    +0.000 N 
ATOM     22  C   UNL     1       2.794   6.682  18.031  0.00  0.00    +0.000 C 
ATOM     23  O   UNL     1       2.041   5.732  17.846  0.00  0.00    +0.000 OA
ATOM     24  H   UNL     1       4.706   7.344  18.406  0.00  0.00    +0.000 HD
BRANCH  21  25
ATOM     25  C   UNL     1       4.784   5.315  17.750  0.00  0.00    +0.000 C 
BRANCH  25  26
ATOM     26  C   UNL     1       5.492   4.690  18.986  0.00  0.00    +0.000 C 
BRANCH  26  28
ATOM     27  C   UNL     1       7.440   4.569  17.455  0.00  0.00    +0.000 C 
ATOM     28  N   UNL     1       6.978   4.652  18.841  0.00  0.00    +0.000 NA
ATOM     29  C   UNL     1       7.647   5.760  19.528  0.00  0.00    +0.000 C 
ENDBRANCH  26  28
BRANCH  26  30
ATOM     30  C   UNL     1       4.877   3.284  19.292  0.00  0.00    +0.000 C 
BRANCH  30  31
ATOM     31  C   UNL     1       3.388   3.269  19.559  0.00  0.00    +0.000 A 
ATOM     32  C   UNL     1       2.828   4.042  20.587  0.00  0.00    +0.000 A 
ATOM     33  C   UNL     1       1.470   3.933  20.893  0.00  0.00    +0.000 A 
ATOM     34  C   UNL     1       0.652   3.083  20.151  0.00  0.00    +0.000 A 
ATOM     35  C   UNL     1       1.181   2.375  19.076  0.00  0.00    +0.000 A 
ATOM     36  C   UNL     1       2.541   2.471  18.778  0.00  0.00    +0.000 A 
ENDBRANCH  30  31
ENDBRANCH  26  30
ENDBRANCH  25  26
ENDBRANCH  21  25
ENDBRANCH   1  22
TORSDOF 7
ENDMDL
