MODEL 1
REMARK VINA RESULT:      -9.7      0.000      0.000
REMARK  Name = 
REMARK  7 active torsions:
REMARK  status: ('A' for Active; 'I' for Inactive)
REMARK    1  A    between atoms: C_2  and  C_3
REMARK    2  A    between atoms: C_6  and  N_7
REMARK    3  A    between atoms: N_7  and  S_8
REMARK    4  A    between atoms: S_8  and  C_11
REMARK    5  A    between atoms: C_26  and  O_27
REMARK    6  A    between atoms: C_26  and  C_28
REMARK    7  A    between atoms: C_28  and  C_29
REMARK                            x       y       z     vdW  Elec       q    Type
REMARK                         _______ _______ _______ _____ _____    ______ ____
ROOT
ATOM      1  C   UNL     1       2.583   6.599  18.594  0.00  0.00    +0.000 A 
ATOM      2  C   UNL     1       2.399   7.566  17.603  0.00  0.00    +0.000 A 
ATOM      3  C   UNL     1       1.806   8.792  17.904  0.00  0.00    +0.000 A 
ATOM      4  C   UNL     1       1.506   9.101  19.228  0.00  0.00    +0.000 A 
ATOM      5  C   UNL     1       1.764   8.182  20.243  0.00  0.00    +0.000 A 
ATOM      6  C   UNL     1       2.298   6.929  19.928  0.00  0.00    +0.000 A 
ENDROOT
BRANCH   1   8
ATOM      7  O   UNL     1       2.301   4.326  18.186  0.00  0.00    +0.000 OA
ATOM      8  C   UNL     1       3.116   5.235  18.297  0.00  0.00    +0.000 C 
ATOM      9  N   UNL     1       4.494   5.045  18.116  0.00  0.00    +0.000 N 
ATOM     10  C   UNL     1       4.967   3.721  17.739  0.00  0.00    +0.000 C 
ATOM     11  C   UNL     1       5.383   3.703  16.261  0.00  0.00    +0.000 C 
ATOM     12  C   UNL     1       6.365   4.836  15.892  0.00  0.00    +0.000 C 
ATOM     13  C   UNL     1       5.912   6.185  16.476  0.00  0.00    +0.000 C 
ATOM     14  C   UNL     1       5.510   6.079  17.937  0.00  0.00    +0.000 C 
BRANCH  12  15
ATOM     15  O   UNL     1       7.643   4.570  16.474  0.00  0.00    +0.000 OA
ATOM     16  H   UNL     1       7.618   3.688  16.882  0.00  0.00    +0.000 HD
ENDBRANCH  12  15
BRANCH  12  17
ATOM     17  C   UNL     1       6.527   5.037  14.361  0.00  0.00    +0.000 C 
BRANCH  17  18
ATOM     18  C   UNL     1       6.282   3.780  13.531  0.00  0.00    +0.000 C 
ATOM     19  C   UNL     1       4.906   3.723  12.799  0.00  0.00    +0.000 C 
ATOM     20  C   UNL     1       5.622   2.923  11.691  0.00  0.00    +0.000 C 
ATOM     21  C   UNL     1       6.918   3.646  12.118  0.00  0.00    +0.000 C 
ENDBRANCH  17  18
ENDBRANCH  12  17
ENDBRANCH   1   8
BRANCH   4  22
ATOM     22  N   UNL     1       1.038  10.388  19.583  0.00  0.00    +0.000 N 
ATOM     23  H   UNL     1       0.833  11.034  18.822  0.00  0.00    +0.000 HD
BRANCH  22  24
ATOM     24  S   UNL     1      -0.075  10.565  20.826  0.00  0.00    +0.000 S 
ATOM     25  O   UNL     1      -0.581   9.244  21.128  0.00  0.00    +0.000 OA
ATOM     26  O   UNL     1       0.564  11.330  21.883  0.00  0.00    +0.000 OA
BRANCH  24  27
ATOM     27  C   UNL     1      -1.407  11.539  20.177  0.00  0.00    +0.000 A 
ATOM     28  C   UNL     1      -1.981  12.489  21.044  0.00  0.00    +0.000 A 
ATOM     29  C   UNL     1      -3.189  13.089  20.718  0.00  0.00    +0.000 A 
ATOM     30  C   UNL     1      -3.848  12.695  19.564  0.00  0.00    +0.000 A 
ATOM     31  C   UNL     1      -3.279  11.738  18.709  0.00  0.00    +0.000 A 
ATOM     32  C   UNL     1      -4.015  11.272  17.614  0.00  0.00    +0.000 A 
ATOM     33  C   UNL     1      -3.454  10.346  16.752  0.00  0.00    +0.000 A 
ATOM     34  C   UNL     1      -2.146   9.970  16.974  0.00  0.00    +0.000 A 
ATOM     35  N   UNL     1      -1.423  10.363  18.050  0.00  0.00    +0.000 NA
ATOM     36  C   UNL     1      -1.997  11.190  18.959  0.00  0.00    +0.000 A 
ENDBRANCH  24  27
ENDBRANCH  22  24
ENDBRANCH   4  22
TORSDOF 7
ENDMDL
MODEL 2
REMARK VINA RESULT:      -9.6      1.573      2.191
REMARK  Name = 
REMARK  7 active torsions:
REMARK  status: ('A' for Active; 'I' for Inactive)
REMARK    1  A    between atoms: C_2  and  C_3
REMARK    2  A    between atoms: C_6  and  N_7
REMARK    3  A    between atoms: N_7  and  S_8
REMARK    4  A    between atoms: S_8  and  C_11
REMARK    5  A    between atoms: C_26  and  O_27
REMARK    6  A    between atoms: C_26  and  C_28
REMARK    7  A    between atoms: C_28  and  C_29
REMARK                            x       y       z     vdW  Elec       q    Type
REMARK                         _______ _______ _______ _____ _____    ______ ____
ROOT
ATOM      1  C   UNL     1       2.398   6.864  18.695  0.00  0.00    +0.000 A 
ATOM      2  C   UNL     1       2.319   7.847  17.706  0.00  0.00    +0.000 A 
ATOM      3  C   UNL     1       1.746   9.090  17.979  0.00  0.00    +0.000 A 
ATOM      4  C   UNL     1       1.360   9.394  19.282  0.00  0.00    +0.000 A 
ATOM      5  C   UNL     1       1.512   8.455  20.300  0.00  0.00    +0.000 A 
ATOM      6  C   UNL     1       2.026   7.188  20.008  0.00  0.00    +0.000 A 
ENDROOT
BRANCH   1   8
ATOM      7  O   UNL     1       2.078   4.585  18.349  0.00  0.00    +0.000 OA
ATOM      8  C   UNL     1       2.906   5.486  18.419  0.00  0.00    +0.000 C 
ATOM      9  N   UNL     1       4.277   5.274  18.209  0.00  0.00    +0.000 N 
ATOM     10  C   UNL     1       4.723   3.934  17.853  0.00  0.00    +0.000 C 
ATOM     11  C   UNL     1       5.103   3.875  16.366  0.00  0.00    +0.000 C 
ATOM     12  C   UNL     1       6.090   4.986  15.946  0.00  0.00    +0.000 C 
ATOM     13  C   UNL     1       5.668   6.354  16.507  0.00  0.00    +0.000 C 
ATOM     14  C   UNL     1       5.302   6.289  17.980  0.00  0.00    +0.000 C 
BRANCH  12  15
ATOM     15  O   UNL     1       7.379   4.717  16.503  0.00  0.00    +0.000 OA
ATOM     16  H   UNL     1       8.052   5.117  15.926  0.00  0.00    +0.000 HD
ENDBRANCH  12  15
BRANCH  12  17
ATOM     17  C   UNL     1       6.217   5.147  14.407  0.00  0.00    +0.000 C 
BRANCH  17  18
ATOM     18  C   UNL     1       6.174   3.834  13.630  0.00  0.00    +0.000 C 
ATOM     19  C   UNL     1       4.892   3.612  12.770  0.00  0.00    +0.000 C 
ATOM     20  C   UNL     1       5.787   2.832  11.785  0.00  0.00    +0.000 C 
ATOM     21  C   UNL     1       6.962   3.693  12.297  0.00  0.00    +0.000 C 
ENDBRANCH  17  18
ENDBRANCH  12  17
ENDBRANCH   1   8
BRANCH   4  22
ATOM     22  N   UNL     1       0.909  10.691  19.619  0.00  0.00    +0.000 N 
ATOM     23  H   UNL     1       1.568  11.458  19.496  0.00  0.00    +0.000 HD
BRANCH  22  24
ATOM     24  S   UNL     1      -0.645  11.174  19.212  0.00  0.00    +0.000 S 
ATOM     25  O   UNL     1      -0.516  12.159  18.160  0.00  0.00    +0.000 OA
ATOM     26  O   UNL     1      -1.427   9.976  18.959  0.00  0.00    +0.000 OA
BRANCH  24  27
ATOM     27  C   UNL     1      -1.318  11.972  20.646  0.00  0.00    +0.000 A 
ATOM     28  C   UNL     1      -0.513  11.987  21.801  0.00  0.00    +0.000 A 
ATOM     29  C   UNL     1      -1.061  12.337  23.027  0.00  0.00    +0.000 A 
ATOM     30  C   UNL     1      -2.418  12.609  23.107  0.00  0.00    +0.000 A 
ATOM     31  C   UNL     1      -3.220  12.579  21.955  0.00  0.00    +0.000 A 
ATOM     32  C   UNL     1      -4.604  12.740  22.078  0.00  0.00    +0.000 A 
ATOM     33  C   UNL     1      -5.401  12.736  20.946  0.00  0.00    +0.000 A 
ATOM     34  C   UNL     1      -4.777  12.641  19.721  0.00  0.00    +0.000 A 
ATOM     35  N   UNL     1      -3.447  12.434  19.568  0.00  0.00    +0.000 NA
ATOM     36  C   UNL     1      -2.668  12.333  20.673  0.00  0.00    +0.000 A 
ENDBRANCH  24  27
ENDBRANCH  22  24
ENDBRANCH   4  22
TORSDOF 7
ENDMDL
MODEL 3
REMARK VINA RESULT:      -9.2      1.200      1.763
REMARK  Name = 
REMARK  7 active torsions:
REMARK  status: ('A' for Active; 'I' for Inactive)
REMARK    1  A    between atoms: C_2  and  C_3
REMARK    2  A    between atoms: C_6  and  N_7
REMARK    3  A    between atoms: N_7  and  S_8
REMARK    4  A    between atoms: S_8  and  C_11
REMARK    5  A    between atoms: C_26  and  O_27
REMARK    6  A    between atoms: C_26  and  C_28
REMARK    7  A    between atoms: C_28  and  C_29
REMARK                            x       y       z     vdW  Elec       q    Type
REMARK                         _______ _______ _______ _____ _____    ______ ____
ROOT
ATOM      1  C   UNL     1       2.170   6.026  19.179  0.00  0.00    +0.000 A 
ATOM      2  C   UNL     1       1.844   6.017  20.538  0.00  0.00    +0.000 A 
ATOM      3  C   UNL     1       1.598   7.209  21.220  0.00  0.00    +0.000 A 
ATOM      4  C   UNL     1       1.559   8.408  20.512  0.00  0.00    +0.000 A 
ATOM      5  C   UNL     1       1.795   8.424  19.139  0.00  0.00    +0.000 A 
ATOM      6  C   UNL     1       2.106   7.236  18.472  0.00  0.00    +0.000 A 
ENDROOT
BRANCH   1   8
ATOM      7  O   UNL     1       1.634   4.139  17.928  0.00  0.00    +0.000 OA
ATOM      8  C   UNL     1       2.544   4.786  18.435  0.00  0.00    +0.000 C 
ATOM      9  N   UNL     1       3.894   4.428  18.302  0.00  0.00    +0.000 N 
ATOM     10  C   UNL     1       4.226   3.264  17.494  0.00  0.00    +0.000 C 
ATOM     11  C   UNL     1       4.835   3.699  16.154  0.00  0.00    +0.000 C 
ATOM     12  C   UNL     1       6.007   4.692  16.314  0.00  0.00    +0.000 C 
ATOM     13  C   UNL     1       5.669   5.802  17.323  0.00  0.00    +0.000 C 
ATOM     14  C   UNL     1       5.059   5.256  18.603  0.00  0.00    +0.000 C 
BRANCH  12  15
ATOM     15  O   UNL     1       7.143   4.011  16.850  0.00  0.00    +0.000 OA
ATOM     16  H   UNL     1       7.649   3.629  16.112  0.00  0.00    +0.000 HD
ENDBRANCH  12  15
BRANCH  12  17
ATOM     17  C   UNL     1       6.406   5.393  14.986  0.00  0.00    +0.000 C 
BRANCH  17  18
ATOM     18  C   UNL     1       7.012   4.463  13.940  0.00  0.00    +0.000 C 
ATOM     19  C   UNL     1       5.985   3.742  13.013  0.00  0.00    +0.000 C 
ATOM     20  C   UNL     1       7.061   3.805  11.909  0.00  0.00    +0.000 C 
ATOM     21  C   UNL     1       7.615   5.051  12.632  0.00  0.00    +0.000 C 
ENDBRANCH  17  18
ENDBRANCH  12  17
ENDBRANCH   1   8
BRANCH   4  22
ATOM     22  N   UNL     1       1.172   9.611  21.147  0.00  0.00    +0.000 N 
ATOM     23  H   UNL     1       1.104  10.443  20.564  0.00  0.00    +0.000 HD
BRANCH  22  24
ATOM     24  S   UNL     1      -0.043   9.598  22.305  0.00  0.00    +0.000 S 
ATOM     25  O   UNL     1      -0.869   8.442  22.033  0.00  0.00    +0.000 OA
ATOM     26  O   UNL     1       0.589   9.717  23.608  0.00  0.00    +0.000 OA
BRANCH  24  27
ATOM     27  C   UNL     1      -1.015  11.056  22.034  0.00  0.00    +0.000 A 
ATOM     28  C   UNL     1      -1.469  11.738  23.179  0.00  0.00    +0.000 A 
ATOM     29  C   UNL     1      -2.452  12.712  23.065  0.00  0.00    +0.000 A 
ATOM     30  C   UNL     1      -3.020  12.956  21.824  0.00  0.00    +0.000 A 
ATOM     31  C   UNL     1      -2.574  12.263  20.687  0.00  0.00    +0.000 A 
ATOM     32  C   UNL     1      -3.240  12.440  19.470  0.00  0.00    +0.000 A 
ATOM     33  C   UNL     1      -2.794  11.780  18.338  0.00  0.00    +0.000 A 
ATOM     34  C   UNL     1      -1.650  11.018  18.448  0.00  0.00    +0.000 A 
ATOM     35  N   UNL     1      -1.010  10.786  19.618  0.00  0.00    +0.000 NA
ATOM     36  C   UNL     1      -1.497  11.344  20.754  0.00  0.00    +0.000 A 
ENDBRANCH  24  27
ENDBRANCH  22  24
ENDBRANCH   4  22
TORSDOF 7
ENDMDL
MODEL 4
REMARK VINA RESULT:      -9.1      2.023      3.046
REMARK  Name = 
REMARK  7 active torsions:
REMARK  status: ('A' for Active; 'I' for Inactive)
REMARK    1  A    between atoms: C_2  and  C_3
REMARK    2  A    between atoms: C_6  and  N_7
REMARK    3  A    between atoms: N_7  and  S_8
REMARK    4  A    between atoms: S_8  and  C_11
REMARK    5  A    between atoms: C_26  and  O_27
REMARK    6  A    between atoms: C_26  and  C_28
REMARK    7  A    between atoms: C_28  and  C_29
REMARK                            x       y       z     vdW  Elec       q    Type
REMARK                         _______ _______ _______ _____ _____    ______ ____
ROOT
ATOM      1  C   UNL     1       2.471   6.861  18.539  0.00  0.00    +0.000 A 
ATOM      2  C   UNL     1       2.394   7.843  17.547  0.00  0.00    +0.000 A 
ATOM      3  C   UNL     1       1.876   9.106  17.833  0.00  0.00    +0.000 A 
ATOM      4  C   UNL     1       1.545   9.430  19.147  0.00  0.00    +0.000 A 
ATOM      5  C   UNL     1       1.698   8.490  20.164  0.00  0.00    +0.000 A 
ATOM      6  C   UNL     1       2.156   7.205  19.862  0.00  0.00    +0.000 A 
ENDROOT
BRANCH   1   8
ATOM      7  O   UNL     1       2.049   4.611  18.126  0.00  0.00    +0.000 OA
ATOM      8  C   UNL     1       2.919   5.465  18.254  0.00  0.00    +0.000 C 
ATOM      9  N   UNL     1       4.285   5.185  18.101  0.00  0.00    +0.000 N 
ATOM     10  C   UNL     1       4.678   3.832  17.734  0.00  0.00    +0.000 C 
ATOM     11  C   UNL     1       5.122   3.784  16.265  0.00  0.00    +0.000 C 
ATOM     12  C   UNL     1       6.184   4.849  15.917  0.00  0.00    +0.000 C 
ATOM     13  C   UNL     1       5.808   6.226  16.490  0.00  0.00    +0.000 C 
ATOM     14  C   UNL     1       5.371   6.149  17.943  0.00  0.00    +0.000 C 
BRANCH  12  15
ATOM     15  O   UNL     1       7.430   4.501  16.524  0.00  0.00    +0.000 OA
ATOM     16  H   UNL     1       7.291   4.416  17.483  0.00  0.00    +0.000 HD
ENDBRANCH  12  15
BRANCH  12  17
ATOM     17  C   UNL     1       6.390   5.035  14.389  0.00  0.00    +0.000 C 
BRANCH  17  18
ATOM     18  C   UNL     1       6.214   3.762  13.568  0.00  0.00    +0.000 C 
ATOM     19  C   UNL     1       4.890   3.675  12.748  0.00  0.00    +0.000 C 
ATOM     20  C   UNL     1       5.685   2.863  11.705  0.00  0.00    +0.000 C 
ATOM     21  C   UNL     1       6.942   3.608  12.203  0.00  0.00    +0.000 C 
ENDBRANCH  17  18
ENDBRANCH  12  17
ENDBRANCH   1   8
BRANCH   4  22
ATOM     22  N   UNL     1       1.154  10.744  19.491  0.00  0.00    +0.000 N 
ATOM     23  H   UNL     1       1.644  11.510  19.032  0.00  0.00    +0.000 HD
BRANCH  22  24
ATOM     24  S   UNL     1      -0.471  11.114  19.689  0.00  0.00    +0.000 S 
ATOM     25  O   UNL     1      -0.841  11.978  18.589  0.00  0.00    +0.000 OA
ATOM     26  O   UNL     1      -1.188   9.864  19.871  0.00  0.00    +0.000 OA
BRANCH  24  27
ATOM     27  C   UNL     1      -0.598  12.041  21.195  0.00  0.00    +0.000 A 
ATOM     28  C   UNL     1      -1.695  11.750  22.030  0.00  0.00    +0.000 A 
ATOM     29  C   UNL     1      -2.023  12.604  23.073  0.00  0.00    +0.000 A 
ATOM     30  C   UNL     1      -1.297  13.773  23.241  0.00  0.00    +0.000 A 
ATOM     31  C   UNL     1      -0.213  14.067  22.398  0.00  0.00    +0.000 A 
ATOM     32  C   UNL     1       0.428  15.305  22.511  0.00  0.00    +0.000 A 
ATOM     33  C   UNL     1       1.512  15.596  21.701  0.00  0.00    +0.000 A 
ATOM     34  C   UNL     1       1.963  14.607  20.852  0.00  0.00    +0.000 A 
ATOM     35  N   UNL     1       1.337  13.419  20.682  0.00  0.00    +0.000 NA
ATOM     36  C   UNL     1       0.213  13.162  21.395  0.00  0.00    +0.000 A 
ENDBRANCH  24  27
ENDBRANCH  22  24
ENDBRANCH   4  22
TORSDOF 7
ENDMDL
MODEL 5
REMARK VINA RESULT:      -9.0      2.822     10.538
REMARK  Name = 
REMARK  7 active torsions:
REMARK  status: ('A' for Active; 'I' for Inactive)
REMARK    1  A    between atoms: C_2  and  C_3
REMARK    2  A    between atoms: C_6  and  N_7
REMARK    3  A    between atoms: N_7  and  S_8
REMARK    4  A    between atoms: S_8  and  C_11
REMARK    5  A    between atoms: C_26  and  O_27
REMARK    6  A    between atoms: C_26  and  C_28
REMARK    7  A    between atoms: C_28  and  C_29
REMARK                            x       y       z     vdW  Elec       q    Type
REMARK                         _______ _______ _______ _____ _____    ______ ____
ROOT
ATOM      1  C   UNL     1       0.837   9.468  19.061  0.00  0.00    +0.000 A 
ATOM      2  C   UNL     1       0.751   8.974  20.365  0.00  0.00    +0.000 A 
ATOM      3  C   UNL     1       1.420   7.806  20.731  0.00  0.00    +0.000 A 
ATOM      4  C   UNL     1       2.278   7.194  19.820  0.00  0.00    +0.000 A 
ATOM      5  C   UNL     1       2.443   7.723  18.542  0.00  0.00    +0.000 A 
ATOM      6  C   UNL     1       1.720   8.857  18.159  0.00  0.00    +0.000 A 
ENDROOT
BRANCH   1   8
ATOM      7  O   UNL     1      -0.989  10.437  17.993  0.00  0.00    +0.000 OA
ATOM      8  C   UNL     1       0.055  10.654  18.598  0.00  0.00    +0.000 C 
ATOM      9  N   UNL     1       0.502  11.949  18.898  0.00  0.00    +0.000 N 
ATOM     10  C   UNL     1      -0.332  13.077  18.509  0.00  0.00    +0.000 C 
ATOM     11  C   UNL     1      -1.020  13.682  19.741  0.00  0.00    +0.000 C 
ATOM     12  C   UNL     1      -0.038  14.008  20.887  0.00  0.00    +0.000 C 
ATOM     13  C   UNL     1       0.945  12.850  21.132  0.00  0.00    +0.000 C 
ATOM     14  C   UNL     1       1.551  12.323  19.843  0.00  0.00    +0.000 C 
BRANCH  12  15
ATOM     15  O   UNL     1       0.767  15.132  20.524  0.00  0.00    +0.000 OA
ATOM     16  H   UNL     1       0.583  15.856  21.146  0.00  0.00    +0.000 HD
ENDBRANCH  12  15
BRANCH  12  17
ATOM     17  C   UNL     1      -0.744  14.297  22.240  0.00  0.00    +0.000 C 
BRANCH  17  18
ATOM     18  C   UNL     1      -2.080  13.583  22.419  0.00  0.00    +0.000 C 
ATOM     19  C   UNL     1      -2.004  12.188  23.111  0.00  0.00    +0.000 C 
ATOM     20  C   UNL     1      -3.397  12.493  23.698  0.00  0.00    +0.000 C 
ATOM     21  C   UNL     1      -3.029  13.988  23.583  0.00  0.00    +0.000 C 
ENDBRANCH  17  18
ENDBRANCH  12  17
ENDBRANCH   1   8
BRANCH   4  22
ATOM     22  N   UNL     1       3.077   6.094  20.207  0.00  0.00    +0.000 N 
ATOM     23  H   UNL     1       3.222   5.952  21.205  0.00  0.00    +0.000 HD
BRANCH  22  24
ATOM     24  S   UNL     1       2.922   4.622  19.417  0.00  0.00    +0.000 S 
ATOM     25  O   UNL     1       3.324   3.597  20.356  0.00  0.00    +0.000 OA
ATOM     26  O   UNL     1       1.586   4.566  18.848  0.00  0.00    +0.000 OA
BRANCH  24  27
ATOM     27  C   UNL     1       4.084   4.641  18.078  0.00  0.00    +0.000 A 
ATOM     28  C   UNL     1       3.648   4.108  16.850  0.00  0.00    +0.000 A 
ATOM     29  C   UNL     1       4.564   3.832  15.845  0.00  0.00    +0.000 A 
ATOM     30  C   UNL     1       5.915   4.028  16.092  0.00  0.00    +0.000 A 
ATOM     31  C   UNL     1       6.347   4.546  17.323  0.00  0.00    +0.000 A 
ATOM     32  C   UNL     1       7.718   4.626  17.591  0.00  0.00    +0.000 A 
ATOM     33  C   UNL     1       8.155   5.156  18.792  0.00  0.00    +0.000 A 
ATOM     34  C   UNL     1       7.205   5.657  19.657  0.00  0.00    +0.000 A 
ATOM     35  N   UNL     1       5.871   5.552  19.452  0.00  0.00    +0.000 NA
ATOM     36  C   UNL     1       5.427   4.941  18.325  0.00  0.00    +0.000 A 
ENDBRANCH  24  27
ENDBRANCH  22  24
ENDBRANCH   4  22
TORSDOF 7
ENDMDL
MODEL 6
REMARK VINA RESULT:      -9.0      1.068      1.665
REMARK  Name = 
REMARK  7 active torsions:
REMARK  status: ('A' for Active; 'I' for Inactive)
REMARK    1  A    between atoms: C_2  and  C_3
REMARK    2  A    between atoms: C_6  and  N_7
REMARK    3  A    between atoms: N_7  and  S_8
REMARK    4  A    between atoms: S_8  and  C_11
REMARK    5  A    between atoms: C_26  and  O_27
REMARK    6  A    between atoms: C_26  and  C_28
REMARK    7  A    between atoms: C_28  and  C_29
REMARK                            x       y       z     vdW  Elec       q    Type
REMARK                         _______ _______ _______ _____ _____    ______ ____
ROOT
ATOM      1  C   UNL     1       2.745   6.550  19.111  0.00  0.00    +0.000 A 
ATOM      2  C   UNL     1       2.156   6.770  20.358  0.00  0.00    +0.000 A 
ATOM      3  C   UNL     1       1.404   7.920  20.599  0.00  0.00    +0.000 A 
ATOM      4  C   UNL     1       1.137   8.796  19.550  0.00  0.00    +0.000 A 
ATOM      5  C   UNL     1       1.644   8.547  18.277  0.00  0.00    +0.000 A 
ATOM      6  C   UNL     1       2.452   7.427  18.056  0.00  0.00    +0.000 A 
ENDROOT
BRANCH   1   8
ATOM      7  O   UNL     1       3.238   4.277  19.161  0.00  0.00    +0.000 OA
ATOM      8  C   UNL     1       3.644   5.388  18.840  0.00  0.00    +0.000 C 
ATOM      9  N   UNL     1       4.878   5.589  18.204  0.00  0.00    +0.000 N 
ATOM     10  C   UNL     1       5.686   4.424  17.875  0.00  0.00    +0.000 C 
ATOM     11  C   UNL     1       5.637   4.147  16.366  0.00  0.00    +0.000 C 
ATOM     12  C   UNL     1       5.969   5.389  15.510  0.00  0.00    +0.000 C 
ATOM     13  C   UNL     1       5.228   6.637  16.018  0.00  0.00    +0.000 C 
ATOM     14  C   UNL     1       5.332   6.800  17.524  0.00  0.00    +0.000 C 
BRANCH  12  15
ATOM     15  O   UNL     1       7.362   5.690  15.623  0.00  0.00    +0.000 OA
ATOM     16  H   UNL     1       7.487   6.287  16.381  0.00  0.00    +0.000 HD
ENDBRANCH  12  15
BRANCH  12  17
ATOM     17  C   UNL     1       5.599   5.220  14.011  0.00  0.00    +0.000 C 
BRANCH  17  18
ATOM     18  C   UNL     1       5.892   3.836  13.441  0.00  0.00    +0.000 C 
ATOM     19  C   UNL     1       4.849   3.304  12.411  0.00  0.00    +0.000 C 
ATOM     20  C   UNL     1       6.020   2.571  11.726  0.00  0.00    +0.000 C 
ATOM     21  C   UNL     1       6.939   3.669  12.303  0.00  0.00    +0.000 C 
ENDBRANCH  17  18
ENDBRANCH  12  17
ENDBRANCH   1   8
BRANCH   4  22
ATOM     22  N   UNL     1       0.262   9.892  19.729  0.00  0.00    +0.000 N 
ATOM     23  H   UNL     1      -0.679   9.686  20.061  0.00  0.00    +0.000 HD
BRANCH  22  24
ATOM     24  S   UNL     1       0.828  11.321  20.401  0.00  0.00    +0.000 S 
ATOM     25  O   UNL     1       1.473  10.971  21.648  0.00  0.00    +0.000 OA
ATOM     26  O   UNL     1       1.600  12.012  19.383  0.00  0.00    +0.000 OA
BRANCH  24  27
ATOM     27  C   UNL     1      -0.599  12.308  20.767  0.00  0.00    +0.000 A 
ATOM     28  C   UNL     1      -0.620  12.956  22.017  0.00  0.00    +0.000 A 
ATOM     29  C   UNL     1      -1.798  13.512  22.495  0.00  0.00    +0.000 A 
ATOM     30  C   UNL     1      -2.962  13.365  21.754  0.00  0.00    +0.000 A 
ATOM     31  C   UNL     1      -2.940  12.706  20.515  0.00  0.00    +0.000 A 
ATOM     32  C   UNL     1      -4.143  12.468  19.843  0.00  0.00    +0.000 A 
ATOM     33  C   UNL     1      -4.131  11.839  18.610  0.00  0.00    +0.000 A 
ATOM     34  C   UNL     1      -2.905  11.534  18.057  0.00  0.00    +0.000 A 
ATOM     35  N   UNL     1      -1.726  11.705  18.699  0.00  0.00    +0.000 NA
ATOM     36  C   UNL     1      -1.732  12.226  19.952  0.00  0.00    +0.000 A 
ENDBRANCH  24  27
ENDBRANCH  22  24
ENDBRANCH   4  22
TORSDOF 7
ENDMDL
MODEL 7
REMARK VINA RESULT:      -8.9      2.034      2.912
REMARK  Name = 
REMARK  7 active torsions:
REMARK  status: ('A' for Active; 'I' for Inactive)
REMARK    1  A    between atoms: C_2  and  C_3
REMARK    2  A    between atoms: C_6  and  N_7
REMARK    3  A    between atoms: N_7  and  S_8
REMARK    4  A    between atoms: S_8  and  C_11
REMARK    5  A    between atoms: C_26  and  O_27
REMARK    6  A    between atoms: C_26  and  C_28
REMARK    7  A    between atoms: C_28  and  C_29
REMARK                            x       y       z     vdW  Elec       q    Type
REMARK                         _______ _______ _______ _____ _____    ______ ____
ROOT
ATOM      1  C   UNL     1       1.750   7.156  20.018  0.00  0.00    +0.000 A 
ATOM      2  C   UNL     1       1.962   7.807  18.799  0.00  0.00    +0.000 A 
ATOM      3  C   UNL     1       1.550   9.127  18.615  0.00  0.00    +0.000 A 
ATOM      4  C   UNL     1       1.032   9.840  19.693  0.00  0.00    +0.000 A 
ATOM      5  C   UNL     1       0.895   9.233  20.939  0.00  0.00    +0.000 A 
ATOM      6  C   UNL     1       1.248   7.891  21.102  0.00  0.00    +0.000 A 
ENDROOT
BRANCH   1   8
ATOM      7  O   UNL     1       1.160   4.970  20.552  0.00  0.00    +0.000 OA
ATOM      8  C   UNL     1       2.078   5.714  20.226  0.00  0.00    +0.000 C 
ATOM      9  N   UNL     1       3.385   5.253  20.006  0.00  0.00    +0.000 N 
ATOM     10  C   UNL     1       3.647   3.827  20.130  0.00  0.00    +0.000 C 
ATOM     11  C   UNL     1       3.837   3.196  18.744  0.00  0.00    +0.000 C 
ATOM     12  C   UNL     1       4.875   3.939  17.875  0.00  0.00    +0.000 C 
ATOM     13  C   UNL     1       4.665   5.461  17.928  0.00  0.00    +0.000 C 
ATOM     14  C   UNL     1       4.473   5.971  19.346  0.00  0.00    +0.000 C 
BRANCH  12  15
ATOM     15  O   UNL     1       6.187   3.708  18.393  0.00  0.00    +0.000 OA
ATOM     16  H   UNL     1       6.104   3.247  19.246  0.00  0.00    +0.000 HD
ENDBRANCH  12  15
BRANCH  12  17
ATOM     17  C   UNL     1       4.833   3.527  16.378  0.00  0.00    +0.000 C 
BRANCH  17  18
ATOM     18  C   UNL     1       5.500   4.520  15.432  0.00  0.00    +0.000 C 
ATOM     19  C   UNL     1       7.060   4.520  15.457  0.00  0.00    +0.000 C 
ATOM     20  C   UNL     1       7.003   4.895  13.962  0.00  0.00    +0.000 C 
ATOM     21  C   UNL     1       5.633   4.184  13.919  0.00  0.00    +0.000 C 
ENDBRANCH  17  18
ENDBRANCH  12  17
ENDBRANCH   1   8
BRANCH   4  22
ATOM     22  N   UNL     1       0.740  11.219  19.574  0.00  0.00    +0.000 N 
ATOM     23  H   UNL     1       1.431  11.802  19.104  0.00  0.00    +0.000 HD
BRANCH  22  24
ATOM     24  S   UNL     1      -0.815  11.719  19.193  0.00  0.00    +0.000 S 
ATOM     25  O   UNL     1      -0.687  12.779  18.216  0.00  0.00    +0.000 OA
ATOM     26  O   UNL     1      -1.587  10.538  18.848  0.00  0.00    +0.000 OA
BRANCH  24  27
ATOM     27  C   UNL     1      -1.503  12.406  20.676  0.00  0.00    +0.000 A 
ATOM     28  C   UNL     1      -0.646  12.500  21.790  0.00  0.00    +0.000 A 
ATOM     29  C   UNL     1      -1.167  12.761  23.049  0.00  0.00    +0.000 A 
ATOM     30  C   UNL     1      -2.541  12.864  23.203  0.00  0.00    +0.000 A 
ATOM     31  C   UNL     1      -3.393  12.755  22.092  0.00  0.00    +0.000 A 
ATOM     32  C   UNL     1      -4.778  12.746  22.288  0.00  0.00    +0.000 A 
ATOM     33  C   UNL     1      -5.627  12.663  21.198  0.00  0.00    +0.000 A 
ATOM     34  C   UNL     1      -5.061  12.665  19.941  0.00  0.00    +0.000 A 
ATOM     35  N   UNL     1      -3.726  12.624  19.717  0.00  0.00    +0.000 NA
ATOM     36  C   UNL     1      -2.884  12.600  20.779  0.00  0.00    +0.000 A 
ENDBRANCH  24  27
ENDBRANCH  22  24
ENDBRANCH   4  22
TORSDOF 7
ENDMDL
MODEL 8
REMARK VINA RESULT:      -8.9      2.022      2.980
REMARK  Name = 
REMARK  7 active torsions:
REMARK  status: ('A' for Active; 'I' for Inactive)
REMARK    1  A    between atoms: C_2  and  C_3
REMARK    2  A    between atoms: C_6  and  N_7
REMARK    3  A    between atoms: N_7  and  S_8
REMARK    4  A    between atoms: S_8  and  C_11
REMARK    5  A    between atoms: C_26  and  O_27
REMARK    6  A    between atoms: C_26  and  C_28
REMARK    7  A    between atoms: C_28  and  C_29
REMARK                            x       y       z     vdW  Elec       q    Type
REMARK                         _______ _______ _______ _____ _____    ______ ____
ROOT
ATOM      1  C   UNL     1       2.265   6.645  18.721  0.00  0.00    +0.000 A 
ATOM      2  C   UNL     1       2.143   7.686  17.796  0.00  0.00    +0.000 A 
ATOM      3  C   UNL     1       1.676   8.940  18.191  0.00  0.00    +0.000 A 
ATOM      4  C   UNL     1       1.446   9.191  19.541  0.00  0.00    +0.000 A 
ATOM      5  C   UNL     1       1.648   8.190  20.489  0.00  0.00    +0.000 A 
ATOM      6  C   UNL     1       2.052   6.916  20.081  0.00  0.00    +0.000 A 
ENDROOT
BRANCH   1   8
ATOM      7  O   UNL     1       1.756   4.473  18.064  0.00  0.00    +0.000 OA
ATOM      8  C   UNL     1       2.658   5.260  18.324  0.00  0.00    +0.000 C 
ATOM      9  N   UNL     1       4.015   4.919  18.220  0.00  0.00    +0.000 N 
ATOM     10  C   UNL     1       4.360   3.588  17.743  0.00  0.00    +0.000 C 
ATOM     11  C   UNL     1       4.889   3.656  16.303  0.00  0.00    +0.000 C 
ATOM     12  C   UNL     1       6.023   4.689  16.121  0.00  0.00    +0.000 C 
ATOM     13  C   UNL     1       5.683   6.023  16.806  0.00  0.00    +0.000 C 
ATOM     14  C   UNL     1       5.156   5.832  18.218  0.00  0.00    +0.000 C 
BRANCH  12  15
ATOM     15  O   UNL     1       7.211   4.214  16.759  0.00  0.00    +0.000 OA
ATOM     16  H   UNL     1       7.085   3.276  16.985  0.00  0.00    +0.000 HD
ENDBRANCH  12  15
BRANCH  12  17
ATOM     17  C   UNL     1       6.331   5.008  14.633  0.00  0.00    +0.000 C 
BRANCH  17  18
ATOM     18  C   UNL     1       6.257   3.803  13.700  0.00  0.00    +0.000 C 
ATOM     19  C   UNL     1       4.946   3.687  12.863  0.00  0.00    +0.000 C 
ATOM     20  C   UNL     1       5.805   3.038  11.759  0.00  0.00    +0.000 C 
ATOM     21  C   UNL     1       6.998   3.831  12.333  0.00  0.00    +0.000 C 
ENDBRANCH  17  18
ENDBRANCH  12  17
ENDBRANCH   1   8
BRANCH   4  22
ATOM     22  N   UNL     1       1.112  10.491  19.988  0.00  0.00    +0.000 N 
ATOM     23  H   UNL     1       1.454  11.275  19.435  0.00  0.00    +0.000 HD
BRANCH  22  24
ATOM     24  S   UNL     1      -0.427  10.808  20.576  0.00  0.00    +0.000 S 
ATOM     25  O   UNL     1      -1.328  10.750  19.446  0.00  0.00    +0.000 OA
ATOM     26  O   UNL     1      -0.659   9.922  21.704  0.00  0.00    +0.000 OA
BRANCH  24  27
ATOM     27  C   UNL     1      -0.402  12.473  21.186  0.00  0.00    +0.000 A 
ATOM     28  C   UNL     1       0.770  13.218  20.952  0.00  0.00    +0.000 A 
ATOM     29  C   UNL     1       0.983  14.413  21.625  0.00  0.00    +0.000 A 
ATOM     30  C   UNL     1       0.058  14.827  22.572  0.00  0.00    +0.000 A 
ATOM     31  C   UNL     1      -1.102  14.074  22.813  0.00  0.00    +0.000 A 
ATOM     32  C   UNL     1      -1.960  14.449  23.852  0.00  0.00    +0.000 A 
ATOM     33  C   UNL     1      -3.118  13.727  24.083  0.00  0.00    +0.000 A 
ATOM     34  C   UNL     1      -3.416  12.696  23.218  0.00  0.00    +0.000 A 
ATOM     35  N   UNL     1      -2.586  12.276  22.234  0.00  0.00    +0.000 NA
ATOM     36  C   UNL     1      -1.399  12.909  22.063  0.00  0.00    +0.000 A 
ENDBRANCH  24  27
ENDBRANCH  22  24
ENDBRANCH   4  22
TORSDOF 7
ENDMDL
MODEL 9
REMARK VINA RESULT:      -8.9      2.081      2.719
REMARK  Name = 
REMARK  7 active torsions:
REMARK  status: ('A' for Active; 'I' for Inactive)
REMARK    1  A    between atoms: C_2  and  C_3
REMARK    2  A    between atoms: C_6  and  N_7
REMARK    3  A    between atoms: N_7  and  S_8
REMARK    4  A    between atoms: S_8  and  C_11
REMARK    5  A    between atoms: C_26  and  O_27
REMARK    6  A    between atoms: C_26  and  C_28
REMARK    7  A    between atoms: C_28  and  C_29
REMARK                            x       y       z     vdW  Elec       q    Type
REMARK                         _______ _______ _______ _____ _____    ______ ____
ROOT
ATOM      1  C   UNL     1       2.501   6.798  18.522  0.00  0.00    +0.000 A 
ATOM      2  C   UNL     1       2.425   7.784  17.535  0.00  0.00    +0.000 A 
ATOM      3  C   UNL     1       1.892   9.041  17.822  0.00  0.00    +0.000 A 
ATOM      4  C   UNL     1       1.545   9.354  19.134  0.00  0.00    +0.000 A 
ATOM      5  C   UNL     1       1.696   8.411  20.148  0.00  0.00    +0.000 A 
ATOM      6  C   UNL     1       2.169   7.131  19.844  0.00  0.00    +0.000 A 
ENDROOT
BRANCH   1   8
ATOM      7  O   UNL     1       2.105   4.549  18.080  0.00  0.00    +0.000 OA
ATOM      8  C   UNL     1       2.966   5.407  18.234  0.00  0.00    +0.000 C 
ATOM      9  N   UNL     1       4.337   5.138  18.109  0.00  0.00    +0.000 N 
ATOM     10  C   UNL     1       4.747   3.792  17.739  0.00  0.00    +0.000 C 
ATOM     11  C   UNL     1       5.224   3.760  16.280  0.00  0.00    +0.000 C 
ATOM     12  C   UNL     1       6.286   4.836  15.965  0.00  0.00    +0.000 C 
ATOM     13  C   UNL     1       5.887   6.205  16.542  0.00  0.00    +0.000 C 
ATOM     14  C   UNL     1       5.418   6.112  17.984  0.00  0.00    +0.000 C 
BRANCH  12  15
ATOM     15  O   UNL     1       7.520   4.491  16.597  0.00  0.00    +0.000 OA
ATOM     16  H   UNL     1       7.716   3.559  16.401  0.00  0.00    +0.000 HD
ENDBRANCH  12  15
BRANCH  12  17
ATOM     17  C   UNL     1       6.524   5.038  14.443  0.00  0.00    +0.000 C 
BRANCH  17  18
ATOM     18  C   UNL     1       6.300   3.788  13.598  0.00  0.00    +0.000 C 
ATOM     19  C   UNL     1       4.925   3.717  12.865  0.00  0.00    +0.000 C 
ATOM     20  C   UNL     1       5.654   2.942  11.748  0.00  0.00    +0.000 C 
ATOM     21  C   UNL     1       6.938   3.680  12.184  0.00  0.00    +0.000 C 
ENDBRANCH  17  18
ENDBRANCH  12  17
ENDBRANCH   1   8
BRANCH   4  22
ATOM     22  N   UNL     1       1.137  10.663  19.481  0.00  0.00    +0.000 N 
ATOM     23  H   UNL     1       1.747  11.430  19.201  0.00  0.00    +0.000 HD
BRANCH  22  24
ATOM     24  S   UNL     1      -0.475  11.108  19.340  0.00  0.00    +0.000 S 
ATOM     25  O   UNL     1      -0.793  11.089  17.929  0.00  0.00    +0.000 OA
ATOM     26  O   UNL     1      -1.244  10.269  20.243  0.00  0.00    +0.000 OA
BRANCH  24  27
ATOM     27  C   UNL     1      -0.590  12.781  19.916  0.00  0.00    +0.000 A 
ATOM     28  C   UNL     1      -1.783  13.147  20.569  0.00  0.00    +0.000 A 
ATOM     29  C   UNL     1      -2.068  14.486  20.801  0.00  0.00    +0.000 A 
ATOM     30  C   UNL     1      -1.194  15.453  20.326  0.00  0.00    +0.000 A 
ATOM     31  C   UNL     1      -0.013  15.084  19.663  0.00  0.00    +0.000 A 
ATOM     32  C   UNL     1       0.792  16.075  19.092  0.00  0.00    +0.000 A 
ATOM     33  C   UNL     1       1.970  15.724  18.457  0.00  0.00    +0.000 A 
ATOM     34  C   UNL     1       2.340  14.396  18.478  0.00  0.00    +0.000 A 
ATOM     35  N   UNL     1       1.563  13.406  18.977  0.00  0.00    +0.000 NA
ATOM     36  C   UNL     1       0.358  13.725  19.510  0.00  0.00    +0.000 A 
ENDBRANCH  24  27
ENDBRANCH  22  24
ENDBRANCH   4  22
TORSDOF 7
ENDMDL
