MODEL 1
REMARK VINA RESULT:      -8.2      0.000      0.000
REMARK  Name = 
REMARK  3 active torsions:
REMARK  status: ('A' for Active; 'I' for Inactive)
REMARK    1  A    between atoms: C_2  and  O_5
REMARK    2  A    between atoms: O_5  and  C_6
REMARK    3  A    between atoms: N_13  and  C_14
REMARK                            x       y       z     vdW  Elec       q    Type
REMARK                         _______ _______ _______ _____ _____    ______ ____
ROOT
ATOM      1  C   UNL     1       3.033   4.648  19.889  0.00  0.00    +0.000 A 
ATOM      2  C   UNL     1       2.449   5.912  19.974  0.00  0.00    +0.000 A 
ATOM      3  C   UNL     1       2.704   6.896  19.015  0.00  0.00    +0.000 A 
ATOM      4  C   UNL     1       3.600   6.576  17.997  0.00  0.00    +0.000 A 
ATOM      5  N   UNL     1       4.042   7.304  16.931  0.00  0.00    +0.000 N 
ATOM      6  N   UNL     1       4.892   6.653  16.140  0.00  0.00    +0.000 NA
ATOM      7  C   UNL     1       5.025   5.444  16.700  0.00  0.00    +0.000 A 
ATOM      8  N   UNL     1       5.789   4.444  16.196  0.00  0.00    +0.000 N 
ATOM      9  C   UNL     1       4.248   5.348  17.898  0.00  0.00    +0.000 A 
ATOM     10  C   UNL     1       3.972   4.370  18.877  0.00  0.00    +0.000 A 
ATOM     11  H   UNL     1       3.789   8.253  16.682  0.00  0.00    +0.000 HD
ATOM     12  H   UNL     1       6.067   3.672  16.791  0.00  0.00    +0.000 HD
ENDROOT
BRANCH   8  13
ATOM     13  C   UNL     1       6.225   4.309  14.856  0.00  0.00    +0.000 A 
ATOM     14  C   UNL     1       7.352   5.010  14.408  0.00  0.00    +0.000 A 
ATOM     15  C   UNL     1       7.715   4.989  13.055  0.00  0.00    +0.000 A 
ATOM     16  C   UNL     1       6.958   4.265  12.133  0.00  0.00    +0.000 A 
ATOM     17  C   UNL     1       5.847   3.554  12.570  0.00  0.00    +0.000 A 
ATOM     18 CL   UNL     1       4.906   2.646  11.448  0.00  0.00    +0.000 Cl
ATOM     19  C   UNL     1       5.483   3.576  13.912  0.00  0.00    +0.000 A 
ENDBRANCH   8  13
BRANCH   1  20
ATOM     20  O   UNL     1       2.792   3.610  20.740  0.00  0.00    +0.000 OA
BRANCH  20  22
ATOM     21  F   UNL     1       1.745   1.865  19.596  0.00  0.00    +0.000 F 
ATOM     22  C   UNL     1       1.631   2.805  20.558  0.00  0.00    +0.000 C 
ATOM     23  F   UNL     1       0.576   3.598  20.268  0.00  0.00    +0.000 F 
ATOM     24  F   UNL     1       1.368   2.165  21.720  0.00  0.00    +0.000 F 
ENDBRANCH  20  22
ENDBRANCH   1  20
TORSDOF 3
ENDMDL
MODEL 2
REMARK VINA RESULT:      -7.9      1.189      1.733
REMARK  Name = 
REMARK  3 active torsions:
REMARK  status: ('A' for Active; 'I' for Inactive)
REMARK    1  A    between atoms: C_2  and  O_5
REMARK    2  A    between atoms: O_5  and  C_6
REMARK    3  A    between atoms: N_13  and  C_14
REMARK                            x       y       z     vdW  Elec       q    Type
REMARK                         _______ _______ _______ _____ _____    ______ ____
ROOT
ATOM      1  C   UNL     1       2.875   4.466  19.922  0.00  0.00    +0.000 A 
ATOM      2  C   UNL     1       2.349   5.740  20.129  0.00  0.00    +0.000 A 
ATOM      3  C   UNL     1       2.643   6.798  19.264  0.00  0.00    +0.000 A 
ATOM      4  C   UNL     1       3.520   6.535  18.213  0.00  0.00    +0.000 A 
ATOM      5  N   UNL     1       3.990   7.339  17.216  0.00  0.00    +0.000 N 
ATOM      6  N   UNL     1       4.806   6.728  16.360  0.00  0.00    +0.000 NA
ATOM      7  C   UNL     1       4.886   5.467  16.804  0.00  0.00    +0.000 A 
ATOM      8  N   UNL     1       5.602   4.486  16.203  0.00  0.00    +0.000 N 
ATOM      9  C   UNL     1       4.111   5.294  17.994  0.00  0.00    +0.000 A 
ATOM     10  C   UNL     1       3.796   4.242  18.880  0.00  0.00    +0.000 A 
ATOM     11  H   UNL     1       3.778   8.318  17.059  0.00  0.00    +0.000 HD
ATOM     12  H   UNL     1       5.848   3.649  16.721  0.00  0.00    +0.000 HD
ENDROOT
BRANCH   8  13
ATOM     13  C   UNL     1       6.027   4.457  14.852  0.00  0.00    +0.000 A 
ATOM     14  C   UNL     1       5.426   3.577  13.944  0.00  0.00    +0.000 A 
ATOM     15  C   UNL     1       5.926   3.444  12.641  0.00  0.00    +0.000 A 
ATOM     16  C   UNL     1       7.029   4.192  12.230  0.00  0.00    +0.000 A 
ATOM     17  C   UNL     1       7.623   5.080  13.119  0.00  0.00    +0.000 A 
ATOM     18 CL   UNL     1       8.981   6.019  12.625  0.00  0.00    +0.000 Cl
ATOM     19  C   UNL     1       7.131   5.210  14.413  0.00  0.00    +0.000 A 
ENDBRANCH   8  13
BRANCH   1  20
ATOM     20  O   UNL     1       2.591   3.364  20.675  0.00  0.00    +0.000 OA
BRANCH  20  22
ATOM     21  F   UNL     1       0.347   3.588  20.069  0.00  0.00    +0.000 F 
ATOM     22  C   UNL     1       1.286   2.794  20.625  0.00  0.00    +0.000 C 
ATOM     23  F   UNL     1       0.893   2.467  21.876  0.00  0.00    +0.000 F 
ATOM     24  F   UNL     1       1.344   1.659  19.892  0.00  0.00    +0.000 F 
ENDBRANCH  20  22
ENDBRANCH   1  20
TORSDOF 3
ENDMDL
MODEL 3
REMARK VINA RESULT:      -7.9      0.878      1.028
REMARK  Name = 
REMARK  3 active torsions:
REMARK  status: ('A' for Active; 'I' for Inactive)
REMARK    1  A    between atoms: C_2  and  O_5
REMARK    2  A    between atoms: O_5  and  C_6
REMARK    3  A    between atoms: N_13  and  C_14
REMARK                            x       y       z     vdW  Elec       q    Type
REMARK                         _______ _______ _______ _____ _____    ______ ____
ROOT
ATOM      1  C   UNL     1       2.330   4.461  19.470  0.00  0.00    +0.000 A 
ATOM      2  C   UNL     1       2.017   5.799  19.706  0.00  0.00    +0.000 A 
ATOM      3  C   UNL     1       2.602   6.825  18.959  0.00  0.00    +0.000 A 
ATOM      4  C   UNL     1       3.544   6.456  18.000  0.00  0.00    +0.000 A 
ATOM      5  N   UNL     1       4.272   7.208  17.124  0.00  0.00    +0.000 N 
ATOM      6  N   UNL     1       5.069   6.500  16.327  0.00  0.00    +0.000 NA
ATOM      7  C   UNL     1       4.867   5.226  16.686  0.00  0.00    +0.000 A 
ATOM      8  N   UNL     1       5.467   4.160  16.102  0.00  0.00    +0.000 N 
ATOM      9  C   UNL     1       3.928   5.140  17.763  0.00  0.00    +0.000 A 
ATOM     10  C   UNL     1       3.321   4.122  18.528  0.00  0.00    +0.000 A 
ATOM     11  H   UNL     1       4.260   8.216  17.014  0.00  0.00    +0.000 HD
ATOM     12  H   UNL     1       5.492   3.267  16.584  0.00  0.00    +0.000 HD
ENDROOT
BRANCH   8  13
ATOM     13  C   UNL     1       6.048   4.120  14.812  0.00  0.00    +0.000 A 
ATOM     14  C   UNL     1       7.136   4.945  14.503  0.00  0.00    +0.000 A 
ATOM     15  C   UNL     1       7.633   5.012  13.194  0.00  0.00    +0.000 A 
ATOM     16  C   UNL     1       7.050   4.253  12.179  0.00  0.00    +0.000 A 
ATOM     17  C   UNL     1       5.980   3.419  12.478  0.00  0.00    +0.000 A 
ATOM     18 CL   UNL     1       5.254   2.466  11.239  0.00  0.00    +0.000 Cl
ATOM     19  C   UNL     1       5.482   3.354  13.775  0.00  0.00    +0.000 A 
ENDBRANCH   8  13
BRANCH   1  20
ATOM     20  O   UNL     1       1.761   3.396  20.104  0.00  0.00    +0.000 OA
BRANCH  20  22
ATOM     21  F   UNL     1       1.274   2.323  22.120  0.00  0.00    +0.000 F 
ATOM     22  C   UNL     1       2.163   3.070  21.432  0.00  0.00    +0.000 C 
ATOM     23  F   UNL     1       2.398   4.209  22.120  0.00  0.00    +0.000 F 
ATOM     24  F   UNL     1       3.319   2.371  21.370  0.00  0.00    +0.000 F 
ENDBRANCH  20  22
ENDBRANCH   1  20
TORSDOF 3
ENDMDL
MODEL 4
REMARK VINA RESULT:      -7.9      1.467      1.852
REMARK  Name = 
REMARK  3 active torsions:
REMARK  status: ('A' for Active; 'I' for Inactive)
REMARK    1  A    between atoms: C_2  and  O_5
REMARK    2  A    between atoms: O_5  and  C_6
REMARK    3  A    between atoms: N_13  and  C_14
REMARK                            x       y       z     vdW  Elec       q    Type
REMARK                         _______ _______ _______ _____ _____    ______ ____
ROOT
ATOM      1  C   UNL     1       2.422   4.310  19.453  0.00  0.00    +0.000 A 
ATOM      2  C   UNL     1       2.099   5.625  19.788  0.00  0.00    +0.000 A 
ATOM      3  C   UNL     1       2.631   6.707  19.080  0.00  0.00    +0.000 A 
ATOM      4  C   UNL     1       3.531   6.417  18.057  0.00  0.00    +0.000 A 
ATOM      5  N   UNL     1       4.204   7.236  17.197  0.00  0.00    +0.000 N 
ATOM      6  N   UNL     1       4.972   6.594  16.321  0.00  0.00    +0.000 NA
ATOM      7  C   UNL     1       4.809   5.296  16.607  0.00  0.00    +0.000 A 
ATOM      8  N   UNL     1       5.398   4.281  15.929  0.00  0.00    +0.000 N 
ATOM      9  C   UNL     1       3.925   5.126  17.719  0.00  0.00    +0.000 A 
ATOM     10  C   UNL     1       3.372   4.050  18.446  0.00  0.00    +0.000 A 
ATOM     11  H   UNL     1       4.169   8.248  17.152  0.00  0.00    +0.000 HD
ATOM     12  H   UNL     1       5.461   3.361  16.352  0.00  0.00    +0.000 HD
ENDROOT
BRANCH   8  13
ATOM     13  C   UNL     1       5.916   4.333  14.613  0.00  0.00    +0.000 A 
ATOM     14  C   UNL     1       5.372   3.521  13.609  0.00  0.00    +0.000 A 
ATOM     15  C   UNL     1       5.961   3.465  12.339  0.00  0.00    +0.000 A 
ATOM     16  C   UNL     1       7.098   4.223  12.055  0.00  0.00    +0.000 A 
ATOM     17  C   UNL     1       7.636   5.043  13.038  0.00  0.00    +0.000 A 
ATOM     18 CL   UNL     1       9.034   5.993  12.702  0.00  0.00    +0.000 Cl
ATOM     19  C   UNL     1       7.056   5.097  14.301  0.00  0.00    +0.000 A 
ENDBRANCH   8  13
BRANCH   1  20
ATOM     20  O   UNL     1       1.902   3.197  20.044  0.00  0.00    +0.000 OA
BRANCH  20  22
ATOM     21  F   UNL     1       1.383   2.073  22.024  0.00  0.00    +0.000 F 
ATOM     22  C   UNL     1       2.255   2.884  21.389  0.00  0.00    +0.000 C 
ATOM     23  F   UNL     1       2.380   4.028  22.097  0.00  0.00    +0.000 F 
ATOM     24  F   UNL     1       3.455   2.261  21.382  0.00  0.00    +0.000 F 
ENDBRANCH  20  22
ENDBRANCH   1  20
TORSDOF 3
ENDMDL
MODEL 5
REMARK VINA RESULT:      -7.9      5.122      7.852
REMARK  Name = 
REMARK  3 active torsions:
REMARK  status: ('A' for Active; 'I' for Inactive)
REMARK    1  A    between atoms: C_2  and  O_5
REMARK    2  A    between atoms: O_5  and  C_6
REMARK    3  A    between atoms: N_13  and  C_14
REMARK                            x       y       z     vdW  Elec       q    Type
REMARK                         _______ _______ _______ _____ _____    ______ ____
ROOT
ATOM      1  C   UNL     1       5.056   4.055  19.057  0.00  0.00    +0.000 A 
ATOM      2  C   UNL     1       4.362   2.845  19.047  0.00  0.00    +0.000 A 
ATOM      3  C   UNL     1       3.018   2.775  19.424  0.00  0.00    +0.000 A 
ATOM      4  C   UNL     1       2.415   3.955  19.854  0.00  0.00    +0.000 A 
ATOM      5  N   UNL     1       1.142   4.209  20.273  0.00  0.00    +0.000 N 
ATOM      6  N   UNL     1       0.914   5.482  20.588  0.00  0.00    +0.000 NA
ATOM      7  C   UNL     1       2.081   6.103  20.372  0.00  0.00    +0.000 A 
ATOM      8  N   UNL     1       2.288   7.431  20.545  0.00  0.00    +0.000 N 
ATOM      9  C   UNL     1       3.079   5.177  19.931  0.00  0.00    +0.000 A 
ATOM     10  C   UNL     1       4.434   5.222  19.542  0.00  0.00    +0.000 A 
ATOM     11  H   UNL     1       0.374   3.552  20.354  0.00  0.00    +0.000 HD
ATOM     12  H   UNL     1       3.233   7.788  20.636  0.00  0.00    +0.000 HD
ENDROOT
BRANCH   8  13
ATOM     13  C   UNL     1       1.299   8.444  20.559  0.00  0.00    +0.000 A 
ATOM     14  C   UNL     1       1.029   9.182  19.399  0.00  0.00    +0.000 A 
ATOM     15  C   UNL     1       0.150  10.273  19.435  0.00  0.00    +0.000 A 
ATOM     16  C   UNL     1      -0.472  10.638  20.630  0.00  0.00    +0.000 A 
ATOM     17  C   UNL     1      -0.222   9.904  21.783  0.00  0.00    +0.000 A 
ATOM     18 CL   UNL     1      -0.989  10.334  23.265  0.00  0.00    +0.000 Cl
ATOM     19  C   UNL     1       0.653   8.823  21.750  0.00  0.00    +0.000 A 
ENDBRANCH   8  13
BRANCH   1  20
ATOM     20  O   UNL     1       6.345   4.228  18.646  0.00  0.00    +0.000 OA
BRANCH  20  22
ATOM     21  F   UNL     1       5.618   4.547  16.450  0.00  0.00    +0.000 F 
ATOM     22  C   UNL     1       6.605   4.753  17.347  0.00  0.00    +0.000 C 
ATOM     23  F   UNL     1       7.748   4.214  16.867  0.00  0.00    +0.000 F 
ATOM     24  F   UNL     1       6.783   6.089  17.454  0.00  0.00    +0.000 F 
ENDBRANCH  20  22
ENDBRANCH   1  20
TORSDOF 3
ENDMDL
MODEL 6
REMARK VINA RESULT:      -7.8      0.712      1.131
REMARK  Name = 
REMARK  3 active torsions:
REMARK  status: ('A' for Active; 'I' for Inactive)
REMARK    1  A    between atoms: C_2  and  O_5
REMARK    2  A    between atoms: O_5  and  C_6
REMARK    3  A    between atoms: N_13  and  C_14
REMARK                            x       y       z     vdW  Elec       q    Type
REMARK                         _______ _______ _______ _____ _____    ______ ____
ROOT
ATOM      1  C   UNL     1       3.190   4.070  19.657  0.00  0.00    +0.000 A 
ATOM      2  C   UNL     1       2.637   5.333  19.865  0.00  0.00    +0.000 A 
ATOM      3  C   UNL     1       2.921   6.401  19.010  0.00  0.00    +0.000 A 
ATOM      4  C   UNL     1       3.815   6.161  17.968  0.00  0.00    +0.000 A 
ATOM      5  N   UNL     1       4.281   6.981  16.981  0.00  0.00    +0.000 N 
ATOM      6  N   UNL     1       5.119   6.391  16.132  0.00  0.00    +0.000 NA
ATOM      7  C   UNL     1       5.218   5.129  16.569  0.00  0.00    +0.000 A 
ATOM      8  N   UNL     1       5.960   4.165  15.970  0.00  0.00    +0.000 N 
ATOM      9  C   UNL     1       4.433   4.933  17.749  0.00  0.00    +0.000 A 
ATOM     10  C   UNL     1       4.127   3.870  18.625  0.00  0.00    +0.000 A 
ATOM     11  H   UNL     1       4.052   7.956  16.827  0.00  0.00    +0.000 HD
ATOM     12  H   UNL     1       6.216   3.330  16.486  0.00  0.00    +0.000 HD
ENDROOT
BRANCH   8  13
ATOM     13  C   UNL     1       6.401   4.153  14.625  0.00  0.00    +0.000 A 
ATOM     14  C   UNL     1       7.408   5.030  14.205  0.00  0.00    +0.000 A 
ATOM     15  C   UNL     1       7.759   5.121  12.852  0.00  0.00    +0.000 A 
ATOM     16  C   UNL     1       7.109   4.333  11.901  0.00  0.00    +0.000 A 
ATOM     17  C   UNL     1       6.118   3.448  12.309  0.00  0.00    +0.000 A 
ATOM     18 CL   UNL     1       5.311   2.460  11.150  0.00  0.00    +0.000 Cl
ATOM     19  C   UNL     1       5.766   3.360  13.651  0.00  0.00    +0.000 A 
ENDBRANCH   8  13
BRANCH   1  20
ATOM     20  O   UNL     1       2.919   2.959  20.400  0.00  0.00    +0.000 OA
BRANCH  20  22
ATOM     21  F   UNL     1       2.290   3.984  22.401  0.00  0.00    +0.000 F 
ATOM     22  C   UNL     1       1.994   3.043  21.480  0.00  0.00    +0.000 C 
ATOM     23  F   UNL     1       1.914   1.842  22.095  0.00  0.00    +0.000 F 
ATOM     24  F   UNL     1       0.774   3.339  20.976  0.00  0.00    +0.000 F 
ENDBRANCH  20  22
ENDBRANCH   1  20
TORSDOF 3
ENDMDL
MODEL 7
REMARK VINA RESULT:      -7.6      4.969      7.560
REMARK  Name = 
REMARK  3 active torsions:
REMARK  status: ('A' for Active; 'I' for Inactive)
REMARK    1  A    between atoms: C_2  and  O_5
REMARK    2  A    between atoms: O_5  and  C_6
REMARK    3  A    between atoms: N_13  and  C_14
REMARK                            x       y       z     vdW  Elec       q    Type
REMARK                         _______ _______ _______ _____ _____    ______ ____
ROOT
ATOM      1  C   UNL     1       4.691   5.354  17.142  0.00  0.00    +0.000 A 
ATOM      2  C   UNL     1       4.666   4.489  18.235  0.00  0.00    +0.000 A 
ATOM      3  C   UNL     1       3.911   4.780  19.375  0.00  0.00    +0.000 A 
ATOM      4  C   UNL     1       3.223   5.992  19.391  0.00  0.00    +0.000 A 
ATOM      5  N   UNL     1       2.412   6.549  20.336  0.00  0.00    +0.000 N 
ATOM      6  N   UNL     1       1.900   7.728  19.990  0.00  0.00    +0.000 NA
ATOM      7  C   UNL     1       2.390   7.968  18.767  0.00  0.00    +0.000 A 
ATOM      8  N   UNL     1       2.097   9.064  18.024  0.00  0.00    +0.000 N 
ATOM      9  C   UNL     1       3.258   6.912  18.347  0.00  0.00    +0.000 A 
ATOM     10  C   UNL     1       4.025   6.593  17.206  0.00  0.00    +0.000 A 
ATOM     11  H   UNL     1       2.158   6.165  21.238  0.00  0.00    +0.000 HD
ATOM     12  H   UNL     1       2.696   9.324  17.249  0.00  0.00    +0.000 HD
ENDROOT
BRANCH   8  13
ATOM     13  C   UNL     1       0.967   9.905  18.170  0.00  0.00    +0.000 A 
ATOM     14  C   UNL     1       1.074  11.113  18.870  0.00  0.00    +0.000 A 
ATOM     15  C   UNL     1      -0.063  11.888  19.135  0.00  0.00    +0.000 A 
ATOM     16  C   UNL     1      -1.320  11.466  18.701  0.00  0.00    +0.000 A 
ATOM     17  C   UNL     1      -1.435  10.277  17.993  0.00  0.00    +0.000 A 
ATOM     18 CL   UNL     1      -2.979   9.745  17.440  0.00  0.00    +0.000 Cl
ATOM     19  C   UNL     1      -0.309   9.504  17.732  0.00  0.00    +0.000 A 
ENDBRANCH   8  13
BRANCH   1  20
ATOM     20  O   UNL     1       5.345   5.121  15.968  0.00  0.00    +0.000 OA
BRANCH  20  22
ATOM     21  F   UNL     1       7.297   5.244  14.693  0.00  0.00    +0.000 F 
ATOM     22  C   UNL     1       6.768   5.171  15.933  0.00  0.00    +0.000 C 
ATOM     23  F   UNL     1       7.270   4.082  16.556  0.00  0.00    +0.000 F 
ATOM     24  F   UNL     1       7.174   6.268  16.611  0.00  0.00    +0.000 F 
ENDBRANCH  20  22
ENDBRANCH   1  20
TORSDOF 3
ENDMDL
MODEL 8
REMARK VINA RESULT:      -7.6      4.279      5.565
REMARK  Name = 
REMARK  3 active torsions:
REMARK  status: ('A' for Active; 'I' for Inactive)
REMARK    1  A    between atoms: C_2  and  O_5
REMARK    2  A    between atoms: O_5  and  C_6
REMARK    3  A    between atoms: N_13  and  C_14
REMARK                            x       y       z     vdW  Elec       q    Type
REMARK                         _______ _______ _______ _____ _____    ______ ____
ROOT
ATOM      1  C   UNL     1       0.683   9.899  19.338  0.00  0.00    +0.000 A 
ATOM      2  C   UNL     1       0.363   9.419  20.607  0.00  0.00    +0.000 A 
ATOM      3  C   UNL     1       0.939   8.247  21.107  0.00  0.00    +0.000 A 
ATOM      4  C   UNL     1       1.810   7.557  20.266  0.00  0.00    +0.000 A 
ATOM      5  N   UNL     1       2.521   6.409  20.461  0.00  0.00    +0.000 N 
ATOM      6  N   UNL     1       3.280   6.055  19.426  0.00  0.00    +0.000 NA
ATOM      7  C   UNL     1       3.067   7.002  18.504  0.00  0.00    +0.000 A 
ATOM      8  N   UNL     1       3.670   7.043  17.291  0.00  0.00    +0.000 N 
ATOM      9  C   UNL     1       2.120   7.968  18.973  0.00  0.00    +0.000 A 
ATOM     10  C   UNL     1       1.528   9.155  18.492  0.00  0.00    +0.000 A 
ATOM     11  H   UNL     1       2.539   5.825  21.289  0.00  0.00    +0.000 HD
ATOM     12  H   UNL     1       3.273   7.606  16.547  0.00  0.00    +0.000 HD
ENDROOT
BRANCH   8  13
ATOM     13  C   UNL     1       4.882   6.406  16.930  0.00  0.00    +0.000 A 
ATOM     14  C   UNL     1       6.090   6.803  17.518  0.00  0.00    +0.000 A 
ATOM     15  C   UNL     1       7.309   6.274  17.073  0.00  0.00    +0.000 A 
ATOM     16  C   UNL     1       7.336   5.340  16.037  0.00  0.00    +0.000 A 
ATOM     17  C   UNL     1       6.142   4.928  15.457  0.00  0.00    +0.000 A 
ATOM     18 CL   UNL     1       6.156   3.768  14.183  0.00  0.00    +0.000 Cl
ATOM     19  C   UNL     1       4.932   5.455  15.894  0.00  0.00    +0.000 A 
ENDBRANCH   8  13
BRANCH   1  20
ATOM     20  O   UNL     1       0.220  11.062  18.796  0.00  0.00    +0.000 OA
BRANCH  20  22
ATOM     21  F   UNL     1      -1.941  11.511  19.557  0.00  0.00    +0.000 F 
ATOM     22  C   UNL     1      -1.167  11.197  18.497  0.00  0.00    +0.000 C 
ATOM     23  F   UNL     1      -1.621  10.047  17.952  0.00  0.00    +0.000 F 
ATOM     24  F   UNL     1      -1.312  12.182  17.582  0.00  0.00    +0.000 F 
ENDBRANCH  20  22
ENDBRANCH   1  20
TORSDOF 3
ENDMDL
MODEL 9
REMARK VINA RESULT:      -7.6      5.007      7.798
REMARK  Name = 
REMARK  3 active torsions:
REMARK  status: ('A' for Active; 'I' for Inactive)
REMARK    1  A    between atoms: C_2  and  O_5
REMARK    2  A    between atoms: O_5  and  C_6
REMARK    3  A    between atoms: N_13  and  C_14
REMARK                            x       y       z     vdW  Elec       q    Type
REMARK                         _______ _______ _______ _____ _____    ______ ____
ROOT
ATOM      1  C   UNL     1       5.045   4.169  17.749  0.00  0.00    +0.000 A 
ATOM      2  C   UNL     1       4.409   2.930  17.812  0.00  0.00    +0.000 A 
ATOM      3  C   UNL     1       3.182   2.775  18.463  0.00  0.00    +0.000 A 
ATOM      4  C   UNL     1       2.646   3.900  19.086  0.00  0.00    +0.000 A 
ATOM      5  N   UNL     1       1.486   4.070  19.784  0.00  0.00    +0.000 N 
ATOM      6  N   UNL     1       1.287   5.312  20.220  0.00  0.00    +0.000 NA
ATOM      7  C   UNL     1       2.358   5.998  19.799  0.00  0.00    +0.000 A 
ATOM      8  N   UNL     1       2.550   7.324  20.007  0.00  0.00    +0.000 N 
ATOM      9  C   UNL     1       3.267   5.146  19.096  0.00  0.00    +0.000 A 
ATOM     10  C   UNL     1       4.504   5.277  18.429  0.00  0.00    +0.000 A 
ATOM     11  H   UNL     1       0.778   3.374  19.987  0.00  0.00    +0.000 HD
ATOM     12  H   UNL     1       3.479   7.720  19.916  0.00  0.00    +0.000 HD
ENDROOT
BRANCH   8  13
ATOM     13  C   UNL     1       1.553   8.286  20.297  0.00  0.00    +0.000 A 
ATOM     14  C   UNL     1       1.108   9.163  19.299  0.00  0.00    +0.000 A 
ATOM     15  C   UNL     1       0.221  10.203  19.606  0.00  0.00    +0.000 A 
ATOM     16  C   UNL     1      -0.234  10.379  20.914  0.00  0.00    +0.000 A 
ATOM     17  C   UNL     1       0.189   9.506  21.908  0.00  0.00    +0.000 A 
ATOM     18 CL   UNL     1      -0.370   9.701  23.526  0.00  0.00    +0.000 Cl
ATOM     19  C   UNL     1       1.073   8.475  21.606  0.00  0.00    +0.000 A 
ENDBRANCH   8  13
BRANCH   1  20
ATOM     20  O   UNL     1       6.207   4.425  17.083  0.00  0.00    +0.000 OA
BRANCH  20  22
ATOM     21  F   UNL     1       6.119   3.272  15.055  0.00  0.00    +0.000 F 
ATOM     22  C   UNL     1       6.206   4.475  15.659  0.00  0.00    +0.000 C 
ATOM     23  F   UNL     1       7.329   5.095  15.232  0.00  0.00    +0.000 F 
ATOM     24  F   UNL     1       5.143   5.208  15.258  0.00  0.00    +0.000 F 
ENDBRANCH  20  22
ENDBRANCH   1  20
TORSDOF 3
ENDMDL
