MODEL 1
REMARK VINA RESULT:      -8.1      0.000      0.000
REMARK  Name = 
REMARK  4 active torsions:
REMARK  status: ('A' for Active; 'I' for Inactive)
REMARK    1  A    between atoms: C_1  and  C_2
REMARK    2  A    between atoms: C_6  and  C_7
REMARK    3  A    between atoms: C_8  and  N_9
REMARK    4  A    between atoms: C_15  and  C_16
REMARK                            x       y       z     vdW  Elec       q    Type
REMARK                         _______ _______ _______ _____ _____    ______ ____
ROOT
ATOM      1  N   UNL     1      -0.296  11.938  20.011  0.00  0.00    +0.000 N 
ATOM      2  C   UNL     1      -1.216  11.170  19.344  0.00  0.00    +0.000 C 
ATOM      3  O   UNL     1      -2.396  11.419  19.139  0.00  0.00    +0.000 OA
ATOM      4  C   UNL     1      -0.524   9.970  18.759  0.00  0.00    +0.000 C 
ATOM      5  C   UNL     1       0.881  10.063  19.329  0.00  0.00    +0.000 C 
ATOM      6  C   UNL     1       1.983   9.531  18.441  0.00  0.00    +0.000 C 
ATOM      7  C   UNL     1       2.093   8.155  19.019  0.00  0.00    +0.000 C 
ATOM      8  N   UNL     1       1.521   8.017  20.174  0.00  0.00    +0.000 NA
ATOM      9  O   UNL     1       0.961   9.265  20.521  0.00  0.00    +0.000 OA
ATOM     10  C   UNL     1       0.991  11.509  19.774  0.00  0.00    +0.000 C 
ATOM     11  O   UNL     1       2.030  12.142  19.874  0.00  0.00    +0.000 OA
ENDROOT
BRANCH   7  12
ATOM     12  C   UNL     1       2.802   7.046  18.331  0.00  0.00    +0.000 A 
ATOM     13  C   UNL     1       2.367   5.727  18.537  0.00  0.00    +0.000 A 
ATOM     14  C   UNL     1       3.006   4.660  17.897  0.00  0.00    +0.000 A 
ATOM     15  C   UNL     1       4.087   4.902  17.054  0.00  0.00    +0.000 A 
ATOM     16  C   UNL     1       4.511   6.213  16.827  0.00  0.00    +0.000 A 
ATOM     17  C   UNL     1       3.882   7.283  17.474  0.00  0.00    +0.000 A 
ATOM     18  O   UNL     1       5.544   6.535  15.984  0.00  0.00    +0.000 OA
ATOM     19  C   UNL     1       5.898   5.434  15.139  0.00  0.00    +0.000 C 
ATOM     20  C   UNL     1       5.963   4.139  15.932  0.00  0.00    +0.000 C 
ATOM     21  O   UNL     1       4.678   3.811  16.472  0.00  0.00    +0.000 OA
ENDBRANCH   7  12
BRANCH   1  29
ATOM     22  C   UNL     1      -0.254  14.419  18.392  0.00  0.00    +0.000 C 
ATOM     23  C   UNL     1      -0.612  14.379  19.851  0.00  0.00    +0.000 A 
ATOM     24  C   UNL     1      -0.970  15.581  20.485  0.00  0.00    +0.000 A 
ATOM     25  C   UNL     1      -1.360  15.599  21.822  0.00  0.00    +0.000 A 
ATOM     26  C   UNL     1      -1.398  14.414  22.548  0.00  0.00    +0.000 A 
ATOM     27  C   UNL     1      -1.029  13.197  21.953  0.00  0.00    +0.000 A 
ATOM     28  C   UNL     1      -1.112  11.940  22.777  0.00  0.00    +0.000 C 
ATOM     29  C   UNL     1      -0.626  13.181  20.597  0.00  0.00    +0.000 A 
ENDBRANCH   1  29
TORSDOF 2
ENDMDL
MODEL 2
REMARK VINA RESULT:      -8.0      0.277      1.639
REMARK  Name = 
REMARK  4 active torsions:
REMARK  status: ('A' for Active; 'I' for Inactive)
REMARK    1  A    between atoms: C_1  and  C_2
REMARK    2  A    between atoms: C_6  and  C_7
REMARK    3  A    between atoms: C_8  and  N_9
REMARK    4  A    between atoms: C_15  and  C_16
REMARK                            x       y       z     vdW  Elec       q    Type
REMARK                         _______ _______ _______ _____ _____    ______ ____
ROOT
ATOM      1  N   UNL     1      -0.303  11.717  19.844  0.00  0.00    +0.000 N 
ATOM      2  C   UNL     1      -1.197  10.932  19.162  0.00  0.00    +0.000 C 
ATOM      3  O   UNL     1      -2.380  11.156  18.945  0.00  0.00    +0.000 OA
ATOM      4  C   UNL     1      -0.472   9.752  18.577  0.00  0.00    +0.000 C 
ATOM      5  C   UNL     1       0.925   9.873  19.164  0.00  0.00    +0.000 C 
ATOM      6  C   UNL     1       2.048   9.372  18.284  0.00  0.00    +0.000 C 
ATOM      7  C   UNL     1       2.182   7.995  18.855  0.00  0.00    +0.000 C 
ATOM      8  N   UNL     1       1.601   7.836  20.003  0.00  0.00    +0.000 NA
ATOM      9  O   UNL     1       1.009   9.070  20.351  0.00  0.00    +0.000 OA
ATOM     10  C   UNL     1       0.996  11.318  19.619  0.00  0.00    +0.000 C 
ATOM     11  O   UNL     1       2.020  11.974  19.735  0.00  0.00    +0.000 OA
ENDROOT
BRANCH   7  12
ATOM     12  C   UNL     1       2.923   6.906  18.168  0.00  0.00    +0.000 A 
ATOM     13  C   UNL     1       2.475   5.583  18.306  0.00  0.00    +0.000 A 
ATOM     14  C   UNL     1       3.144   4.535  17.665  0.00  0.00    +0.000 A 
ATOM     15  C   UNL     1       4.268   4.801  16.888  0.00  0.00    +0.000 A 
ATOM     16  C   UNL     1       4.707   6.117  16.728  0.00  0.00    +0.000 A 
ATOM     17  C   UNL     1       4.047   7.168  17.377  0.00  0.00    +0.000 A 
ATOM     18  O   UNL     1       5.784   6.463  15.952  0.00  0.00    +0.000 OA
ATOM     19  C   UNL     1       6.178   5.389  15.090  0.00  0.00    +0.000 C 
ATOM     20  C   UNL     1       6.199   4.068  15.841  0.00  0.00    +0.000 C 
ATOM     21  O   UNL     1       4.887   3.728  16.302  0.00  0.00    +0.000 OA
ENDBRANCH   7  12
BRANCH   1  29
ATOM     22  C   UNL     1      -0.991  11.856  22.722  0.00  0.00    +0.000 C 
ATOM     23  C   UNL     1      -1.001  13.043  21.802  0.00  0.00    +0.000 A 
ATOM     24  C   UNL     1      -1.333  14.300  22.336  0.00  0.00    +0.000 A 
ATOM     25  C   UNL     1      -1.311  15.446  21.544  0.00  0.00    +0.000 A 
ATOM     26  C   UNL     1      -0.956  15.353  20.203  0.00  0.00    +0.000 A 
ATOM     27  C   UNL     1      -0.636  14.112  19.631  0.00  0.00    +0.000 A 
ATOM     28  C   UNL     1      -0.234  14.072  18.181  0.00  0.00    +0.000 C 
ATOM     29  C   UNL     1      -0.666  12.948  20.434  0.00  0.00    +0.000 A 
ENDBRANCH   1  29
TORSDOF 2
ENDMDL
MODEL 3
REMARK VINA RESULT:      -8.0      1.829      2.647
REMARK  Name = 
REMARK  4 active torsions:
REMARK  status: ('A' for Active; 'I' for Inactive)
REMARK    1  A    between atoms: C_1  and  C_2
REMARK    2  A    between atoms: C_6  and  C_7
REMARK    3  A    between atoms: C_8  and  N_9
REMARK    4  A    between atoms: C_15  and  C_16
REMARK                            x       y       z     vdW  Elec       q    Type
REMARK                         _______ _______ _______ _____ _____    ______ ____
ROOT
ATOM      1  N   UNL     1      -0.624  11.294  19.901  0.00  0.00    +0.000 N 
ATOM      2  C   UNL     1       0.498  11.990  19.530  0.00  0.00    +0.000 C 
ATOM      3  O   UNL     1       0.656  13.203  19.506  0.00  0.00    +0.000 OA
ATOM      4  C   UNL     1       1.613  11.019  19.257  0.00  0.00    +0.000 C 
ATOM      5  C   UNL     1       0.929   9.665  19.350  0.00  0.00    +0.000 C 
ATOM      6  C   UNL     1       1.791   8.532  19.861  0.00  0.00    +0.000 C 
ATOM      7  C   UNL     1       2.218   7.964  18.544  0.00  0.00    +0.000 C 
ATOM      8  N   UNL     1       1.510   8.368  17.536  0.00  0.00    +0.000 NA
ATOM      9  O   UNL     1       0.526   9.249  18.035  0.00  0.00    +0.000 OA
ATOM     10  C   UNL     1      -0.346   9.962  20.114  0.00  0.00    +0.000 C 
ATOM     11  O   UNL     1      -0.970   9.158  20.791  0.00  0.00    +0.000 OA
ENDROOT
BRANCH   7  12
ATOM     12  C   UNL     1       3.351   7.013  18.406  0.00  0.00    +0.000 A 
ATOM     13  C   UNL     1       3.526   6.016  19.379  0.00  0.00    +0.000 A 
ATOM     14  C   UNL     1       4.577   5.099  19.275  0.00  0.00    +0.000 A 
ATOM     15  C   UNL     1       5.463   5.176  18.205  0.00  0.00    +0.000 A 
ATOM     16  C   UNL     1       5.282   6.151  17.222  0.00  0.00    +0.000 A 
ATOM     17  C   UNL     1       4.238   7.078  17.328  0.00  0.00    +0.000 A 
ATOM     18  O   UNL     1       6.091   6.270  16.120  0.00  0.00    +0.000 OA
ATOM     19  C   UNL     1       6.903   5.105  15.935  0.00  0.00    +0.000 C 
ATOM     20  C   UNL     1       7.507   4.648  17.253  0.00  0.00    +0.000 C 
ATOM     21  O   UNL     1       6.481   4.258  18.172  0.00  0.00    +0.000 OA
ENDBRANCH   7  12
BRANCH   1  29
ATOM     22  C   UNL     1      -0.873  12.414  22.632  0.00  0.00    +0.000 C 
ATOM     23  C   UNL     1      -1.964  12.474  21.602  0.00  0.00    +0.000 A 
ATOM     24  C   UNL     1      -3.167  13.118  21.939  0.00  0.00    +0.000 A 
ATOM     25  C   UNL     1      -4.196  13.249  21.009  0.00  0.00    +0.000 A 
ATOM     26  C   UNL     1      -4.039  12.737  19.726  0.00  0.00    +0.000 A 
ATOM     27  C   UNL     1      -2.858  12.073  19.359  0.00  0.00    +0.000 A 
ATOM     28  C   UNL     1      -2.731  11.561  17.950  0.00  0.00    +0.000 C 
ATOM     29  C   UNL     1      -1.817  11.933  20.307  0.00  0.00    +0.000 A 
ENDBRANCH   1  29
TORSDOF 2
ENDMDL
MODEL 4
REMARK VINA RESULT:      -8.0      1.825      2.316
REMARK  Name = 
REMARK  4 active torsions:
REMARK  status: ('A' for Active; 'I' for Inactive)
REMARK    1  A    between atoms: C_1  and  C_2
REMARK    2  A    between atoms: C_6  and  C_7
REMARK    3  A    between atoms: C_8  and  N_9
REMARK    4  A    between atoms: C_15  and  C_16
REMARK                            x       y       z     vdW  Elec       q    Type
REMARK                         _______ _______ _______ _____ _____    ______ ____
ROOT
ATOM      1  N   UNL     1      -0.631  11.328  19.815  0.00  0.00    +0.000 N 
ATOM      2  C   UNL     1       0.488  12.017  19.423  0.00  0.00    +0.000 C 
ATOM      3  O   UNL     1       0.645  13.229  19.371  0.00  0.00    +0.000 OA
ATOM      4  C   UNL     1       1.603  11.041  19.165  0.00  0.00    +0.000 C 
ATOM      5  C   UNL     1       0.922   9.689  19.292  0.00  0.00    +0.000 C 
ATOM      6  C   UNL     1       1.787   8.569  19.825  0.00  0.00    +0.000 C 
ATOM      7  C   UNL     1       2.207   7.971  18.518  0.00  0.00    +0.000 C 
ATOM      8  N   UNL     1       1.494   8.351  17.506  0.00  0.00    +0.000 NA
ATOM      9  O   UNL     1       0.512   9.243  17.990  0.00  0.00    +0.000 OA
ATOM     10  C   UNL     1      -0.350  10.001  20.057  0.00  0.00    +0.000 C 
ATOM     11  O   UNL     1      -0.969   9.212  20.755  0.00  0.00    +0.000 OA
ENDROOT
BRANCH   7  12
ATOM     12  C   UNL     1       3.340   7.018  18.396  0.00  0.00    +0.000 A 
ATOM     13  C   UNL     1       3.504   6.025  19.374  0.00  0.00    +0.000 A 
ATOM     14  C   UNL     1       4.555   5.106  19.285  0.00  0.00    +0.000 A 
ATOM     15  C   UNL     1       5.453   5.178  18.223  0.00  0.00    +0.000 A 
ATOM     16  C   UNL     1       5.283   6.150  17.235  0.00  0.00    +0.000 A 
ATOM     17  C   UNL     1       4.239   7.079  17.326  0.00  0.00    +0.000 A 
ATOM     18  O   UNL     1       6.103   6.263  16.140  0.00  0.00    +0.000 OA
ATOM     19  C   UNL     1       6.916   5.096  15.969  0.00  0.00    +0.000 C 
ATOM     20  C   UNL     1       7.506   4.644  17.295  0.00  0.00    +0.000 C 
ATOM     21  O   UNL     1       6.469   4.259  18.204  0.00  0.00    +0.000 OA
ENDBRANCH   7  12
BRANCH   1  29
ATOM     22  C   UNL     1      -2.925  11.525  17.952  0.00  0.00    +0.000 C 
ATOM     23  C   UNL     1      -2.929  12.086  19.346  0.00  0.00    +0.000 A 
ATOM     24  C   UNL     1      -4.095  12.722  19.806  0.00  0.00    +0.000 A 
ATOM     25  C   UNL     1      -4.177  13.217  21.106  0.00  0.00    +0.000 A 
ATOM     26  C   UNL     1      -3.094  13.084  21.966  0.00  0.00    +0.000 A 
ATOM     27  C   UNL     1      -1.907  12.471  21.535  0.00  0.00    +0.000 A 
ATOM     28  C   UNL     1      -0.774  12.331  22.516  0.00  0.00    +0.000 C 
ATOM     29  C   UNL     1      -1.822  11.975  20.213  0.00  0.00    +0.000 A 
ENDBRANCH   1  29
TORSDOF 2
ENDMDL
MODEL 5
REMARK VINA RESULT:      -7.8      1.511      2.205
REMARK  Name = 
REMARK  4 active torsions:
REMARK  status: ('A' for Active; 'I' for Inactive)
REMARK    1  A    between atoms: C_1  and  C_2
REMARK    2  A    between atoms: C_6  and  C_7
REMARK    3  A    between atoms: C_8  and  N_9
REMARK    4  A    between atoms: C_15  and  C_16
REMARK                            x       y       z     vdW  Elec       q    Type
REMARK                         _______ _______ _______ _____ _____    ______ ____
ROOT
ATOM      1  N   UNL     1      -0.746  12.181  20.562  0.00  0.00    +0.000 N 
ATOM      2  C   UNL     1      -1.565  11.494  19.703  0.00  0.00    +0.000 C 
ATOM      3  O   UNL     1      -2.640  11.852  19.241  0.00  0.00    +0.000 OA
ATOM      4  C   UNL     1      -0.882  10.222  19.280  0.00  0.00    +0.000 C 
ATOM      5  C   UNL     1       0.364  10.188  20.150  0.00  0.00    +0.000 C 
ATOM      6  C   UNL     1       1.578   9.537  19.527  0.00  0.00    +0.000 C 
ATOM      7  C   UNL     1       1.420   8.167  20.108  0.00  0.00    +0.000 C 
ATOM      8  N   UNL     1       0.596   8.105  21.106  0.00  0.00    +0.000 NA
ATOM      9  O   UNL     1       0.097   9.408  21.326  0.00  0.00    +0.000 OA
ATOM     10  C   UNL     1       0.513  11.624  20.615  0.00  0.00    +0.000 C 
ATOM     11  O   UNL     1       1.561  12.156  20.948  0.00  0.00    +0.000 OA
ENDROOT
BRANCH   7  12
ATOM     12  C   UNL     1       2.152   6.983  19.590  0.00  0.00    +0.000 A 
ATOM     13  C   UNL     1       2.860   7.094  18.383  0.00  0.00    +0.000 A 
ATOM     14  C   UNL     1       3.567   6.002  17.870  0.00  0.00    +0.000 A 
ATOM     15  C   UNL     1       3.565   4.789  18.555  0.00  0.00    +0.000 A 
ATOM     16  C   UNL     1       2.881   4.678  19.767  0.00  0.00    +0.000 A 
ATOM     17  C   UNL     1       2.162   5.766  20.278  0.00  0.00    +0.000 A 
ATOM     18  O   UNL     1       2.860   3.530  20.518  0.00  0.00    +0.000 OA
ATOM     19  C   UNL     1       3.867   2.604  20.092  0.00  0.00    +0.000 C 
ATOM     20  C   UNL     1       3.902   2.499  18.576  0.00  0.00    +0.000 C 
ATOM     21  O   UNL     1       4.263   3.754  17.990  0.00  0.00    +0.000 OA
ENDBRANCH   7  12
BRANCH   1  29
ATOM     22  C   UNL     1      -0.210  14.611  18.954  0.00  0.00    +0.000 C 
ATOM     23  C   UNL     1      -0.827  14.634  20.324  0.00  0.00    +0.000 A 
ATOM     24  C   UNL     1      -1.195  15.875  20.870  0.00  0.00    +0.000 A 
ATOM     25  C   UNL     1      -1.818  15.956  22.113  0.00  0.00    +0.000 A 
ATOM     26  C   UNL     1      -2.082  14.796  22.832  0.00  0.00    +0.000 A 
ATOM     27  C   UNL     1      -1.712  13.540  22.325  0.00  0.00    +0.000 A 
ATOM     28  C   UNL     1      -2.044  12.314  23.133  0.00  0.00    +0.000 C 
ATOM     29  C   UNL     1      -1.073  13.459  21.066  0.00  0.00    +0.000 A 
ENDBRANCH   1  29
TORSDOF 2
ENDMDL
MODEL 6
REMARK VINA RESULT:      -7.7      1.511      2.742
REMARK  Name = 
REMARK  4 active torsions:
REMARK  status: ('A' for Active; 'I' for Inactive)
REMARK    1  A    between atoms: C_1  and  C_2
REMARK    2  A    between atoms: C_6  and  C_7
REMARK    3  A    between atoms: C_8  and  N_9
REMARK    4  A    between atoms: C_15  and  C_16
REMARK                            x       y       z     vdW  Elec       q    Type
REMARK                         _______ _______ _______ _____ _____    ______ ____
ROOT
ATOM      1  N   UNL     1      -0.660  12.276  20.529  0.00  0.00    +0.000 N 
ATOM      2  C   UNL     1      -1.517  11.570  19.723  0.00  0.00    +0.000 C 
ATOM      3  O   UNL     1      -2.605  11.924  19.290  0.00  0.00    +0.000 OA
ATOM      4  C   UNL     1      -0.860  10.280  19.316  0.00  0.00    +0.000 C 
ATOM      5  C   UNL     1       0.417  10.261  20.141  0.00  0.00    +0.000 C 
ATOM      6  C   UNL     1       1.602   9.580  19.494  0.00  0.00    +0.000 C 
ATOM      7  C   UNL     1       1.455   8.230  20.124  0.00  0.00    +0.000 C 
ATOM      8  N   UNL     1       0.667   8.207  21.153  0.00  0.00    +0.000 NA
ATOM      9  O   UNL     1       0.188   9.520  21.349  0.00  0.00    +0.000 OA
ATOM     10  C   UNL     1       0.595  11.709  20.554  0.00  0.00    +0.000 C 
ATOM     11  O   UNL     1       1.659  12.242  20.831  0.00  0.00    +0.000 OA
ENDROOT
BRANCH   7  12
ATOM     12  C   UNL     1       2.156   7.023  19.617  0.00  0.00    +0.000 A 
ATOM     13  C   UNL     1       2.875   7.108  18.414  0.00  0.00    +0.000 A 
ATOM     14  C   UNL     1       3.555   5.994  17.912  0.00  0.00    +0.000 A 
ATOM     15  C   UNL     1       3.516   4.786  18.603  0.00  0.00    +0.000 A 
ATOM     16  C   UNL     1       2.821   4.700  19.812  0.00  0.00    +0.000 A 
ATOM     17  C   UNL     1       2.130   5.810  20.312  0.00  0.00    +0.000 A 
ATOM     18  O   UNL     1       2.765   3.557  20.569  0.00  0.00    +0.000 OA
ATOM     19  C   UNL     1       3.748   2.602  20.154  0.00  0.00    +0.000 C 
ATOM     20  C   UNL     1       3.790   2.487  18.639  0.00  0.00    +0.000 C 
ATOM     21  O   UNL     1       4.189   3.729  18.049  0.00  0.00    +0.000 OA
ENDBRANCH   7  12
BRANCH   1  29
ATOM     22  C   UNL     1      -1.676  12.667  23.285  0.00  0.00    +0.000 C 
ATOM     23  C   UNL     1      -1.446  13.789  22.311  0.00  0.00    +0.000 A 
ATOM     24  C   UNL     1      -1.703  15.104  22.734  0.00  0.00    +0.000 A 
ATOM     25  C   UNL     1      -1.461  16.189  21.894  0.00  0.00    +0.000 A 
ATOM     26  C   UNL     1      -0.957  15.975  20.615  0.00  0.00    +0.000 A 
ATOM     27  C   UNL     1      -0.705  14.673  20.153  0.00  0.00    +0.000 A 
ATOM     28  C   UNL     1      -0.136  14.501  18.771  0.00  0.00    +0.000 C 
ATOM     29  C   UNL     1      -0.959  13.573  21.004  0.00  0.00    +0.000 A 
ENDBRANCH   1  29
TORSDOF 2
ENDMDL
MODEL 7
REMARK VINA RESULT:      -7.6      1.192      1.314
REMARK  Name = 
REMARK  4 active torsions:
REMARK  status: ('A' for Active; 'I' for Inactive)
REMARK    1  A    between atoms: C_1  and  C_2
REMARK    2  A    between atoms: C_6  and  C_7
REMARK    3  A    between atoms: C_8  and  N_9
REMARK    4  A    between atoms: C_15  and  C_16
REMARK                            x       y       z     vdW  Elec       q    Type
REMARK                         _______ _______ _______ _____ _____    ______ ____
ROOT
ATOM      1  N   UNL     1      -0.866  12.187  20.621  0.00  0.00    +0.000 N 
ATOM      2  C   UNL     1      -1.609  11.513  19.686  0.00  0.00    +0.000 C 
ATOM      3  O   UNL     1      -2.657  11.867  19.162  0.00  0.00    +0.000 OA
ATOM      4  C   UNL     1      -0.873  10.269  19.273  0.00  0.00    +0.000 C 
ATOM      5  C   UNL     1       0.310  10.230  20.227  0.00  0.00    +0.000 C 
ATOM      6  C   UNL     1       1.578   9.622  19.670  0.00  0.00    +0.000 C 
ATOM      7  C   UNL     1       1.409   8.230  20.196  0.00  0.00    +0.000 C 
ATOM      8  N   UNL     1       0.518   8.121  21.131  0.00  0.00    +0.000 NA
ATOM      9  O   UNL     1      -0.021   9.406  21.356  0.00  0.00    +0.000 OA
ATOM     10  C   UNL     1       0.397  11.652  20.745  0.00  0.00    +0.000 C 
ATOM     11  O   UNL     1       1.409  12.192  21.167  0.00  0.00    +0.000 OA
ENDROOT
BRANCH   7  12
ATOM     12  C   UNL     1       2.198   7.077  19.693  0.00  0.00    +0.000 A 
ATOM     13  C   UNL     1       2.153   5.862  20.394  0.00  0.00    +0.000 A 
ATOM     14  C   UNL     1       2.877   4.754  19.943  0.00  0.00    +0.000 A 
ATOM     15  C   UNL     1       3.657   4.854  18.794  0.00  0.00    +0.000 A 
ATOM     16  C   UNL     1       3.690   6.053  18.079  0.00  0.00    +0.000 A 
ATOM     17  C   UNL     1       2.975   7.168  18.533  0.00  0.00    +0.000 A 
ATOM     18  O   UNL     1       4.404   6.220  16.920  0.00  0.00    +0.000 OA
ATOM     19  C   UNL     1       4.822   4.964  16.374  0.00  0.00    +0.000 C 
ATOM     20  C   UNL     1       5.371   4.053  17.460  0.00  0.00    +0.000 C 
ATOM     21  O   UNL     1       4.355   3.737  18.417  0.00  0.00    +0.000 OA
ENDBRANCH   7  12
BRANCH   1  29
ATOM     22  C   UNL     1      -0.282  14.676  19.124  0.00  0.00    +0.000 C 
ATOM     23  C   UNL     1      -0.987  14.644  20.451  0.00  0.00    +0.000 A 
ATOM     24  C   UNL     1      -1.417  15.860  21.009  0.00  0.00    +0.000 A 
ATOM     25  C   UNL     1      -2.120  15.890  22.211  0.00  0.00    +0.000 A 
ATOM     26  C   UNL     1      -2.403  14.702  22.876  0.00  0.00    +0.000 A 
ATOM     27  C   UNL     1      -1.974  13.471  22.358  0.00  0.00    +0.000 A 
ATOM     28  C   UNL     1      -2.330  12.214  23.106  0.00  0.00    +0.000 C 
ATOM     29  C   UNL     1      -1.254  13.442  21.141  0.00  0.00    +0.000 A 
ENDBRANCH   1  29
TORSDOF 2
ENDMDL
MODEL 8
REMARK VINA RESULT:      -7.5      1.611      2.847
REMARK  Name = 
REMARK  4 active torsions:
REMARK  status: ('A' for Active; 'I' for Inactive)
REMARK    1  A    between atoms: C_1  and  C_2
REMARK    2  A    between atoms: C_6  and  C_7
REMARK    3  A    between atoms: C_8  and  N_9
REMARK    4  A    between atoms: C_15  and  C_16
REMARK                            x       y       z     vdW  Elec       q    Type
REMARK                         _______ _______ _______ _____ _____    ______ ____
ROOT
ATOM      1  N   UNL     1      -1.570  12.717  21.060  0.00  0.00    +0.000 N 
ATOM      2  C   UNL     1      -2.249  12.150  20.012  0.00  0.00    +0.000 C 
ATOM      3  O   UNL     1      -3.323  12.495  19.537  0.00  0.00    +0.000 OA
ATOM      4  C   UNL     1      -1.405  11.063  19.408  0.00  0.00    +0.000 C 
ATOM      5  C   UNL     1      -0.225  10.965  20.361  0.00  0.00    +0.000 C 
ATOM      6  C   UNL     1       1.093  10.573  19.731  0.00  0.00    +0.000 C 
ATOM      7  C   UNL     1       1.046   9.103  20.012  0.00  0.00    +0.000 C 
ATOM      8  N   UNL     1       0.167   8.760  20.900  0.00  0.00    +0.000 NA
ATOM      9  O   UNL     1      -0.484   9.937  21.329  0.00  0.00    +0.000 OA
ATOM     10  C   UNL     1      -0.265  12.281  21.114  0.00  0.00    +0.000 C 
ATOM     11  O   UNL     1       0.694  12.827  21.638  0.00  0.00    +0.000 OA
ENDROOT
BRANCH   7  12
ATOM     12  C   UNL     1       1.936   8.125  19.335  0.00  0.00    +0.000 A 
ATOM     13  C   UNL     1       2.475   8.449  18.080  0.00  0.00    +0.000 A 
ATOM     14  C   UNL     1       3.324   7.555  17.419  0.00  0.00    +0.000 A 
ATOM     15  C   UNL     1       3.634   6.330  18.003  0.00  0.00    +0.000 A 
ATOM     16  C   UNL     1       3.119   6.010  19.261  0.00  0.00    +0.000 A 
ATOM     17  C   UNL     1       2.260   6.898  19.922  0.00  0.00    +0.000 A 
ATOM     18  O   UNL     1       3.405   4.840  19.918  0.00  0.00    +0.000 OA
ATOM     19  C   UNL     1       4.522   4.165  19.327  0.00  0.00    +0.000 C 
ATOM     20  C   UNL     1       4.415   4.159  17.811  0.00  0.00    +0.000 C 
ATOM     21  O   UNL     1       4.456   5.494  17.295  0.00  0.00    +0.000 OA
ENDBRANCH   7  12
BRANCH   1  29
ATOM     22  C   UNL     1      -3.041  12.324  23.601  0.00  0.00    +0.000 C 
ATOM     23  C   UNL     1      -2.775  13.670  22.989  0.00  0.00    +0.000 A 
ATOM     24  C   UNL     1      -3.227  14.815  23.668  0.00  0.00    +0.000 A 
ATOM     25  C   UNL     1      -2.967  16.091  23.176  0.00  0.00    +0.000 A 
ATOM     26  C   UNL     1      -2.249  16.245  21.995  0.00  0.00    +0.000 A 
ATOM     27  C   UNL     1      -1.797  15.124  21.281  0.00  0.00    +0.000 A 
ATOM     28  C   UNL     1      -1.003  15.348  20.022  0.00  0.00    +0.000 C 
ATOM     29  C   UNL     1      -2.069  13.828  21.777  0.00  0.00    +0.000 A 
ENDBRANCH   1  29
TORSDOF 2
ENDMDL
MODEL 9
REMARK VINA RESULT:      -7.5      1.349      2.215
REMARK  Name = 
REMARK  4 active torsions:
REMARK  status: ('A' for Active; 'I' for Inactive)
REMARK    1  A    between atoms: C_1  and  C_2
REMARK    2  A    between atoms: C_6  and  C_7
REMARK    3  A    between atoms: C_8  and  N_9
REMARK    4  A    between atoms: C_15  and  C_16
REMARK                            x       y       z     vdW  Elec       q    Type
REMARK                         _______ _______ _______ _____ _____    ______ ____
ROOT
ATOM      1  N   UNL     1      -1.130  12.297  20.561  0.00  0.00    +0.000 N 
ATOM      2  C   UNL     1      -1.800  11.622  19.573  0.00  0.00    +0.000 C 
ATOM      3  O   UNL     1      -2.805  11.975  18.970  0.00  0.00    +0.000 OA
ATOM      4  C   UNL     1      -1.032  10.379  19.216  0.00  0.00    +0.000 C 
ATOM      5  C   UNL     1       0.075  10.341  20.257  0.00  0.00    +0.000 C 
ATOM      6  C   UNL     1       1.382   9.735  19.798  0.00  0.00    +0.000 C 
ATOM      7  C   UNL     1       1.175   8.343  20.309  0.00  0.00    +0.000 C 
ATOM      8  N   UNL     1       0.217   8.232  21.174  0.00  0.00    +0.000 NA
ATOM      9  O   UNL     1      -0.340   9.517  21.358  0.00  0.00    +0.000 OA
ATOM     10  C   UNL     1       0.121  11.764  20.781  0.00  0.00    +0.000 C 
ATOM     11  O   UNL     1       1.097  12.305  21.278  0.00  0.00    +0.000 OA
ENDROOT
BRANCH   7  12
ATOM     12  C   UNL     1       2.002   7.192  19.868  0.00  0.00    +0.000 A 
ATOM     13  C   UNL     1       1.974   6.005  20.617  0.00  0.00    +0.000 A 
ATOM     14  C   UNL     1       2.733   4.898  20.224  0.00  0.00    +0.000 A 
ATOM     15  C   UNL     1       3.532   4.971  19.086  0.00  0.00    +0.000 A 
ATOM     16  C   UNL     1       3.548   6.141  18.323  0.00  0.00    +0.000 A 
ATOM     17  C   UNL     1       2.798   7.255  18.719  0.00  0.00    +0.000 A 
ATOM     18  O   UNL     1       4.280   6.280  17.171  0.00  0.00    +0.000 OA
ATOM     19  C   UNL     1       4.739   5.013  16.684  0.00  0.00    +0.000 C 
ATOM     20  C   UNL     1       5.290   4.162  17.816  0.00  0.00    +0.000 C 
ATOM     21  O   UNL     1       4.264   3.858  18.767  0.00  0.00    +0.000 OA
ENDBRANCH   7  12
BRANCH   1  29
ATOM     22  C   UNL     1      -2.671  12.478  23.085  0.00  0.00    +0.000 C 
ATOM     23  C   UNL     1      -2.295  13.667  22.248  0.00  0.00    +0.000 A 
ATOM     24  C   UNL     1      -2.674  14.945  22.695  0.00  0.00    +0.000 A 
ATOM     25  C   UNL     1      -2.311  16.089  21.988  0.00  0.00    +0.000 A 
ATOM     26  C   UNL     1      -1.563  15.974  20.821  0.00  0.00    +0.000 A 
ATOM     27  C   UNL     1      -1.182  14.713  20.336  0.00  0.00    +0.000 A 
ATOM     28  C   UNL     1      -0.352  14.647  19.082  0.00  0.00    +0.000 C 
ATOM     29  C   UNL     1      -1.558  13.552  21.050  0.00  0.00    +0.000 A 
ENDBRANCH   1  29
TORSDOF 2
ENDMDL
