MODEL 1
REMARK VINA RESULT:      -6.0      0.000      0.000
REMARK  Name = 
REMARK  13 active torsions:
REMARK  status: ('A' for Active; 'I' for Inactive)
REMARK    1  A    between atoms: C_1  and  C_2
REMARK    2  A    between atoms: C_2  and  O_3
REMARK    3  A    between atoms: O_3  and  C_4
REMARK    4  A    between atoms: C_4  and  C_5
REMARK    5  A    between atoms: C_5  and  O_6
REMARK    6  A    between atoms: O_6  and  C_7
REMARK    7  A    between atoms: C_7  and  C_9
REMARK    8  A    between atoms: C_9  and  C_10
REMARK    9  A    between atoms: C_12  and  N_13
REMARK   10  A    between atoms: C_12  and  S_22
REMARK   11  A    between atoms: N_13  and  C_14
REMARK   12  A    between atoms: C_14  and  C_15
REMARK   13  A    between atoms: S_22  and  C_23
REMARK                            x       y       z     vdW  Elec       q    Type
REMARK                         _______ _______ _______ _____ _____    ______ ____
ROOT
ATOM      1  C   UNL     1       4.940   4.371  17.735  0.00  0.00    +0.000 C 
ATOM      2  C   UNL     1       4.876   5.682  18.107  0.00  0.00    +0.000 C 
ENDROOT
BRANCH   1   3
ATOM      3  C   UNL     1       4.307   3.227  18.460  0.00  0.00    +0.000 C 
ATOM      4  O   UNL     1       4.764   2.763  19.501  0.00  0.00    +0.000 OA
BRANCH   3   5
ATOM      5  O   UNL     1       3.328   2.633  17.741  0.00  0.00    +0.000 OA
BRANCH   5   6
ATOM      6  C   UNL     1       2.400   1.858  18.513  0.00  0.00    +0.000 C 
BRANCH   6   7
ATOM      7  C   UNL     1       1.004   2.463  18.633  0.00  0.00    +0.000 C 
BRANCH   7   8
ATOM      8  O   UNL     1       0.880   3.234  19.834  0.00  0.00    +0.000 OA
BRANCH   8  10
ATOM      9  C   UNL     1       2.206   3.516  21.819  0.00  0.00    +0.000 C 
ATOM     10  C   UNL     1       1.443   2.539  20.950  0.00  0.00    +0.000 C 
ENDBRANCH   8  10
ENDBRANCH   7   8
ENDBRANCH   6   7
ENDBRANCH   5   6
ENDBRANCH   3   5
ENDBRANCH   1   3
BRANCH   1  11
ATOM     11  C   UNL     1       5.586   3.921  16.434  0.00  0.00    +0.000 C 
ATOM     12  N   UNL     1       6.121   3.548  15.356  0.00  0.00    +0.000 NA
ENDBRANCH   1  11
BRANCH   2  13
ATOM     13  N   UNL     1       4.236   6.116  19.280  0.00  0.00    +0.000 N 
ATOM     14  H   UNL     1       4.625   5.629  20.084  0.00  0.00    +0.000 HD
BRANCH  13  15
ATOM     15  C   UNL     1       2.776   6.136  19.380  0.00  0.00    +0.000 C 
BRANCH  15  16
ATOM     16  C   UNL     1       2.212   7.525  19.271  0.00  0.00    +0.000 A 
ATOM     17  C   UNL     1       2.189   8.200  18.049  0.00  0.00    +0.000 A 
ATOM     18  C   UNL     1       1.516   9.419  17.942  0.00  0.00    +0.000 A 
ATOM     19  C   UNL     1       0.936   9.961  19.077  0.00  0.00    +0.000 A 
ATOM     20 BR   UNL     1      -0.001  11.601  18.930  0.00  0.00    +0.000 Br
ATOM     21  N   UNL     1       0.978   9.359  20.286  0.00  0.00    +0.000 NA
ATOM     22  C   UNL     1       1.610   8.162  20.353  0.00  0.00    +0.000 A 
ENDBRANCH  15  16
ENDBRANCH  13  15
ENDBRANCH   2  13
BRANCH   2  23
ATOM     23  S   UNL     1       5.565   6.856  16.958  0.00  0.00    +0.000 S 
ATOM     24  C   UNL     1       7.249   7.159  17.505  0.00  0.00    +0.000 C 
ENDBRANCH   2  23
TORSDOF 11
ENDMDL
MODEL 2
REMARK VINA RESULT:      -5.9      2.550      4.743
REMARK  Name = 
REMARK  13 active torsions:
REMARK  status: ('A' for Active; 'I' for Inactive)
REMARK    1  A    between atoms: C_1  and  C_2
REMARK    2  A    between atoms: C_2  and  O_3
REMARK    3  A    between atoms: O_3  and  C_4
REMARK    4  A    between atoms: C_4  and  C_5
REMARK    5  A    between atoms: C_5  and  O_6
REMARK    6  A    between atoms: O_6  and  C_7
REMARK    7  A    between atoms: C_7  and  C_9
REMARK    8  A    between atoms: C_9  and  C_10
REMARK    9  A    between atoms: C_12  and  N_13
REMARK   10  A    between atoms: C_12  and  S_22
REMARK   11  A    between atoms: N_13  and  C_14
REMARK   12  A    between atoms: C_14  and  C_15
REMARK   13  A    between atoms: S_22  and  C_23
REMARK                            x       y       z     vdW  Elec       q    Type
REMARK                         _______ _______ _______ _____ _____    ______ ____
ROOT
ATOM      1  C   UNL     1       4.160   3.937  18.690  0.00  0.00    +0.000 C 
ATOM      2  C   UNL     1       2.977   4.607  18.811  0.00  0.00    +0.000 C 
ENDROOT
BRANCH   1   3
ATOM      3  C   UNL     1       5.237   4.244  17.701  0.00  0.00    +0.000 C 
ATOM      4  O   UNL     1       6.336   4.684  18.028  0.00  0.00    +0.000 OA
BRANCH   3   5
ATOM      5  O   UNL     1       4.800   4.194  16.422  0.00  0.00    +0.000 OA
BRANCH   5   6
ATOM      6  C   UNL     1       5.508   5.046  15.510  0.00  0.00    +0.000 C 
BRANCH   6   7
ATOM      7  C   UNL     1       6.700   4.391  14.816  0.00  0.00    +0.000 C 
BRANCH   7   8
ATOM      8  O   UNL     1       6.269   3.355  13.925  0.00  0.00    +0.000 OA
BRANCH   8  10
ATOM      9  C   UNL     1       4.918   3.277  11.939  0.00  0.00    +0.000 C 
ATOM     10  C   UNL     1       6.165   3.842  12.585  0.00  0.00    +0.000 C 
ENDBRANCH   8  10
ENDBRANCH   7   8
ENDBRANCH   6   7
ENDBRANCH   5   6
ENDBRANCH   3   5
ENDBRANCH   1   3
BRANCH   1  11
ATOM     11  C   UNL     1       4.581   2.842  19.655  0.00  0.00    +0.000 C 
ATOM     12  N   UNL     1       4.931   1.933  20.456  0.00  0.00    +0.000 NA
ENDBRANCH   1  11
BRANCH   2  13
ATOM     13  N   UNL     1       2.599   5.657  17.959  0.00  0.00    +0.000 N 
ATOM     14  H   UNL     1       2.586   5.329  16.995  0.00  0.00    +0.000 HD
BRANCH  13  15
ATOM     15  C   UNL     1       3.265   6.959  18.023  0.00  0.00    +0.000 C 
BRANCH  15  16
ATOM     16  C   UNL     1       2.369   8.034  18.575  0.00  0.00    +0.000 A 
ATOM     17  C   UNL     1       1.911   9.075  17.767  0.00  0.00    +0.000 A 
ATOM     18  C   UNL     1       0.955   9.967  18.258  0.00  0.00    +0.000 A 
ATOM     19  C   UNL     1       0.529   9.829  19.570  0.00  0.00    +0.000 A 
ATOM     20 BR   UNL     1      -0.788  11.020  20.232  0.00  0.00    +0.000 Br
ATOM     21  N   UNL     1       0.986   8.861  20.395  0.00  0.00    +0.000 NA
ATOM     22  C   UNL     1       1.888   7.992  19.881  0.00  0.00    +0.000 A 
ENDBRANCH  15  16
ENDBRANCH  13  15
ENDBRANCH   2  13
BRANCH   2  23
ATOM     23  S   UNL     1       1.957   4.148  20.198  0.00  0.00    +0.000 S 
ATOM     24  C   UNL     1       0.852   2.864  19.600  0.00  0.00    +0.000 C 
ENDBRANCH   2  23
TORSDOF 11
ENDMDL
MODEL 3
REMARK VINA RESULT:      -5.9      2.680      4.870
REMARK  Name = 
REMARK  13 active torsions:
REMARK  status: ('A' for Active; 'I' for Inactive)
REMARK    1  A    between atoms: C_1  and  C_2
REMARK    2  A    between atoms: C_2  and  O_3
REMARK    3  A    between atoms: O_3  and  C_4
REMARK    4  A    between atoms: C_4  and  C_5
REMARK    5  A    between atoms: C_5  and  O_6
REMARK    6  A    between atoms: O_6  and  C_7
REMARK    7  A    between atoms: C_7  and  C_9
REMARK    8  A    between atoms: C_9  and  C_10
REMARK    9  A    between atoms: C_12  and  N_13
REMARK   10  A    between atoms: C_12  and  S_22
REMARK   11  A    between atoms: N_13  and  C_14
REMARK   12  A    between atoms: C_14  and  C_15
REMARK   13  A    between atoms: S_22  and  C_23
REMARK                            x       y       z     vdW  Elec       q    Type
REMARK                         _______ _______ _______ _____ _____    ______ ____
ROOT
ATOM      1  C   UNL     1       3.752   4.114  19.106  0.00  0.00    +0.000 C 
ATOM      2  C   UNL     1       2.720   4.722  19.759  0.00  0.00    +0.000 C 
ENDROOT
BRANCH   1   3
ATOM      3  C   UNL     1       5.101   4.709  18.863  0.00  0.00    +0.000 C 
ATOM      4  O   UNL     1       5.915   4.904  19.762  0.00  0.00    +0.000 OA
BRANCH   3   5
ATOM      5  O   UNL     1       5.236   5.201  17.611  0.00  0.00    +0.000 OA
BRANCH   5   6
ATOM      6  C   UNL     1       6.183   4.504  16.789  0.00  0.00    +0.000 C 
BRANCH   6   7
ATOM      7  C   UNL     1       5.637   4.027  15.446  0.00  0.00    +0.000 C 
BRANCH   7   8
ATOM      8  O   UNL     1       6.584   4.256  14.396  0.00  0.00    +0.000 OA
BRANCH   8  10
ATOM      9  C   UNL     1       7.082   4.055  12.052  0.00  0.00    +0.000 C 
ATOM     10  C   UNL     1       6.158   3.640  13.178  0.00  0.00    +0.000 C 
ENDBRANCH   8  10
ENDBRANCH   7   8
ENDBRANCH   6   7
ENDBRANCH   5   6
ENDBRANCH   3   5
ENDBRANCH   1   3
BRANCH   1  11
ATOM     11  C   UNL     1       3.686   2.669  18.638  0.00  0.00    +0.000 C 
ATOM     12  N   UNL     1       3.631   1.471  18.250  0.00  0.00    +0.000 NA
ENDBRANCH   1  11
BRANCH   2  13
ATOM     13  N   UNL     1       2.787   6.038  20.243  0.00  0.00    +0.000 N 
ATOM     14  H   UNL     1       2.251   6.114  21.106  0.00  0.00    +0.000 HD
BRANCH  13  15
ATOM     15  C   UNL     1       2.482   7.178  19.377  0.00  0.00    +0.000 C 
BRANCH  15  16
ATOM     16  C   UNL     1       1.591   8.186  20.048  0.00  0.00    +0.000 A 
ATOM     17  C   UNL     1       1.283   8.084  21.406  0.00  0.00    +0.000 A 
ATOM     18  C   UNL     1       0.589   9.118  22.039  0.00  0.00    +0.000 A 
ATOM     19  C   UNL     1       0.167  10.198  21.282  0.00  0.00    +0.000 A 
ATOM     20 BR   UNL     1      -0.751  11.614  22.143  0.00  0.00    +0.000 Br
ATOM     21  N   UNL     1       0.407  10.308  19.956  0.00  0.00    +0.000 NA
ATOM     22  C   UNL     1       1.110   9.306  19.375  0.00  0.00    +0.000 A 
ENDBRANCH  15  16
ENDBRANCH  13  15
ENDBRANCH   2  13
BRANCH   2  23
ATOM     23  S   UNL     1       1.286   3.710  20.068  0.00  0.00    +0.000 S 
ATOM     24  C   UNL     1       1.588   2.885  21.635  0.00  0.00    +0.000 C 
ENDBRANCH   2  23
TORSDOF 11
ENDMDL
MODEL 4
REMARK VINA RESULT:      -5.9      1.240      1.493
REMARK  Name = 
REMARK  13 active torsions:
REMARK  status: ('A' for Active; 'I' for Inactive)
REMARK    1  A    between atoms: C_1  and  C_2
REMARK    2  A    between atoms: C_2  and  O_3
REMARK    3  A    between atoms: O_3  and  C_4
REMARK    4  A    between atoms: C_4  and  C_5
REMARK    5  A    between atoms: C_5  and  O_6
REMARK    6  A    between atoms: O_6  and  C_7
REMARK    7  A    between atoms: C_7  and  C_9
REMARK    8  A    between atoms: C_9  and  C_10
REMARK    9  A    between atoms: C_12  and  N_13
REMARK   10  A    between atoms: C_12  and  S_22
REMARK   11  A    between atoms: N_13  and  C_14
REMARK   12  A    between atoms: C_14  and  C_15
REMARK   13  A    between atoms: S_22  and  C_23
REMARK                            x       y       z     vdW  Elec       q    Type
REMARK                         _______ _______ _______ _____ _____    ______ ____
ROOT
ATOM      1  C   UNL     1       5.318   4.606  18.152  0.00  0.00    +0.000 C 
ATOM      2  C   UNL     1       4.612   5.744  17.891  0.00  0.00    +0.000 C 
ENDROOT
BRANCH   1   3
ATOM      3  C   UNL     1       4.762   3.351  18.743  0.00  0.00    +0.000 C 
ATOM      4  O   UNL     1       5.129   2.905  19.826  0.00  0.00    +0.000 OA
BRANCH   3   5
ATOM      5  O   UNL     1       3.989   2.663  17.872  0.00  0.00    +0.000 OA
BRANCH   5   6
ATOM      6  C   UNL     1       3.061   1.753  18.479  0.00  0.00    +0.000 C 
BRANCH   6   7
ATOM      7  C   UNL     1       1.626   2.267  18.568  0.00  0.00    +0.000 C 
BRANCH   7   8
ATOM      8  O   UNL     1       1.133   2.184  19.910  0.00  0.00    +0.000 OA
BRANCH   8  10
ATOM      9  C   UNL     1       2.113   3.469  21.690  0.00  0.00    +0.000 C 
ATOM     10  C   UNL     1       1.132   3.469  20.536  0.00  0.00    +0.000 C 
ENDBRANCH   8  10
ENDBRANCH   7   8
ENDBRANCH   6   7
ENDBRANCH   5   6
ENDBRANCH   3   5
ENDBRANCH   1   3
BRANCH   1  11
ATOM     11  C   UNL     1       6.774   4.437  17.748  0.00  0.00    +0.000 C 
ATOM     12  N   UNL     1       7.981   4.297  17.413  0.00  0.00    +0.000 NA
ENDBRANCH   1  11
BRANCH   2  13
ATOM     13  N   UNL     1       3.252   5.894  18.211  0.00  0.00    +0.000 N 
ATOM     14  H   UNL     1       2.776   6.389  17.459  0.00  0.00    +0.000 HD
BRANCH  13  15
ATOM     15  C   UNL     1       2.836   6.447  19.501  0.00  0.00    +0.000 C 
BRANCH  15  16
ATOM     16  C   UNL     1       2.075   7.735  19.353  0.00  0.00    +0.000 A 
ATOM     17  C   UNL     1       1.411   8.308  20.439  0.00  0.00    +0.000 A 
ATOM     18  C   UNL     1       0.851   9.582  20.316  0.00  0.00    +0.000 A 
ATOM     19  C   UNL     1       0.916  10.223  19.089  0.00  0.00    +0.000 A 
ATOM     20 BR   UNL     1       0.181  11.961  18.927  0.00  0.00    +0.000 Br
ATOM     21  N   UNL     1       1.511   9.678  18.004  0.00  0.00    +0.000 NA
ATOM     22  C   UNL     1       2.073   8.456  18.161  0.00  0.00    +0.000 A 
ENDBRANCH  15  16
ENDBRANCH  13  15
ENDBRANCH   2  13
BRANCH   2  23
ATOM     23  S   UNL     1       5.486   7.024  17.012  0.00  0.00    +0.000 S 
ATOM     24  C   UNL     1       5.279   6.659  15.266  0.00  0.00    +0.000 C 
ENDBRANCH   2  23
TORSDOF 11
ENDMDL
MODEL 5
REMARK VINA RESULT:      -5.8      2.462      4.539
REMARK  Name = 
REMARK  13 active torsions:
REMARK  status: ('A' for Active; 'I' for Inactive)
REMARK    1  A    between atoms: C_1  and  C_2
REMARK    2  A    between atoms: C_2  and  O_3
REMARK    3  A    between atoms: O_3  and  C_4
REMARK    4  A    between atoms: C_4  and  C_5
REMARK    5  A    between atoms: C_5  and  O_6
REMARK    6  A    between atoms: O_6  and  C_7
REMARK    7  A    between atoms: C_7  and  C_9
REMARK    8  A    between atoms: C_9  and  C_10
REMARK    9  A    between atoms: C_12  and  N_13
REMARK   10  A    between atoms: C_12  and  S_22
REMARK   11  A    between atoms: N_13  and  C_14
REMARK   12  A    between atoms: C_14  and  C_15
REMARK   13  A    between atoms: S_22  and  C_23
REMARK                            x       y       z     vdW  Elec       q    Type
REMARK                         _______ _______ _______ _____ _____    ______ ____
ROOT
ATOM      1  C   UNL     1       4.315   3.865  19.655  0.00  0.00    +0.000 C 
ATOM      2  C   UNL     1       3.210   4.527  20.104  0.00  0.00    +0.000 C 
ENDROOT
BRANCH   1   3
ATOM      3  C   UNL     1       5.538   4.501  19.079  0.00  0.00    +0.000 C 
ATOM      4  O   UNL     1       6.313   5.181  19.747  0.00  0.00    +0.000 OA
BRANCH   3   5
ATOM      5  O   UNL     1       5.576   4.429  17.729  0.00  0.00    +0.000 OA
BRANCH   5   6
ATOM      6  C   UNL     1       6.876   4.625  17.153  0.00  0.00    +0.000 C 
BRANCH   6   7
ATOM      7  C   UNL     1       6.928   5.653  16.026  0.00  0.00    +0.000 C 
BRANCH   7   8
ATOM      8  O   UNL     1       6.757   6.981  16.535  0.00  0.00    +0.000 OA
BRANCH   8  10
ATOM      9  C   UNL     1       7.935   8.729  17.692  0.00  0.00    +0.000 C 
ATOM     10  C   UNL     1       7.669   7.241  17.606  0.00  0.00    +0.000 C 
ENDBRANCH   8  10
ENDBRANCH   7   8
ENDBRANCH   6   7
ENDBRANCH   5   6
ENDBRANCH   3   5
ENDBRANCH   1   3
BRANCH   1  11
ATOM     11  C   UNL     1       4.482   2.361  19.803  0.00  0.00    +0.000 C 
ATOM     12  N   UNL     1       4.621   1.114  19.925  0.00  0.00    +0.000 NA
ENDBRANCH   1  11
BRANCH   2  13
ATOM     13  N   UNL     1       3.065   5.922  20.022  0.00  0.00    +0.000 N 
ATOM     14  H   UNL     1       2.460   6.248  20.773  0.00  0.00    +0.000 HD
BRANCH  13  15
ATOM     15  C   UNL     1       2.678   6.569  18.767  0.00  0.00    +0.000 C 
BRANCH  15  16
ATOM     16  C   UNL     1       2.076   7.929  18.986  0.00  0.00    +0.000 A 
ATOM     17  C   UNL     1       1.949   8.838  17.934  0.00  0.00    +0.000 A 
ATOM     18  C   UNL     1       1.243  10.027  18.126  0.00  0.00    +0.000 A 
ATOM     19  C   UNL     1       0.735  10.304  19.385  0.00  0.00    +0.000 A 
ATOM     20 BR   UNL     1      -0.247  11.903  19.643  0.00  0.00    +0.000 Br
ATOM     21  N   UNL     1       0.879   9.469  20.438  0.00  0.00    +0.000 NA
ATOM     22  C   UNL     1       1.541   8.308  20.214  0.00  0.00    +0.000 A 
ENDBRANCH  15  16
ENDBRANCH  13  15
ENDBRANCH   2  13
BRANCH   2  23
ATOM     23  S   UNL     1       1.974   3.530  20.913  0.00  0.00    +0.000 S 
ATOM     24  C   UNL     1       0.844   2.994  19.623  0.00  0.00    +0.000 C 
ENDBRANCH   2  23
TORSDOF 11
ENDMDL
MODEL 6
REMARK VINA RESULT:      -5.8      2.416      4.346
REMARK  Name = 
REMARK  13 active torsions:
REMARK  status: ('A' for Active; 'I' for Inactive)
REMARK    1  A    between atoms: C_1  and  C_2
REMARK    2  A    between atoms: C_2  and  O_3
REMARK    3  A    between atoms: O_3  and  C_4
REMARK    4  A    between atoms: C_4  and  C_5
REMARK    5  A    between atoms: C_5  and  O_6
REMARK    6  A    between atoms: O_6  and  C_7
REMARK    7  A    between atoms: C_7  and  C_9
REMARK    8  A    between atoms: C_9  and  C_10
REMARK    9  A    between atoms: C_12  and  N_13
REMARK   10  A    between atoms: C_12  and  S_22
REMARK   11  A    between atoms: N_13  and  C_14
REMARK   12  A    between atoms: C_14  and  C_15
REMARK   13  A    between atoms: S_22  and  C_23
REMARK                            x       y       z     vdW  Elec       q    Type
REMARK                         _______ _______ _______ _____ _____    ______ ____
ROOT
ATOM      1  C   UNL     1       2.891   4.816  18.341  0.00  0.00    +0.000 C 
ATOM      2  C   UNL     1       2.290   5.345  19.446  0.00  0.00    +0.000 C 
ENDROOT
BRANCH   1   3
ATOM      3  C   UNL     1       3.995   5.453  17.561  0.00  0.00    +0.000 C 
ATOM      4  O   UNL     1       3.995   6.641  17.254  0.00  0.00    +0.000 OA
BRANCH   3   5
ATOM      5  O   UNL     1       4.863   4.548  17.054  0.00  0.00    +0.000 OA
BRANCH   5   6
ATOM      6  C   UNL     1       5.326   4.836  15.726  0.00  0.00    +0.000 C 
BRANCH   6   7
ATOM      7  C   UNL     1       6.828   5.086  15.612  0.00  0.00    +0.000 C 
BRANCH   7   8
ATOM      8  O   UNL     1       7.469   4.952  16.886  0.00  0.00    +0.000 OA
BRANCH   8  10
ATOM      9  C   UNL     1       7.758   5.985  19.037  0.00  0.00    +0.000 C 
ATOM     10  C   UNL     1       7.548   6.213  17.555  0.00  0.00    +0.000 C 
ENDBRANCH   8  10
ENDBRANCH   7   8
ENDBRANCH   6   7
ENDBRANCH   5   6
ENDBRANCH   3   5
ENDBRANCH   1   3
BRANCH   1  11
ATOM     11  C   UNL     1       2.577   3.419  17.829  0.00  0.00    +0.000 C 
ATOM     12  N   UNL     1       2.316   2.261  17.405  0.00  0.00    +0.000 NA
ENDBRANCH   1  11
BRANCH   2  13
ATOM     13  N   UNL     1       2.609   6.612  19.961  0.00  0.00    +0.000 N 
ATOM     14  H   UNL     1       3.549   6.596  20.353  0.00  0.00    +0.000 HD
BRANCH  13  15
ATOM     15  C   UNL     1       1.706   7.302  20.883  0.00  0.00    +0.000 C 
BRANCH  15  16
ATOM     16  C   UNL     1       1.163   8.580  20.305  0.00  0.00    +0.000 A 
ATOM     17  C   UNL     1       1.482   8.976  19.006  0.00  0.00    +0.000 A 
ATOM     18  C   UNL     1       0.839  10.078  18.438  0.00  0.00    +0.000 A 
ATOM     19  C   UNL     1      -0.062  10.794  19.211  0.00  0.00    +0.000 A 
ATOM     20 BR   UNL     1      -0.956  12.273  18.436  0.00  0.00    +0.000 Br
ATOM     21  N   UNL     1      -0.360  10.466  20.488  0.00  0.00    +0.000 NA
ATOM     22  C   UNL     1       0.255   9.374  21.001  0.00  0.00    +0.000 A 
ENDBRANCH  15  16
ENDBRANCH  13  15
ENDBRANCH   2  13
BRANCH   2  23
ATOM     23  S   UNL     1       1.130   4.286  20.288  0.00  0.00    +0.000 S 
ATOM     24  C   UNL     1       2.061   3.455  21.579  0.00  0.00    +0.000 C 
ENDBRANCH   2  23
TORSDOF 11
ENDMDL
MODEL 7
REMARK VINA RESULT:      -5.8      1.488      2.040
REMARK  Name = 
REMARK  13 active torsions:
REMARK  status: ('A' for Active; 'I' for Inactive)
REMARK    1  A    between atoms: C_1  and  C_2
REMARK    2  A    between atoms: C_2  and  O_3
REMARK    3  A    between atoms: O_3  and  C_4
REMARK    4  A    between atoms: C_4  and  C_5
REMARK    5  A    between atoms: C_5  and  O_6
REMARK    6  A    between atoms: O_6  and  C_7
REMARK    7  A    between atoms: C_7  and  C_9
REMARK    8  A    between atoms: C_9  and  C_10
REMARK    9  A    between atoms: C_12  and  N_13
REMARK   10  A    between atoms: C_12  and  S_22
REMARK   11  A    between atoms: N_13  and  C_14
REMARK   12  A    between atoms: C_14  and  C_15
REMARK   13  A    between atoms: S_22  and  C_23
REMARK                            x       y       z     vdW  Elec       q    Type
REMARK                         _______ _______ _______ _____ _____    ______ ____
ROOT
ATOM      1  C   UNL     1       4.486   4.681  17.008  0.00  0.00    +0.000 C 
ATOM      2  C   UNL     1       4.574   5.987  17.396  0.00  0.00    +0.000 C 
ENDROOT
BRANCH   1   3
ATOM      3  C   UNL     1       3.413   3.723  17.411  0.00  0.00    +0.000 C 
ATOM      4  O   UNL     1       2.217   3.962  17.268  0.00  0.00    +0.000 OA
BRANCH   3   5
ATOM      5  O   UNL     1       3.888   2.684  18.136  0.00  0.00    +0.000 OA
BRANCH   5   6
ATOM      6  C   UNL     1       4.285   3.015  19.474  0.00  0.00    +0.000 C 
BRANCH   6   7
ATOM      7  C   UNL     1       3.698   2.113  20.558  0.00  0.00    +0.000 C 
BRANCH   7   8
ATOM      8  O   UNL     1       3.050   2.887  21.574  0.00  0.00    +0.000 OA
BRANCH   8  10
ATOM      9  C   UNL     1       1.028   3.679  20.545  0.00  0.00    +0.000 C 
ATOM     10  C   UNL     1       1.633   2.703  21.532  0.00  0.00    +0.000 C 
ENDBRANCH   8  10
ENDBRANCH   7   8
ENDBRANCH   6   7
ENDBRANCH   5   6
ENDBRANCH   3   5
ENDBRANCH   1   3
BRANCH   1  11
ATOM     11  C   UNL     1       5.435   4.065  15.993  0.00  0.00    +0.000 C 
ATOM     12  N   UNL     1       6.222   3.554  15.151  0.00  0.00    +0.000 NA
ENDBRANCH   1  11
BRANCH   2  13
ATOM     13  N   UNL     1       3.672   6.583  18.292  0.00  0.00    +0.000 N 
ATOM     14  H   UNL     1       3.081   5.867  18.711  0.00  0.00    +0.000 HD
BRANCH  13  15
ATOM     15  C   UNL     1       2.847   7.722  17.887  0.00  0.00    +0.000 C 
BRANCH  15  16
ATOM     16  C   UNL     1       1.968   8.218  19.001  0.00  0.00    +0.000 A 
ATOM     17  C   UNL     1       1.893   7.538  20.218  0.00  0.00    +0.000 A 
ATOM     18  C   UNL     1       1.198   8.105  21.288  0.00  0.00    +0.000 A 
ATOM     19  C   UNL     1       0.543   9.310  21.094  0.00  0.00    +0.000 A 
ATOM     20 BR   UNL     1      -0.377  10.095  22.551  0.00  0.00    +0.000 Br
ATOM     21  N   UNL     1       0.556   9.974  19.917  0.00  0.00    +0.000 NA
ATOM     22  C   UNL     1       1.265   9.417  18.905  0.00  0.00    +0.000 A 
ENDBRANCH  15  16
ENDBRANCH  13  15
ENDBRANCH   2  13
BRANCH   2  23
ATOM     23  S   UNL     1       5.853   6.951  16.616  0.00  0.00    +0.000 S 
ATOM     24  C   UNL     1       7.293   6.823  17.682  0.00  0.00    +0.000 C 
ENDBRANCH   2  23
TORSDOF 11
ENDMDL
MODEL 8
REMARK VINA RESULT:      -5.8      2.739      4.768
REMARK  Name = 
REMARK  13 active torsions:
REMARK  status: ('A' for Active; 'I' for Inactive)
REMARK    1  A    between atoms: C_1  and  C_2
REMARK    2  A    between atoms: C_2  and  O_3
REMARK    3  A    between atoms: O_3  and  C_4
REMARK    4  A    between atoms: C_4  and  C_5
REMARK    5  A    between atoms: C_5  and  O_6
REMARK    6  A    between atoms: O_6  and  C_7
REMARK    7  A    between atoms: C_7  and  C_9
REMARK    8  A    between atoms: C_9  and  C_10
REMARK    9  A    between atoms: C_12  and  N_13
REMARK   10  A    between atoms: C_12  and  S_22
REMARK   11  A    between atoms: N_13  and  C_14
REMARK   12  A    between atoms: C_14  and  C_15
REMARK   13  A    between atoms: S_22  and  C_23
REMARK                            x       y       z     vdW  Elec       q    Type
REMARK                         _______ _______ _______ _____ _____    ______ ____
ROOT
ATOM      1  C   UNL     1       2.648   5.350  18.497  0.00  0.00    +0.000 C 
ATOM      2  C   UNL     1       2.097   5.588  19.722  0.00  0.00    +0.000 C 
ENDROOT
BRANCH   1   3
ATOM      3  C   UNL     1       3.586   6.258  17.771  0.00  0.00    +0.000 C 
ATOM      4  O   UNL     1       3.455   7.479  17.757  0.00  0.00    +0.000 OA
BRANCH   3   5
ATOM      5  O   UNL     1       4.445   5.588  16.970  0.00  0.00    +0.000 OA
BRANCH   5   6
ATOM      6  C   UNL     1       5.828   5.714  17.331  0.00  0.00    +0.000 C 
BRANCH   6   7
ATOM      7  C   UNL     1       6.776   4.791  16.569  0.00  0.00    +0.000 C 
BRANCH   7   8
ATOM      8  O   UNL     1       7.456   5.501  15.527  0.00  0.00    +0.000 OA
BRANCH   8  10
ATOM      9  C   UNL     1       6.176   3.807  14.401  0.00  0.00    +0.000 C 
ATOM     10  C   UNL     1       7.059   5.026  14.239  0.00  0.00    +0.000 C 
ENDBRANCH   8  10
ENDBRANCH   7   8
ENDBRANCH   6   7
ENDBRANCH   5   6
ENDBRANCH   3   5
ENDBRANCH   1   3
BRANCH   1  11
ATOM     11  C   UNL     1       2.456   4.036  17.756  0.00  0.00    +0.000 C 
ATOM     12  N   UNL     1       2.298   2.946  17.143  0.00  0.00    +0.000 NA
ENDBRANCH   1  11
BRANCH   2  13
ATOM     13  N   UNL     1       2.309   6.776  20.441  0.00  0.00    +0.000 N 
ATOM     14  H   UNL     1       3.069   6.644  21.105  0.00  0.00    +0.000 HD
BRANCH  13  15
ATOM     15  C   UNL     1       1.200   7.470  21.098  0.00  0.00    +0.000 C 
BRANCH  15  16
ATOM     16  C   UNL     1       1.133   8.925  20.726  0.00  0.00    +0.000 A 
ATOM     17  C   UNL     1       1.129   9.328  19.389  0.00  0.00    +0.000 A 
ATOM     18  C   UNL     1       0.904  10.668  19.069  0.00  0.00    +0.000 A 
ATOM     19  C   UNL     1       0.750  11.582  20.099  0.00  0.00    +0.000 A 
ATOM     20 BR   UNL     1       0.417  13.397  19.668  0.00  0.00    +0.000 Br
ATOM     21  N   UNL     1       0.794  11.235  21.405  0.00  0.00    +0.000 NA
ATOM     22  C   UNL     1       0.982   9.923  21.685  0.00  0.00    +0.000 A 
ENDBRANCH  15  16
ENDBRANCH  13  15
ENDBRANCH   2  13
BRANCH   2  23
ATOM     23  S   UNL     1       1.159   4.250  20.433  0.00  0.00    +0.000 S 
ATOM     24  C   UNL     1       2.265   3.421  21.580  0.00  0.00    +0.000 C 
ENDBRANCH   2  23
TORSDOF 11
ENDMDL
MODEL 9
REMARK VINA RESULT:      -5.8      2.851      4.966
REMARK  Name = 
REMARK  13 active torsions:
REMARK  status: ('A' for Active; 'I' for Inactive)
REMARK    1  A    between atoms: C_1  and  C_2
REMARK    2  A    between atoms: C_2  and  O_3
REMARK    3  A    between atoms: O_3  and  C_4
REMARK    4  A    between atoms: C_4  and  C_5
REMARK    5  A    between atoms: C_5  and  O_6
REMARK    6  A    between atoms: O_6  and  C_7
REMARK    7  A    between atoms: C_7  and  C_9
REMARK    8  A    between atoms: C_9  and  C_10
REMARK    9  A    between atoms: C_12  and  N_13
REMARK   10  A    between atoms: C_12  and  S_22
REMARK   11  A    between atoms: N_13  and  C_14
REMARK   12  A    between atoms: C_14  and  C_15
REMARK   13  A    between atoms: S_22  and  C_23
REMARK                            x       y       z     vdW  Elec       q    Type
REMARK                         _______ _______ _______ _____ _____    ______ ____
ROOT
ATOM      1  C   UNL     1       3.151   5.320  18.746  0.00  0.00    +0.000 C 
ATOM      2  C   UNL     1       2.330   5.660  19.781  0.00  0.00    +0.000 C 
ENDROOT
BRANCH   1   3
ATOM      3  C   UNL     1       4.232   6.179  18.174  0.00  0.00    +0.000 C 
ATOM      4  O   UNL     1       4.015   7.062  17.349  0.00  0.00    +0.000 OA
BRANCH   3   5
ATOM      5  O   UNL     1       5.471   5.739  18.492  0.00  0.00    +0.000 OA
BRANCH   5   6
ATOM      6  C   UNL     1       6.428   5.813  17.426  0.00  0.00    +0.000 C 
BRANCH   6   7
ATOM      7  C   UNL     1       7.161   4.506  17.132  0.00  0.00    +0.000 C 
BRANCH   7   8
ATOM      8  O   UNL     1       7.843   4.571  15.874  0.00  0.00    +0.000 OA
BRANCH   8  10
ATOM      9  C   UNL     1       6.188   3.826  14.297  0.00  0.00    +0.000 C 
ATOM     10  C   UNL     1       6.962   5.011  14.837  0.00  0.00    +0.000 C 
ENDBRANCH   8  10
ENDBRANCH   7   8
ENDBRANCH   6   7
ENDBRANCH   5   6
ENDBRANCH   3   5
ENDBRANCH   1   3
BRANCH   1  11
ATOM     11  C   UNL     1       3.139   3.939  18.112  0.00  0.00    +0.000 C 
ATOM     12  N   UNL     1       3.130   2.793  17.586  0.00  0.00    +0.000 NA
ENDBRANCH   1  11
BRANCH   2  13
ATOM     13  N   UNL     1       2.367   6.914  20.411  0.00  0.00    +0.000 N 
ATOM     14  H   UNL     1       1.922   6.852  21.325  0.00  0.00    +0.000 HD
BRANCH  13  15
ATOM     15  C   UNL     1       1.903   8.119  19.723  0.00  0.00    +0.000 C 
BRANCH  15  16
ATOM     16  C   UNL     1       0.938   8.919  20.554  0.00  0.00    +0.000 A 
ATOM     17  C   UNL     1       0.899   8.783  21.943  0.00  0.00    +0.000 A 
ATOM     18  C   UNL     1       0.112   9.650  22.703  0.00  0.00    +0.000 A 
ATOM     19  C   UNL     1      -0.664  10.592  22.047  0.00  0.00    +0.000 A 
ATOM     20 BR   UNL     1      -1.712  11.788  23.077  0.00  0.00    +0.000 Br
ATOM     21  N   UNL     1      -0.686  10.722  20.702  0.00  0.00    +0.000 NA
ATOM     22  C   UNL     1       0.112   9.889  19.992  0.00  0.00    +0.000 A 
ENDBRANCH  15  16
ENDBRANCH  13  15
ENDBRANCH   2  13
BRANCH   2  23
ATOM     23  S   UNL     1       1.254   4.372  20.381  0.00  0.00    +0.000 S 
ATOM     24  C   UNL     1       2.164   3.526  21.678  0.00  0.00    +0.000 C 
ENDBRANCH   2  23
TORSDOF 11
ENDMDL
