MODEL 1
REMARK VINA RESULT:      -8.5      0.000      0.000
REMARK  Name = 
REMARK  3 active torsions:
REMARK  status: ('A' for Active; 'I' for Inactive)
REMARK    1  A    between atoms: C_5  and  C_6
REMARK    2  A    between atoms: C_7  and  C_8
REMARK    3  A    between atoms: N_24  and  C_25
REMARK                            x       y       z     vdW  Elec       q    Type
REMARK                         _______ _______ _______ _____ _____    ______ ____
ROOT
ATOM      1  C   UNL     1      -3.464  12.302  20.287  0.00  0.00    +0.000 A 
ATOM      2  C   UNL     1      -4.286  11.838  19.245  0.00  0.00    +0.000 A 
ATOM      3  N   UNL     1      -5.607  11.846  19.622  0.00  0.00    +0.000 NA
ATOM      4  C   UNL     1      -5.649  12.377  20.814  0.00  0.00    +0.000 A 
ATOM      5  C   UNL     1      -6.765  12.680  21.645  0.00  0.00    +0.000 A 
ATOM      6  C   UNL     1      -6.568  13.215  22.864  0.00  0.00    +0.000 A 
ATOM      7  C   UNL     1      -5.233  13.504  23.345  0.00  0.00    +0.000 A 
ATOM      8  C   UNL     1      -4.179  13.247  22.552  0.00  0.00    +0.000 A 
ATOM      9  N   UNL     1      -4.373  12.673  21.286  0.00  0.00    +0.000 N 
ENDROOT
BRANCH   2  10
ATOM     10  C   UNL     1      -3.907  11.318  17.922  0.00  0.00    +0.000 A 
ATOM     11  C   UNL     1      -2.871  10.374  17.796  0.00  0.00    +0.000 A 
ATOM     12  C   UNL     1      -2.474   9.885  16.549  0.00  0.00    +0.000 A 
ATOM     13  C   UNL     1      -3.157  10.281  15.411  0.00  0.00    +0.000 A 
ATOM     14  F   UNL     1      -2.790   9.798  14.218  0.00  0.00    +0.000 F 
ATOM     15  C   UNL     1      -4.220  11.166  15.495  0.00  0.00    +0.000 A 
ATOM     16  C   UNL     1      -4.588  11.697  16.739  0.00  0.00    +0.000 A 
ATOM     17 CL   UNL     1      -5.885  12.849  16.697  0.00  0.00    +0.000 Cl
ENDBRANCH   2  10
BRANCH   1  22
ATOM     18  O   UNL     1       1.992  12.437  20.979  0.00  0.00    +0.000 OA
ATOM     19  C   UNL     1       0.764  12.368  20.901  0.00  0.00    +0.000 C 
ATOM     20  C   UNL     1      -0.081  13.418  21.562  0.00  0.00    +0.000 C 
ATOM     21  C   UNL     1      -1.366  13.665  20.820  0.00  0.00    +0.000 C 
ATOM     22  C   UNL     1      -2.012  12.384  20.365  0.00  0.00    +0.000 C 
ATOM     23  N   UNL     1      -1.304  11.344  20.045  0.00  0.00    +0.000 NA
ATOM     24  N   UNL     1       0.055  11.348  20.270  0.00  0.00    +0.000 N 
BRANCH  24  25
ATOM     25  C   UNL     1       0.712  10.145  19.884  0.00  0.00    +0.000 A 
ATOM     26  C   UNL     1       1.114  10.002  18.548  0.00  0.00    +0.000 A 
ATOM     27  C   UNL     1       1.874   8.899  18.152  0.00  0.00    +0.000 A 
ATOM     28  C   UNL     1       2.206   7.908  19.074  0.00  0.00    +0.000 A 
ATOM     29  C   UNL     1       1.752   8.002  20.388  0.00  0.00    +0.000 A 
ATOM     30  C   UNL     1       1.004   9.112  20.796  0.00  0.00    +0.000 A 
ATOM     31 CL   UNL     1       0.332   9.062  22.394  0.00  0.00    +0.000 Cl
ENDBRANCH  24  25
ENDBRANCH   1  22
TORSDOF 3
ENDMDL
MODEL 2
REMARK VINA RESULT:      -8.4      5.121      9.624
REMARK  Name = 
REMARK  3 active torsions:
REMARK  status: ('A' for Active; 'I' for Inactive)
REMARK    1  A    between atoms: C_5  and  C_6
REMARK    2  A    between atoms: C_7  and  C_8
REMARK    3  A    between atoms: N_24  and  C_25
REMARK                            x       y       z     vdW  Elec       q    Type
REMARK                         _______ _______ _______ _____ _____    ______ ____
ROOT
ATOM      1  C   UNL     1       3.342   5.060  18.970  0.00  0.00    +0.000 A 
ATOM      2  C   UNL     1       4.225   4.199  18.296  0.00  0.00    +0.000 A 
ATOM      3  N   UNL     1       4.205   2.943  18.854  0.00  0.00    +0.000 NA
ATOM      4  C   UNL     1       3.287   2.964  19.781  0.00  0.00    +0.000 A 
ATOM      5  C   UNL     1       2.811   1.921  20.626  0.00  0.00    +0.000 A 
ATOM      6  C   UNL     1       1.857   2.179  21.539  0.00  0.00    +0.000 A 
ATOM      7  C   UNL     1       1.291   3.505  21.672  0.00  0.00    +0.000 A 
ATOM      8  C   UNL     1       1.716   4.486  20.856  0.00  0.00    +0.000 A 
ATOM      9  N   UNL     1       2.722   4.230  19.912  0.00  0.00    +0.000 N 
ENDROOT
BRANCH   2  10
ATOM     10  C   UNL     1       5.148   4.492  17.189  0.00  0.00    +0.000 A 
ATOM     11  C   UNL     1       4.780   4.212  15.860  0.00  0.00    +0.000 A 
ATOM     12  C   UNL     1       5.650   4.455  14.793  0.00  0.00    +0.000 A 
ATOM     13  C   UNL     1       6.877   5.050  15.034  0.00  0.00    +0.000 A 
ATOM     14  F   UNL     1       7.702   5.302  14.011  0.00  0.00    +0.000 F 
ATOM     15  C   UNL     1       7.256   5.394  16.322  0.00  0.00    +0.000 A 
ATOM     16  C   UNL     1       6.408   5.105  17.399  0.00  0.00    +0.000 A 
ATOM     17 CL   UNL     1       7.032   5.518  18.964  0.00  0.00    +0.000 Cl
ENDBRANCH   2  10
BRANCH   1  22
ATOM     18  O   UNL     1       2.071  10.332  18.037  0.00  0.00    +0.000 OA
ATOM     19  C   UNL     1       2.281   9.129  18.206  0.00  0.00    +0.000 C 
ATOM     20  C   UNL     1       2.901   8.322  17.103  0.00  0.00    +0.000 C 
ATOM     21  C   UNL     1       3.754   7.200  17.627  0.00  0.00    +0.000 C 
ATOM     22  C   UNL     1       3.101   6.485  18.780  0.00  0.00    +0.000 C 
ATOM     23  N   UNL     1       2.320   7.107  19.609  0.00  0.00    +0.000 NA
ATOM     24  N   UNL     1       1.950   8.409  19.352  0.00  0.00    +0.000 N 
BRANCH  24  25
ATOM     25  C   UNL     1       1.085   8.972  20.333  0.00  0.00    +0.000 A 
ATOM     26  C   UNL     1       1.395   8.780  21.687  0.00  0.00    +0.000 A 
ATOM     27  C   UNL     1       0.652   9.421  22.681  0.00  0.00    +0.000 A 
ATOM     28  C   UNL     1      -0.433  10.225  22.337  0.00  0.00    +0.000 A 
ATOM     29  C   UNL     1      -0.797  10.367  21.000  0.00  0.00    +0.000 A 
ATOM     30  C   UNL     1      -0.046   9.742  19.997  0.00  0.00    +0.000 A 
ATOM     31 CL   UNL     1      -0.670   9.826  18.382  0.00  0.00    +0.000 Cl
ENDBRANCH  24  25
ENDBRANCH   1  22
TORSDOF 3
ENDMDL
MODEL 3
REMARK VINA RESULT:      -8.3      3.136      4.898
REMARK  Name = 
REMARK  3 active torsions:
REMARK  status: ('A' for Active; 'I' for Inactive)
REMARK    1  A    between atoms: C_5  and  C_6
REMARK    2  A    between atoms: C_7  and  C_8
REMARK    3  A    between atoms: N_24  and  C_25
REMARK                            x       y       z     vdW  Elec       q    Type
REMARK                         _______ _______ _______ _____ _____    ______ ____
ROOT
ATOM      1  C   UNL     1      -2.669  12.521  19.565  0.00  0.00    +0.000 A 
ATOM      2  C   UNL     1      -3.173  13.206  20.684  0.00  0.00    +0.000 A 
ATOM      3  N   UNL     1      -4.547  13.169  20.703  0.00  0.00    +0.000 NA
ATOM      4  C   UNL     1      -4.910  12.418  19.699  0.00  0.00    +0.000 A 
ATOM      5  C   UNL     1      -6.209  11.997  19.291  0.00  0.00    +0.000 A 
ATOM      6  C   UNL     1      -6.352  11.229  18.195  0.00  0.00    +0.000 A 
ATOM      7  C   UNL     1      -5.200  10.808  17.424  0.00  0.00    +0.000 A 
ATOM      8  C   UNL     1      -3.971  11.179  17.823  0.00  0.00    +0.000 A 
ATOM      9  N   UNL     1      -3.814  11.993  18.955  0.00  0.00    +0.000 N 
ENDROOT
BRANCH   2  10
ATOM     10  C   UNL     1      -2.449  13.959  21.719  0.00  0.00    +0.000 A 
ATOM     11  C   UNL     1      -2.239  15.344  21.578  0.00  0.00    +0.000 A 
ATOM     12  C   UNL     1      -1.530  16.078  22.532  0.00  0.00    +0.000 A 
ATOM     13  C   UNL     1      -1.081  15.449  23.681  0.00  0.00    +0.000 A 
ATOM     14  F   UNL     1      -0.419  16.156  24.606  0.00  0.00    +0.000 F 
ATOM     15  C   UNL     1      -1.314  14.099  23.888  0.00  0.00    +0.000 A 
ATOM     16  C   UNL     1      -1.980  13.349  22.908  0.00  0.00    +0.000 A 
ATOM     17 CL   UNL     1      -2.143  11.658  23.256  0.00  0.00    +0.000 Cl
ENDBRANCH   2  10
BRANCH   1  22
ATOM     18  O   UNL     1       2.645  12.033  18.222  0.00  0.00    +0.000 OA
ATOM     19  C   UNL     1       1.479  12.150  18.606  0.00  0.00    +0.000 C 
ATOM     20  C   UNL     1       0.909  13.519  18.839  0.00  0.00    +0.000 C 
ATOM     21  C   UNL     1      -0.567  13.577  18.555  0.00  0.00    +0.000 C 
ATOM     22  C   UNL     1      -1.295  12.377  19.100  0.00  0.00    +0.000 C 
ATOM     23  N   UNL     1      -0.725  11.213  19.173  0.00  0.00    +0.000 NA
ATOM     24  N   UNL     1       0.619  11.093  18.895  0.00  0.00    +0.000 N 
BRANCH  24  25
ATOM     25  C   UNL     1       1.122   9.767  19.020  0.00  0.00    +0.000 A 
ATOM     26  C   UNL     1       1.571   9.110  17.865  0.00  0.00    +0.000 A 
ATOM     27  C   UNL     1       2.192   7.862  17.956  0.00  0.00    +0.000 A 
ATOM     28  C   UNL     1       2.333   7.238  19.194  0.00  0.00    +0.000 A 
ATOM     29  C   UNL     1       1.828   7.846  20.341  0.00  0.00    +0.000 A 
ATOM     30  C   UNL     1       1.220   9.105  20.260  0.00  0.00    +0.000 A 
ATOM     31 CL   UNL     1       0.464   9.706  21.699  0.00  0.00    +0.000 Cl
ENDBRANCH  24  25
ENDBRANCH   1  22
TORSDOF 3
ENDMDL
MODEL 4
REMARK VINA RESULT:      -8.2      3.061      5.029
REMARK  Name = 
REMARK  3 active torsions:
REMARK  status: ('A' for Active; 'I' for Inactive)
REMARK    1  A    between atoms: C_5  and  C_6
REMARK    2  A    between atoms: C_7  and  C_8
REMARK    3  A    between atoms: N_24  and  C_25
REMARK                            x       y       z     vdW  Elec       q    Type
REMARK                         _______ _______ _______ _____ _____    ______ ____
ROOT
ATOM      1  C   UNL     1      -3.360  12.818  20.208  0.00  0.00    +0.000 A 
ATOM      2  C   UNL     1      -4.157  13.381  21.220  0.00  0.00    +0.000 A 
ATOM      3  N   UNL     1      -5.493  13.214  20.941  0.00  0.00    +0.000 NA
ATOM      4  C   UNL     1      -5.557  12.496  19.853  0.00  0.00    +0.000 A 
ATOM      5  C   UNL     1      -6.689  11.981  19.159  0.00  0.00    +0.000 A 
ATOM      6  C   UNL     1      -6.517  11.273  18.028  0.00  0.00    +0.000 A 
ATOM      7  C   UNL     1      -5.192  11.010  17.506  0.00  0.00    +0.000 A 
ATOM      8  C   UNL     1      -4.120  11.469  18.174  0.00  0.00    +0.000 A 
ATOM      9  N   UNL     1      -4.290  12.223  19.345  0.00  0.00    +0.000 N 
ENDROOT
BRANCH   2  10
ATOM     10  C   UNL     1      -3.749  14.135  22.415  0.00  0.00    +0.000 A 
ATOM     11  C   UNL     1      -4.072  15.499  22.544  0.00  0.00    +0.000 A 
ATOM     12  C   UNL     1      -3.673  16.243  23.657  0.00  0.00    +0.000 A 
ATOM     13  C   UNL     1      -3.004  15.616  24.694  0.00  0.00    +0.000 A 
ATOM     14  F   UNL     1      -2.638  16.323  25.770  0.00  0.00    +0.000 F 
ATOM     15  C   UNL     1      -2.714  14.262  24.634  0.00  0.00    +0.000 A 
ATOM     16  C   UNL     1      -3.069  13.523  23.497  0.00  0.00    +0.000 A 
ATOM     17 CL   UNL     1      -2.585  11.857  23.517  0.00  0.00    +0.000 Cl
ENDBRANCH   2  10
BRANCH   1  22
ATOM     18  O   UNL     1       2.139  12.800  20.016  0.00  0.00    +0.000 OA
ATOM     19  C   UNL     1       0.913  12.786  20.144  0.00  0.00    +0.000 C 
ATOM     20  C   UNL     1       0.205  14.011  20.643  0.00  0.00    +0.000 C 
ATOM     21  C   UNL     1      -1.177  14.146  20.065  0.00  0.00    +0.000 C 
ATOM     22  C   UNL     1      -1.913  12.832  20.044  0.00  0.00    +0.000 C 
ATOM     23  N   UNL     1      -1.285  11.706  19.890  0.00  0.00    +0.000 NA
ATOM     24  N   UNL     1       0.093  11.686  19.899  0.00  0.00    +0.000 N 
BRANCH  24  25
ATOM     25  C   UNL     1       0.656  10.390  19.729  0.00  0.00    +0.000 A 
ATOM     26  C   UNL     1       1.071  10.004  18.446  0.00  0.00    +0.000 A 
ATOM     27  C   UNL     1       1.747   8.797  18.254  0.00  0.00    +0.000 A 
ATOM     28  C   UNL     1       1.977   7.942  19.331  0.00  0.00    +0.000 A 
ATOM     29  C   UNL     1       1.506   8.280  20.599  0.00  0.00    +0.000 A 
ATOM     30  C   UNL     1       0.844   9.496  20.802  0.00  0.00    +0.000 A 
ATOM     31 CL   UNL     1       0.139   9.754  22.365  0.00  0.00    +0.000 Cl
ENDBRANCH  24  25
ENDBRANCH   1  22
TORSDOF 3
ENDMDL
MODEL 5
REMARK VINA RESULT:      -8.1      0.973      1.326
REMARK  Name = 
REMARK  3 active torsions:
REMARK  status: ('A' for Active; 'I' for Inactive)
REMARK    1  A    between atoms: C_5  and  C_6
REMARK    2  A    between atoms: C_7  and  C_8
REMARK    3  A    between atoms: N_24  and  C_25
REMARK                            x       y       z     vdW  Elec       q    Type
REMARK                         _______ _______ _______ _____ _____    ______ ____
ROOT
ATOM      1  C   UNL     1      -3.537  12.354  20.337  0.00  0.00    +0.000 A 
ATOM      2  C   UNL     1      -4.329  11.861  19.285  0.00  0.00    +0.000 A 
ATOM      3  N   UNL     1      -5.656  11.834  19.642  0.00  0.00    +0.000 NA
ATOM      4  C   UNL     1      -5.730  12.371  20.829  0.00  0.00    +0.000 A 
ATOM      5  C   UNL     1      -6.867  12.646  21.643  0.00  0.00    +0.000 A 
ATOM      6  C   UNL     1      -6.704  13.193  22.861  0.00  0.00    +0.000 A 
ATOM      7  C   UNL     1      -5.385  13.522  23.361  0.00  0.00    +0.000 A 
ATOM      8  C   UNL     1      -4.312  13.290  22.585  0.00  0.00    +0.000 A 
ATOM      9  N   UNL     1      -4.471  12.705  21.319  0.00  0.00    +0.000 N 
ENDROOT
BRANCH   2  10
ATOM     10  C   UNL     1      -3.915  11.345  17.971  0.00  0.00    +0.000 A 
ATOM     11  C   UNL     1      -2.858  10.422  17.867  0.00  0.00    +0.000 A 
ATOM     12  C   UNL     1      -2.428   9.938  16.629  0.00  0.00    +0.000 A 
ATOM     13  C   UNL     1      -3.098  10.316  15.478  0.00  0.00    +0.000 A 
ATOM     14  F   UNL     1      -2.700   9.837  14.293  0.00  0.00    +0.000 F 
ATOM     15  C   UNL     1      -4.181  11.179  15.540  0.00  0.00    +0.000 A 
ATOM     16  C   UNL     1      -4.582  11.706  16.774  0.00  0.00    +0.000 A 
ATOM     17 CL   UNL     1      -5.902  12.830  16.705  0.00  0.00    +0.000 Cl
ENDBRANCH   2  10
BRANCH   1  22
ATOM     18  O   UNL     1       1.893  12.735  21.137  0.00  0.00    +0.000 OA
ATOM     19  C   UNL     1       0.669  12.629  21.042  0.00  0.00    +0.000 C 
ATOM     20  C   UNL     1      -0.208  13.783  21.431  0.00  0.00    +0.000 C 
ATOM     21  C   UNL     1      -1.471  13.839  20.617  0.00  0.00    +0.000 C 
ATOM     22  C   UNL     1      -2.088  12.477  20.436  0.00  0.00    +0.000 C 
ATOM     23  N   UNL     1      -1.359  11.405  20.374  0.00  0.00    +0.000 NA
ATOM     24  N   UNL     1      -0.008  11.483  20.630  0.00  0.00    +0.000 N 
BRANCH  24  25
ATOM     25  C   UNL     1       0.674  10.237  20.538  0.00  0.00    +0.000 A 
ATOM     26  C   UNL     1       0.733   9.420  21.676  0.00  0.00    +0.000 A 
ATOM     27  C   UNL     1       1.276   8.136  21.599  0.00  0.00    +0.000 A 
ATOM     28  C   UNL     1       1.804   7.668  20.397  0.00  0.00    +0.000 A 
ATOM     29  C   UNL     1       1.818   8.495  19.276  0.00  0.00    +0.000 A 
ATOM     30  C   UNL     1       1.259   9.777  19.341  0.00  0.00    +0.000 A 
ATOM     31 CL   UNL     1       1.477  10.799  17.958  0.00  0.00    +0.000 Cl
ENDBRANCH  24  25
ENDBRANCH   1  22
TORSDOF 3
ENDMDL
MODEL 6
REMARK VINA RESULT:      -8.1      2.918      4.872
REMARK  Name = 
REMARK  3 active torsions:
REMARK  status: ('A' for Active; 'I' for Inactive)
REMARK    1  A    between atoms: C_5  and  C_6
REMARK    2  A    between atoms: C_7  and  C_8
REMARK    3  A    between atoms: N_24  and  C_25
REMARK                            x       y       z     vdW  Elec       q    Type
REMARK                         _______ _______ _______ _____ _____    ______ ____
ROOT
ATOM      1  C   UNL     1      -3.419  12.610  20.182  0.00  0.00    +0.000 A 
ATOM      2  C   UNL     1      -4.222  13.005  21.266  0.00  0.00    +0.000 A 
ATOM      3  N   UNL     1      -5.555  12.906  20.949  0.00  0.00    +0.000 NA
ATOM      4  C   UNL     1      -5.614  12.385  19.754  0.00  0.00    +0.000 A 
ATOM      5  C   UNL     1      -6.743  12.012  18.969  0.00  0.00    +0.000 A 
ATOM      6  C   UNL     1      -6.566  11.504  17.736  0.00  0.00    +0.000 A 
ATOM      7  C   UNL     1      -5.237  11.316  17.191  0.00  0.00    +0.000 A 
ATOM      8  C   UNL     1      -4.168  11.639  17.940  0.00  0.00    +0.000 A 
ATOM      9  N   UNL     1      -4.344  12.185  19.221  0.00  0.00    +0.000 N 
ENDROOT
BRANCH   2  10
ATOM     10  C   UNL     1      -3.820  13.537  22.577  0.00  0.00    +0.000 A 
ATOM     11  C   UNL     1      -3.727  12.687  23.695  0.00  0.00    +0.000 A 
ATOM     12  C   UNL     1      -3.374  13.173  24.956  0.00  0.00    +0.000 A 
ATOM     13  C   UNL     1      -3.040  14.508  25.105  0.00  0.00    +0.000 A 
ATOM     14  F   UNL     1      -2.683  14.971  26.309  0.00  0.00    +0.000 F 
ATOM     15  C   UNL     1      -3.064  15.369  24.020  0.00  0.00    +0.000 A 
ATOM     16  C   UNL     1      -3.466  14.896  22.763  0.00  0.00    +0.000 A 
ATOM     17 CL   UNL     1      -3.523  16.091  21.507  0.00  0.00    +0.000 Cl
ENDBRANCH   2  10
BRANCH   1  22
ATOM     18  O   UNL     1       2.082  12.637  20.071  0.00  0.00    +0.000 OA
ATOM     19  C   UNL     1       0.855  12.616  20.181  0.00  0.00    +0.000 C 
ATOM     20  C   UNL     1       0.129  13.853  20.621  0.00  0.00    +0.000 C 
ATOM     21  C   UNL     1      -1.246  13.953  20.018  0.00  0.00    +0.000 C 
ATOM     22  C   UNL     1      -1.969  12.632  20.038  0.00  0.00    +0.000 C 
ATOM     23  N   UNL     1      -1.329  11.507  19.937  0.00  0.00    +0.000 NA
ATOM     24  N   UNL     1       0.048  11.500  19.967  0.00  0.00    +0.000 N 
BRANCH  24  25
ATOM     25  C   UNL     1       0.625  10.203  19.857  0.00  0.00    +0.000 A 
ATOM     26  C   UNL     1       1.099   9.787  18.604  0.00  0.00    +0.000 A 
ATOM     27  C   UNL     1       1.788   8.579  18.473  0.00  0.00    +0.000 A 
ATOM     28  C   UNL     1       1.976   7.755  19.582  0.00  0.00    +0.000 A 
ATOM     29  C   UNL     1       1.449   8.123  20.818  0.00  0.00    +0.000 A 
ATOM     30  C   UNL     1       0.772   9.340  20.960  0.00  0.00    +0.000 A 
ATOM     31 CL   UNL     1      -0.002   9.634  22.483  0.00  0.00    +0.000 Cl
ENDBRANCH  24  25
ENDBRANCH   1  22
TORSDOF 3
ENDMDL
MODEL 7
REMARK VINA RESULT:      -8.1      3.588      6.862
REMARK  Name = 
REMARK  3 active torsions:
REMARK  status: ('A' for Active; 'I' for Inactive)
REMARK    1  A    between atoms: C_5  and  C_6
REMARK    2  A    between atoms: C_7  and  C_8
REMARK    3  A    between atoms: N_24  and  C_25
REMARK                            x       y       z     vdW  Elec       q    Type
REMARK                         _______ _______ _______ _____ _____    ______ ____
ROOT
ATOM      1  C   UNL     1      -2.980  13.864  23.443  0.00  0.00    +0.000 A 
ATOM      2  C   UNL     1      -1.657  13.445  23.217  0.00  0.00    +0.000 A 
ATOM      3  N   UNL     1      -0.763  14.396  23.648  0.00  0.00    +0.000 NA
ATOM      4  C   UNL     1      -1.467  15.339  24.211  0.00  0.00    +0.000 A 
ATOM      5  C   UNL     1      -1.047  16.527  24.875  0.00  0.00    +0.000 A 
ATOM      6  C   UNL     1      -1.962  17.381  25.368  0.00  0.00    +0.000 A 
ATOM      7  C   UNL     1      -3.379  17.106  25.247  0.00  0.00    +0.000 A 
ATOM      8  C   UNL     1      -3.780  15.972  24.647  0.00  0.00    +0.000 A 
ATOM      9  N   UNL     1      -2.833  15.084  24.115  0.00  0.00    +0.000 N 
ENDROOT
BRANCH   2  10
ATOM     10  C   UNL     1      -1.167  12.227  22.557  0.00  0.00    +0.000 A 
ATOM     11  C   UNL     1      -1.074  11.016  23.269  0.00  0.00    +0.000 A 
ATOM     12  C   UNL     1      -0.586   9.851  22.672  0.00  0.00    +0.000 A 
ATOM     13  C   UNL     1      -0.248   9.862  21.330  0.00  0.00    +0.000 A 
ATOM     14  F   UNL     1       0.202   8.741  20.752  0.00  0.00    +0.000 F 
ATOM     15  C   UNL     1      -0.376  11.018  20.576  0.00  0.00    +0.000 A 
ATOM     16  C   UNL     1      -0.818  12.201  21.184  0.00  0.00    +0.000 A 
ATOM     17 CL   UNL     1      -0.864  13.592  20.148  0.00  0.00    +0.000 Cl
ENDBRANCH   2  10
BRANCH   1  22
ATOM     18  O   UNL     1      -7.909  11.850  22.055  0.00  0.00    +0.000 OA
ATOM     19  C   UNL     1      -6.840  12.381  22.363  0.00  0.00    +0.000 C 
ATOM     20  C   UNL     1      -6.579  12.747  23.795  0.00  0.00    +0.000 C 
ATOM     21  C   UNL     1      -5.120  12.652  24.150  0.00  0.00    +0.000 C 
ATOM     22  C   UNL     1      -4.237  13.226  23.075  0.00  0.00    +0.000 C 
ATOM     23  N   UNL     1      -4.573  13.173  21.822  0.00  0.00    +0.000 NA
ATOM     24  N   UNL     1      -5.827  12.725  21.470  0.00  0.00    +0.000 N 
BRANCH  24  25
ATOM     25  C   UNL     1      -6.072  12.724  20.067  0.00  0.00    +0.000 A 
ATOM     26  C   UNL     1      -5.598  11.646  19.306  0.00  0.00    +0.000 A 
ATOM     27  C   UNL     1      -5.924  11.537  17.953  0.00  0.00    +0.000 A 
ATOM     28  C   UNL     1      -6.692  12.522  17.334  0.00  0.00    +0.000 A 
ATOM     29  C   UNL     1      -7.109  13.636  18.061  0.00  0.00    +0.000 A 
ATOM     30  C   UNL     1      -6.800  13.743  19.422  0.00  0.00    +0.000 A 
ATOM     31 CL   UNL     1      -7.204  15.237  20.203  0.00  0.00    +0.000 Cl
ENDBRANCH  24  25
ENDBRANCH   1  22
TORSDOF 3
ENDMDL
MODEL 8
REMARK VINA RESULT:      -8.1      9.899     12.761
REMARK  Name = 
REMARK  3 active torsions:
REMARK  status: ('A' for Active; 'I' for Inactive)
REMARK    1  A    between atoms: C_5  and  C_6
REMARK    2  A    between atoms: C_7  and  C_8
REMARK    3  A    between atoms: N_24  and  C_25
REMARK                            x       y       z     vdW  Elec       q    Type
REMARK                         _______ _______ _______ _____ _____    ______ ____
ROOT
ATOM      1  C   UNL     1       9.171  15.193  19.263  0.00  0.00    +0.000 A 
ATOM      2  C   UNL     1       9.743  14.131  18.541  0.00  0.00    +0.000 A 
ATOM      3  N   UNL     1      10.649  14.598  17.619  0.00  0.00    +0.000 NA
ATOM      4  C   UNL     1      10.730  15.888  17.800  0.00  0.00    +0.000 A 
ATOM      5  C   UNL     1      11.558  16.855  17.160  0.00  0.00    +0.000 A 
ATOM      6  C   UNL     1      11.457  18.154  17.497  0.00  0.00    +0.000 A 
ATOM      7  C   UNL     1      10.523  18.590  18.514  0.00  0.00    +0.000 A 
ATOM      8  C   UNL     1       9.761  17.677  19.141  0.00  0.00    +0.000 A 
ATOM      9  N   UNL     1       9.847  16.323  18.785  0.00  0.00    +0.000 N 
ENDROOT
BRANCH   2  10
ATOM     10  C   UNL     1       9.447  12.692  18.610  0.00  0.00    +0.000 A 
ATOM     11  C   UNL     1       8.649  12.079  17.627  0.00  0.00    +0.000 A 
ATOM     12  C   UNL     1       8.331  10.720  17.684  0.00  0.00    +0.000 A 
ATOM     13  C   UNL     1       8.867   9.936  18.692  0.00  0.00    +0.000 A 
ATOM     14  F   UNL     1       8.579   8.629  18.737  0.00  0.00    +0.000 F 
ATOM     15  C   UNL     1       9.703  10.487  19.650  0.00  0.00    +0.000 A 
ATOM     16  C   UNL     1       9.983  11.860  19.624  0.00  0.00    +0.000 A 
ATOM     17 CL   UNL     1      10.982  12.436  20.920  0.00  0.00    +0.000 Cl
ENDBRANCH   2  10
BRANCH   1  22
ATOM     18  O   UNL     1       5.140  14.706  22.976  0.00  0.00    +0.000 OA
ATOM     19  C   UNL     1       6.036  14.730  22.130  0.00  0.00    +0.000 C 
ATOM     20  C   UNL     1       5.681  14.807  20.674  0.00  0.00    +0.000 C 
ATOM     21  C   UNL     1       6.712  15.555  19.875  0.00  0.00    +0.000 C 
ATOM     22  C   UNL     1       8.116  15.177  20.268  0.00  0.00    +0.000 C 
ATOM     23  N   UNL     1       8.409  14.828  21.483  0.00  0.00    +0.000 NA
ATOM     24  N   UNL     1       7.400  14.648  22.404  0.00  0.00    +0.000 N 
BRANCH  24  25
ATOM     25  C   UNL     1       7.855  14.258  23.696  0.00  0.00    +0.000 A 
ATOM     26  C   UNL     1       8.125  15.260  24.639  0.00  0.00    +0.000 A 
ATOM     27  C   UNL     1       8.447  14.924  25.956  0.00  0.00    +0.000 A 
ATOM     28  C   UNL     1       8.544  13.586  26.335  0.00  0.00    +0.000 A 
ATOM     29  C   UNL     1       8.349  12.580  25.390  0.00  0.00    +0.000 A 
ATOM     30  C   UNL     1       8.008  12.910  24.073  0.00  0.00    +0.000 A 
ATOM     31 CL   UNL     1       7.958  11.610  22.927  0.00  0.00    +0.000 Cl
ENDBRANCH  24  25
ENDBRANCH   1  22
TORSDOF 3
ENDMDL
MODEL 9
REMARK VINA RESULT:      -8.0      8.355     12.465
REMARK  Name = 
REMARK  3 active torsions:
REMARK  status: ('A' for Active; 'I' for Inactive)
REMARK    1  A    between atoms: C_5  and  C_6
REMARK    2  A    between atoms: C_7  and  C_8
REMARK    3  A    between atoms: N_24  and  C_25
REMARK                            x       y       z     vdW  Elec       q    Type
REMARK                         _______ _______ _______ _____ _____    ______ ____
ROOT
ATOM      1  C   UNL     1       9.019  13.777  20.145  0.00  0.00    +0.000 A 
ATOM      2  C   UNL     1       9.301  12.949  21.245  0.00  0.00    +0.000 A 
ATOM      3  N   UNL     1      10.267  12.024  20.927  0.00  0.00    +0.000 NA
ATOM      4  C   UNL     1      10.658  12.300  19.713  0.00  0.00    +0.000 A 
ATOM      5  C   UNL     1      11.675  11.699  18.917  0.00  0.00    +0.000 A 
ATOM      6  C   UNL     1      11.896  12.139  17.665  0.00  0.00    +0.000 A 
ATOM      7  C   UNL     1      11.121  13.230  17.110  0.00  0.00    +0.000 A 
ATOM      8  C   UNL     1      10.181  13.819  17.868  0.00  0.00    +0.000 A 
ATOM      9  N   UNL     1       9.932  13.356  19.170  0.00  0.00    +0.000 N 
ENDROOT
BRANCH   2  10
ATOM     10  C   UNL     1       8.673  12.921  22.575  0.00  0.00    +0.000 A 
ATOM     11  C   UNL     1       7.916  11.807  22.983  0.00  0.00    +0.000 A 
ATOM     12  C   UNL     1       7.287  11.766  24.230  0.00  0.00    +0.000 A 
ATOM     13  C   UNL     1       7.464  12.814  25.118  0.00  0.00    +0.000 A 
ATOM     14  F   UNL     1       6.878  12.768  26.321  0.00  0.00    +0.000 F 
ATOM     15  C   UNL     1       8.247  13.906  24.779  0.00  0.00    +0.000 A 
ATOM     16  C   UNL     1       8.838  13.972  23.510  0.00  0.00    +0.000 A 
ATOM     17 CL   UNL     1       9.731  15.423  23.185  0.00  0.00    +0.000 Cl
ENDBRANCH   2  10
BRANCH   1  22
ATOM     18  O   UNL     1       5.262  17.674  19.161  0.00  0.00    +0.000 OA
ATOM     19  C   UNL     1       6.105  16.786  19.296  0.00  0.00    +0.000 C 
ATOM     20  C   UNL     1       7.557  17.102  19.084  0.00  0.00    +0.000 C 
ATOM     21  C   UNL     1       8.456  16.266  19.953  0.00  0.00    +0.000 C 
ATOM     22  C   UNL     1       8.018  14.826  19.999  0.00  0.00    +0.000 C 
ATOM     23  N   UNL     1       6.767  14.494  19.902  0.00  0.00    +0.000 NA
ATOM     24  N   UNL     1       5.827  15.454  19.598  0.00  0.00    +0.000 N 
BRANCH  24  25
ATOM     25  C   UNL     1       4.496  14.958  19.514  0.00  0.00    +0.000 A 
ATOM     26  C   UNL     1       3.956  14.703  18.245  0.00  0.00    +0.000 A 
ATOM     27  C   UNL     1       2.706  14.095  18.116  0.00  0.00    +0.000 A 
ATOM     28  C   UNL     1       1.961  13.774  19.250  0.00  0.00    +0.000 A 
ATOM     29  C   UNL     1       2.454  14.087  20.515  0.00  0.00    +0.000 A 
ATOM     30  C   UNL     1       3.714  14.681  20.653  0.00  0.00    +0.000 A 
ATOM     31 CL   UNL     1       4.170  15.196  22.244  0.00  0.00    +0.000 Cl
ENDBRANCH  24  25
ENDBRANCH   1  22
TORSDOF 3
ENDMDL
