MODEL 1
REMARK VINA RESULT:      -7.4      0.000      0.000
REMARK  Name = 
REMARK  10 active torsions:
REMARK  status: ('A' for Active; 'I' for Inactive)
REMARK    1  A    between atoms: C_1  and  O_2
REMARK    2  A    between atoms: O_2  and  C_3
REMARK    3  A    between atoms: C_5  and  C_6
REMARK    4  A    between atoms: C_6  and  C_8
REMARK    5  A    between atoms: C_11  and  C_12
REMARK    6  A    between atoms: C_15  and  C_16
REMARK    7  A    between atoms: C_22  and  O_23
REMARK    8  A    between atoms: O_23  and  C_24
REMARK    9  A    between atoms: C_25  and  O_26
REMARK   10  A    between atoms: O_26  and  C_27
REMARK                            x       y       z     vdW  Elec       q    Type
REMARK                         _______ _______ _______ _____ _____    ______ ____
ROOT
ATOM      1  C   UNL     1       3.788   3.714  17.248  0.00  0.00    +0.000 C 
ATOM      2  O   UNL     1       3.327   2.587  17.088  0.00  0.00    +0.000 OA
ENDROOT
BRANCH   1   5
ATOM      3  C   UNL     1       6.193   3.974  14.343  0.00  0.00    +0.000 A 
ATOM      4  C   UNL     1       5.178   3.517  15.199  0.00  0.00    +0.000 A 
ATOM      5  C   UNL     1       4.940   4.150  16.419  0.00  0.00    +0.000 A 
ATOM      6  C   UNL     1       5.804   5.153  16.840  0.00  0.00    +0.000 A 
ATOM      7  C   UNL     1       6.874   5.572  16.041  0.00  0.00    +0.000 A 
ATOM      8  C   UNL     1       7.079   4.991  14.768  0.00  0.00    +0.000 A 
BRANCH   3  10
ATOM      9  C   UNL     1       5.167   3.356  12.295  0.00  0.00    +0.000 C 
ATOM     10  O   UNL     1       6.348   3.410  13.100  0.00  0.00    +0.000 OA
ENDBRANCH   3  10
BRANCH   7  11
ATOM     11  O   UNL     1       7.588   6.562  16.667  0.00  0.00    +0.000 OA
ATOM     12  C   UNL     1       7.589   6.645  18.082  0.00  0.00    +0.000 C 
ENDBRANCH   7  11
BRANCH   8  13
ATOM     13  O   UNL     1       8.152   5.469  14.066  0.00  0.00    +0.000 OA
ATOM     14  C   UNL     1       8.060   5.733  12.678  0.00  0.00    +0.000 C 
ENDBRANCH   8  13
ENDBRANCH   1   5
BRANCH   1  15
ATOM     15  C   UNL     1       3.234   4.647  18.236  0.00  0.00    +0.000 A 
ATOM     16  C   UNL     1       2.902   4.259  19.515  0.00  0.00    +0.000 A 
ATOM     17  S   UNL     1       2.310   5.586  20.413  0.00  0.00    +0.000 S 
ATOM     18  C   UNL     1       2.469   6.600  19.025  0.00  0.00    +0.000 A 
ATOM     19  N   UNL     1       2.959   5.992  17.959  0.00  0.00    +0.000 NA
BRANCH  18  20
ATOM     20  C   UNL     1       2.005   8.002  19.070  0.00  0.00    +0.000 A 
ATOM     21  C   UNL     1       1.339   8.538  20.188  0.00  0.00    +0.000 A 
ATOM     22  C   UNL     1       0.835   9.844  20.175  0.00  0.00    +0.000 A 
ATOM     23  C   UNL     1       1.000  10.650  19.046  0.00  0.00    +0.000 A 
ATOM     24  C   UNL     1       1.693  10.147  17.940  0.00  0.00    +0.000 A 
ATOM     25  C   UNL     1       2.197   8.838  17.957  0.00  0.00    +0.000 A 
BRANCH  23  26
ATOM     26  C   UNL     1       0.452  11.974  19.021  0.00  0.00    +0.000 C 
ATOM     27  N   UNL     1       0.004  13.046  18.986  0.00  0.00    +0.000 NA
ENDBRANCH  23  26
ENDBRANCH  18  20
ENDBRANCH   1  15
TORSDOF 7
ENDMDL
MODEL 2
REMARK VINA RESULT:      -7.4      4.090      6.692
REMARK  Name = 
REMARK  10 active torsions:
REMARK  status: ('A' for Active; 'I' for Inactive)
REMARK    1  A    between atoms: C_1  and  O_2
REMARK    2  A    between atoms: O_2  and  C_3
REMARK    3  A    between atoms: C_5  and  C_6
REMARK    4  A    between atoms: C_6  and  C_8
REMARK    5  A    between atoms: C_11  and  C_12
REMARK    6  A    between atoms: C_15  and  C_16
REMARK    7  A    between atoms: C_22  and  O_23
REMARK    8  A    between atoms: O_23  and  C_24
REMARK    9  A    between atoms: C_25  and  O_26
REMARK   10  A    between atoms: O_26  and  C_27
REMARK                            x       y       z     vdW  Elec       q    Type
REMARK                         _______ _______ _______ _____ _____    ______ ____
ROOT
ATOM      1  C   UNL     1       5.451   6.320  16.518  0.00  0.00    +0.000 C 
ATOM      2  O   UNL     1       5.465   6.324  15.290  0.00  0.00    +0.000 OA
ENDROOT
BRANCH   1   5
ATOM      3  C   UNL     1       2.914   3.765  17.671  0.00  0.00    +0.000 A 
ATOM      4  C   UNL     1       3.934   4.400  16.943  0.00  0.00    +0.000 A 
ATOM      5  C   UNL     1       4.295   5.716  17.228  0.00  0.00    +0.000 A 
ATOM      6  C   UNL     1       3.545   6.439  18.148  0.00  0.00    +0.000 A 
ATOM      7  C   UNL     1       2.471   5.853  18.828  0.00  0.00    +0.000 A 
ATOM      8  C   UNL     1       2.144   4.496  18.605  0.00  0.00    +0.000 A 
BRANCH   3  10
ATOM      9  C   UNL     1       3.440   1.511  18.192  0.00  0.00    +0.000 C 
ATOM     10  O   UNL     1       2.640   2.437  17.452  0.00  0.00    +0.000 OA
ENDBRANCH   3  10
BRANCH   7  11
ATOM     11  O   UNL     1       1.882   6.759  19.673  0.00  0.00    +0.000 OA
ATOM     12  C   UNL     1       1.918   8.142  19.364  0.00  0.00    +0.000 C 
ENDBRANCH   7  11
BRANCH   8  13
ATOM     13  O   UNL     1       1.077   4.020  19.317  0.00  0.00    +0.000 OA
ATOM     14  C   UNL     1       1.254   3.417  20.586  0.00  0.00    +0.000 C 
ENDBRANCH   8  13
ENDBRANCH   1   5
BRANCH   1  15
ATOM     15  C   UNL     1       6.546   6.893  17.309  0.00  0.00    +0.000 A 
ATOM     16  C   UNL     1       7.253   6.158  18.235  0.00  0.00    +0.000 A 
ATOM     17  S   UNL     1       8.470   7.112  18.960  0.00  0.00    +0.000 S 
ATOM     18  C   UNL     1       7.949   8.479  18.043  0.00  0.00    +0.000 A 
ATOM     19  N   UNL     1       6.941   8.234  17.224  0.00  0.00    +0.000 NA
BRANCH  18  20
ATOM     20  C   UNL     1       8.569   9.803  18.260  0.00  0.00    +0.000 A 
ATOM     21  C   UNL     1       9.534  10.025  19.261  0.00  0.00    +0.000 A 
ATOM     22  C   UNL     1      10.046  11.305  19.503  0.00  0.00    +0.000 A 
ATOM     23  C   UNL     1       9.615  12.391  18.737  0.00  0.00    +0.000 A 
ATOM     24  C   UNL     1       8.686  12.181  17.712  0.00  0.00    +0.000 A 
ATOM     25  C   UNL     1       8.176  10.897  17.473  0.00  0.00    +0.000 A 
BRANCH  23  26
ATOM     26  C   UNL     1      10.114  13.706  19.009  0.00  0.00    +0.000 C 
ATOM     27  N   UNL     1      10.530  14.768  19.237  0.00  0.00    +0.000 NA
ENDBRANCH  23  26
ENDBRANCH  18  20
ENDBRANCH   1  15
TORSDOF 7
ENDMDL
MODEL 3
REMARK VINA RESULT:      -7.4      5.135      9.949
REMARK  Name = 
REMARK  10 active torsions:
REMARK  status: ('A' for Active; 'I' for Inactive)
REMARK    1  A    between atoms: C_1  and  O_2
REMARK    2  A    between atoms: O_2  and  C_3
REMARK    3  A    between atoms: C_5  and  C_6
REMARK    4  A    between atoms: C_6  and  C_8
REMARK    5  A    between atoms: C_11  and  C_12
REMARK    6  A    between atoms: C_15  and  C_16
REMARK    7  A    between atoms: C_22  and  O_23
REMARK    8  A    between atoms: O_23  and  C_24
REMARK    9  A    between atoms: C_25  and  O_26
REMARK   10  A    between atoms: O_26  and  C_27
REMARK                            x       y       z     vdW  Elec       q    Type
REMARK                         _______ _______ _______ _____ _____    ______ ____
ROOT
ATOM      1  C   UNL     1       0.427  11.043  19.282  0.00  0.00    +0.000 C 
ATOM      2  O   UNL     1       1.095  12.069  19.373  0.00  0.00    +0.000 OA
ENDROOT
BRANCH   1   5
ATOM      3  C   UNL     1      -3.183  12.153  19.450  0.00  0.00    +0.000 A 
ATOM      4  C   UNL     1      -1.831  11.950  19.775  0.00  0.00    +0.000 A 
ATOM      5  C   UNL     1      -1.022  11.145  18.974  0.00  0.00    +0.000 A 
ATOM      6  C   UNL     1      -1.597  10.437  17.927  0.00  0.00    +0.000 A 
ATOM      7  C   UNL     1      -2.960  10.558  17.632  0.00  0.00    +0.000 A 
ATOM      8  C   UNL     1      -3.775  11.431  18.388  0.00  0.00    +0.000 A 
BRANCH   3  10
ATOM      9  C   UNL     1      -4.163  12.662  21.550  0.00  0.00    +0.000 C 
ATOM     10  O   UNL     1      -3.942  13.030  20.186  0.00  0.00    +0.000 OA
ENDBRANCH   3  10
BRANCH   7  11
ATOM     11  O   UNL     1      -3.298   9.761  16.567  0.00  0.00    +0.000 OA
ATOM     12  C   UNL     1      -2.906  10.131  15.256  0.00  0.00    +0.000 C 
ENDBRANCH   7  11
BRANCH   8  13
ATOM     13  O   UNL     1      -5.093  11.476  18.021  0.00  0.00    +0.000 OA
ATOM     14  C   UNL     1      -5.554  12.410  17.062  0.00  0.00    +0.000 C 
ENDBRANCH   8  13
ENDBRANCH   1   5
BRANCH   1  15
ATOM     15  C   UNL     1       1.019   9.712  19.468  0.00  0.00    +0.000 A 
ATOM     16  C   UNL     1       0.890   9.003  20.641  0.00  0.00    +0.000 A 
ATOM     17  S   UNL     1       1.671   7.489  20.518  0.00  0.00    +0.000 S 
ATOM     18  C   UNL     1       2.195   7.885  18.922  0.00  0.00    +0.000 A 
ATOM     19  N   UNL     1       1.792   9.068  18.494  0.00  0.00    +0.000 NA
BRANCH  18  20
ATOM     20  C   UNL     1       3.085   6.967  18.180  0.00  0.00    +0.000 A 
ATOM     21  C   UNL     1       4.134   7.431  17.366  0.00  0.00    +0.000 A 
ATOM     22  C   UNL     1       4.911   6.548  16.608  0.00  0.00    +0.000 A 
ATOM     23  C   UNL     1       4.663   5.174  16.659  0.00  0.00    +0.000 A 
ATOM     24  C   UNL     1       3.649   4.691  17.492  0.00  0.00    +0.000 A 
ATOM     25  C   UNL     1       2.873   5.580  18.252  0.00  0.00    +0.000 A 
BRANCH  23  26
ATOM     26  C   UNL     1       5.434   4.273  15.854  0.00  0.00    +0.000 C 
ATOM     27  N   UNL     1       6.051   3.531  15.206  0.00  0.00    +0.000 NA
ENDBRANCH  23  26
ENDBRANCH  18  20
ENDBRANCH   1  15
TORSDOF 7
ENDMDL
MODEL 4
REMARK VINA RESULT:      -7.4      4.073      6.664
REMARK  Name = 
REMARK  10 active torsions:
REMARK  status: ('A' for Active; 'I' for Inactive)
REMARK    1  A    between atoms: C_1  and  O_2
REMARK    2  A    between atoms: O_2  and  C_3
REMARK    3  A    between atoms: C_5  and  C_6
REMARK    4  A    between atoms: C_6  and  C_8
REMARK    5  A    between atoms: C_11  and  C_12
REMARK    6  A    between atoms: C_15  and  C_16
REMARK    7  A    between atoms: C_22  and  O_23
REMARK    8  A    between atoms: O_23  and  C_24
REMARK    9  A    between atoms: C_25  and  O_26
REMARK   10  A    between atoms: O_26  and  C_27
REMARK                            x       y       z     vdW  Elec       q    Type
REMARK                         _______ _______ _______ _____ _____    ______ ____
ROOT
ATOM      1  C   UNL     1       5.871   6.004  16.377  0.00  0.00    +0.000 C 
ATOM      2  O   UNL     1       6.090   5.842  15.180  0.00  0.00    +0.000 OA
ENDROOT
BRANCH   1   5
ATOM      3  C   UNL     1       3.141   3.617  17.447  0.00  0.00    +0.000 A 
ATOM      4  C   UNL     1       4.282   4.149  16.822  0.00  0.00    +0.000 A 
ATOM      5  C   UNL     1       4.601   5.499  16.957  0.00  0.00    +0.000 A 
ATOM      6  C   UNL     1       3.708   6.344  17.605  0.00  0.00    +0.000 A 
ATOM      7  C   UNL     1       2.524   5.853  18.167  0.00  0.00    +0.000 A 
ATOM      8  C   UNL     1       2.227   4.473  18.104  0.00  0.00    +0.000 A 
BRANCH   3  10
ATOM      9  C   UNL     1       3.493   1.489  18.434  0.00  0.00    +0.000 C 
ATOM     10  O   UNL     1       2.895   2.268  17.394  0.00  0.00    +0.000 OA
ENDBRANCH   3  10
BRANCH   7  11
ATOM     11  O   UNL     1       1.804   6.869  18.743  0.00  0.00    +0.000 OA
ATOM     12  C   UNL     1       2.131   7.316  20.048  0.00  0.00    +0.000 C 
ENDBRANCH   7  11
BRANCH   8  13
ATOM     13  O   UNL     1       1.045   4.095  18.682  0.00  0.00    +0.000 OA
ATOM     14  C   UNL     1       0.984   3.716  20.045  0.00  0.00    +0.000 C 
ENDBRANCH   8  13
ENDBRANCH   1   5
BRANCH   1  15
ATOM     15  C   UNL     1       6.830   6.682  17.258  0.00  0.00    +0.000 A 
ATOM     16  C   UNL     1       7.469   6.036  18.292  0.00  0.00    +0.000 A 
ATOM     17  S   UNL     1       8.533   7.099  19.101  0.00  0.00    +0.000 S 
ATOM     18  C   UNL     1       8.038   8.388  18.065  0.00  0.00    +0.000 A 
ATOM     19  N   UNL     1       7.149   8.042  17.151  0.00  0.00    +0.000 NA
BRANCH  18  20
ATOM     20  C   UNL     1       8.547   9.758  18.285  0.00  0.00    +0.000 A 
ATOM     21  C   UNL     1       8.118  10.852  17.511  0.00  0.00    +0.000 A 
ATOM     22  C   UNL     1       8.675  12.125  17.681  0.00  0.00    +0.000 A 
ATOM     23  C   UNL     1       9.666  12.335  18.643  0.00  0.00    +0.000 A 
ATOM     24  C   UNL     1      10.077  11.267  19.447  0.00  0.00    +0.000 A 
ATOM     25  C   UNL     1       9.516   9.993  19.274  0.00  0.00    +0.000 A 
BRANCH  23  26
ATOM     26  C   UNL     1      10.262  13.630  18.791  0.00  0.00    +0.000 C 
ATOM     27  N   UNL     1      10.741  14.683  18.898  0.00  0.00    +0.000 NA
ENDBRANCH  23  26
ENDBRANCH  18  20
ENDBRANCH   1  15
TORSDOF 7
ENDMDL
MODEL 5
REMARK VINA RESULT:      -7.3      5.146      9.641
REMARK  Name = 
REMARK  10 active torsions:
REMARK  status: ('A' for Active; 'I' for Inactive)
REMARK    1  A    between atoms: C_1  and  O_2
REMARK    2  A    between atoms: O_2  and  C_3
REMARK    3  A    between atoms: C_5  and  C_6
REMARK    4  A    between atoms: C_6  and  C_8
REMARK    5  A    between atoms: C_11  and  C_12
REMARK    6  A    between atoms: C_15  and  C_16
REMARK    7  A    between atoms: C_22  and  O_23
REMARK    8  A    between atoms: O_23  and  C_24
REMARK    9  A    between atoms: C_25  and  O_26
REMARK   10  A    between atoms: O_26  and  C_27
REMARK                            x       y       z     vdW  Elec       q    Type
REMARK                         _______ _______ _______ _____ _____    ______ ____
ROOT
ATOM      1  C   UNL     1       0.346  11.168  19.139  0.00  0.00    +0.000 C 
ATOM      2  O   UNL     1       0.996  12.207  19.226  0.00  0.00    +0.000 OA
ENDROOT
BRANCH   1   5
ATOM      3  C   UNL     1      -2.937  10.560  17.366  0.00  0.00    +0.000 A 
ATOM      4  C   UNL     1      -1.564  10.598  17.658  0.00  0.00    +0.000 A 
ATOM      5  C   UNL     1      -1.098  11.244  18.802  0.00  0.00    +0.000 A 
ATOM      6  C   UNL     1      -1.992  11.966  19.582  0.00  0.00    +0.000 A 
ATOM      7  C   UNL     1      -3.356  12.012  19.268  0.00  0.00    +0.000 A 
ATOM      8  C   UNL     1      -3.852  11.297  18.154  0.00  0.00    +0.000 A 
BRANCH   3  10
ATOM      9  C   UNL     1      -2.981  10.304  15.008  0.00  0.00    +0.000 C 
ATOM     10  O   UNL     1      -3.392   9.832  16.295  0.00  0.00    +0.000 OA
ENDBRANCH   3  10
BRANCH   7  11
ATOM     11  O   UNL     1      -4.035  12.789  20.172  0.00  0.00    +0.000 OA
ATOM     12  C   UNL     1      -3.318  13.551  21.129  0.00  0.00    +0.000 C 
ENDBRANCH   7  11
BRANCH   8  13
ATOM     13  O   UNL     1      -5.198  11.409  17.932  0.00  0.00    +0.000 OA
ATOM     14  C   UNL     1      -5.714  12.372  17.031  0.00  0.00    +0.000 C 
ENDBRANCH   8  13
ENDBRANCH   1   5
BRANCH   1  15
ATOM     15  C   UNL     1       0.954   9.850  19.356  0.00  0.00    +0.000 A 
ATOM     16  C   UNL     1       0.936   9.221  20.580  0.00  0.00    +0.000 A 
ATOM     17  S   UNL     1       1.704   7.698  20.486  0.00  0.00    +0.000 S 
ATOM     18  C   UNL     1       2.077   7.986  18.825  0.00  0.00    +0.000 A 
ATOM     19  N   UNL     1       1.634   9.140  18.359  0.00  0.00    +0.000 NA
BRANCH  18  20
ATOM     20  C   UNL     1       2.895   7.016  18.066  0.00  0.00    +0.000 A 
ATOM     21  C   UNL     1       2.624   5.635  18.076  0.00  0.00    +0.000 A 
ATOM     22  C   UNL     1       3.461   4.727  17.417  0.00  0.00    +0.000 A 
ATOM     23  C   UNL     1       4.582   5.183  16.720  0.00  0.00    +0.000 A 
ATOM     24  C   UNL     1       4.844   6.556  16.667  0.00  0.00    +0.000 A 
ATOM     25  C   UNL     1       4.003   7.463  17.327  0.00  0.00    +0.000 A 
BRANCH  23  26
ATOM     26  C   UNL     1       5.458   4.249  16.076  0.00  0.00    +0.000 C 
ATOM     27  N   UNL     1       6.168   3.483  15.567  0.00  0.00    +0.000 NA
ENDBRANCH  23  26
ENDBRANCH  18  20
ENDBRANCH   1  15
TORSDOF 7
ENDMDL
MODEL 6
REMARK VINA RESULT:      -7.3      3.144      5.263
REMARK  Name = 
REMARK  10 active torsions:
REMARK  status: ('A' for Active; 'I' for Inactive)
REMARK    1  A    between atoms: C_1  and  O_2
REMARK    2  A    between atoms: O_2  and  C_3
REMARK    3  A    between atoms: C_5  and  C_6
REMARK    4  A    between atoms: C_6  and  C_8
REMARK    5  A    between atoms: C_11  and  C_12
REMARK    6  A    between atoms: C_15  and  C_16
REMARK    7  A    between atoms: C_22  and  O_23
REMARK    8  A    between atoms: O_23  and  C_24
REMARK    9  A    between atoms: C_25  and  O_26
REMARK   10  A    between atoms: O_26  and  C_27
REMARK                            x       y       z     vdW  Elec       q    Type
REMARK                         _______ _______ _______ _____ _____    ______ ____
ROOT
ATOM      1  C   UNL     1       2.974   7.749  17.836  0.00  0.00    +0.000 C 
ATOM      2  O   UNL     1       3.663   8.241  16.946  0.00  0.00    +0.000 OA
ENDROOT
BRANCH   1   5
ATOM      3  C   UNL     1       2.346   4.163  18.855  0.00  0.00    +0.000 A 
ATOM      4  C   UNL     1       2.146   5.521  18.554  0.00  0.00    +0.000 A 
ATOM      5  C   UNL     1       3.229   6.349  18.259  0.00  0.00    +0.000 A 
ATOM      6  C   UNL     1       4.518   5.850  18.396  0.00  0.00    +0.000 A 
ATOM      7  C   UNL     1       4.746   4.522  18.774  0.00  0.00    +0.000 A 
ATOM      8  C   UNL     1       3.656   3.651  19.001  0.00  0.00    +0.000 A 
BRANCH   3  10
ATOM      9  C   UNL     1       0.811   3.206  20.390  0.00  0.00    +0.000 C 
ATOM     10  O   UNL     1       1.266   3.335  19.040  0.00  0.00    +0.000 OA
ENDBRANCH   3  10
BRANCH   7  11
ATOM     11  O   UNL     1       6.092   4.265  18.851  0.00  0.00    +0.000 OA
ATOM     12  C   UNL     1       6.951   4.679  17.803  0.00  0.00    +0.000 C 
ENDBRANCH   7  11
BRANCH   8  13
ATOM     13  O   UNL     1       3.985   2.375  19.367  0.00  0.00    +0.000 OA
ATOM     14  C   UNL     1       3.836   1.292  18.466  0.00  0.00    +0.000 C 
ENDBRANCH   8  13
ENDBRANCH   1   5
BRANCH   1  15
ATOM     15  C   UNL     1       1.905   8.505  18.498  0.00  0.00    +0.000 A 
ATOM     16  C   UNL     1       1.863   8.686  19.862  0.00  0.00    +0.000 A 
ATOM     17  S   UNL     1       0.508   9.627  20.304  0.00  0.00    +0.000 S 
ATOM     18  C   UNL     1       0.011   9.693  18.652  0.00  0.00    +0.000 A 
ATOM     19  N   UNL     1       0.821   9.070  17.814  0.00  0.00    +0.000 NA
BRANCH  18  20
ATOM     20  C   UNL     1      -1.265  10.341  18.282  0.00  0.00    +0.000 A 
ATOM     21  C   UNL     1      -1.846  11.356  19.065  0.00  0.00    +0.000 A 
ATOM     22  C   UNL     1      -3.096  11.897  18.741  0.00  0.00    +0.000 A 
ATOM     23  C   UNL     1      -3.786  11.444  17.614  0.00  0.00    +0.000 A 
ATOM     24  C   UNL     1      -3.206  10.463  16.803  0.00  0.00    +0.000 A 
ATOM     25  C   UNL     1      -1.953   9.924  17.131  0.00  0.00    +0.000 A 
BRANCH  23  26
ATOM     26  C   UNL     1      -5.081  11.973  17.303  0.00  0.00    +0.000 C 
ATOM     27  N   UNL     1      -6.125  12.415  17.048  0.00  0.00    +0.000 NA
ENDBRANCH  23  26
ENDBRANCH  18  20
ENDBRANCH   1  15
TORSDOF 7
ENDMDL
MODEL 7
REMARK VINA RESULT:      -7.3      0.124      2.527
REMARK  Name = 
REMARK  10 active torsions:
REMARK  status: ('A' for Active; 'I' for Inactive)
REMARK    1  A    between atoms: C_1  and  O_2
REMARK    2  A    between atoms: O_2  and  C_3
REMARK    3  A    between atoms: C_5  and  C_6
REMARK    4  A    between atoms: C_6  and  C_8
REMARK    5  A    between atoms: C_11  and  C_12
REMARK    6  A    between atoms: C_15  and  C_16
REMARK    7  A    between atoms: C_22  and  O_23
REMARK    8  A    between atoms: O_23  and  C_24
REMARK    9  A    between atoms: C_25  and  O_26
REMARK   10  A    between atoms: O_26  and  C_27
REMARK                            x       y       z     vdW  Elec       q    Type
REMARK                         _______ _______ _______ _____ _____    ______ ____
ROOT
ATOM      1  C   UNL     1       3.863   3.698  17.214  0.00  0.00    +0.000 C 
ATOM      2  O   UNL     1       3.460   2.545  17.086  0.00  0.00    +0.000 OA
ENDROOT
BRANCH   1   5
ATOM      3  C   UNL     1       6.921   5.614  16.087  0.00  0.00    +0.000 A 
ATOM      4  C   UNL     1       5.793   5.211  16.820  0.00  0.00    +0.000 A 
ATOM      5  C   UNL     1       4.981   4.174  16.361  0.00  0.00    +0.000 A 
ATOM      6  C   UNL     1       5.221   3.634  15.104  0.00  0.00    +0.000 A 
ATOM      7  C   UNL     1       6.291   4.076  14.316  0.00  0.00    +0.000 A 
ATOM      8  C   UNL     1       7.168   5.072  14.804  0.00  0.00    +0.000 A 
BRANCH   3  10
ATOM      9  C   UNL     1       7.501   6.970  17.945  0.00  0.00    +0.000 C 
ATOM     10  O   UNL     1       7.771   6.563  16.601  0.00  0.00    +0.000 OA
ENDBRANCH   3  10
BRANCH   7  11
ATOM     11  O   UNL     1       6.321   3.405  13.120  0.00  0.00    +0.000 OA
ATOM     12  C   UNL     1       5.163   3.365  12.303  0.00  0.00    +0.000 C 
ENDBRANCH   7  11
BRANCH   8  13
ATOM     13  O   UNL     1       8.180   5.434  13.958  0.00  0.00    +0.000 OA
ATOM     14  C   UNL     1       7.926   5.734  12.598  0.00  0.00    +0.000 C 
ENDBRANCH   8  13
ENDBRANCH   1   5
BRANCH   1  15
ATOM     15  C   UNL     1       3.272   4.624  18.187  0.00  0.00    +0.000 A 
ATOM     16  C   UNL     1       2.873   4.222  19.442  0.00  0.00    +0.000 A 
ATOM     17  S   UNL     1       2.253   5.543  20.329  0.00  0.00    +0.000 S 
ATOM     18  C   UNL     1       2.491   6.574  18.966  0.00  0.00    +0.000 A 
ATOM     19  N   UNL     1       3.026   5.976  17.916  0.00  0.00    +0.000 NA
BRANCH  18  20
ATOM     20  C   UNL     1       2.042   7.982  19.008  0.00  0.00    +0.000 A 
ATOM     21  C   UNL     1       1.378   8.525  20.124  0.00  0.00    +0.000 A 
ATOM     22  C   UNL     1       0.888   9.836  20.109  0.00  0.00    +0.000 A 
ATOM     23  C   UNL     1       1.065  10.639  18.980  0.00  0.00    +0.000 A 
ATOM     24  C   UNL     1       1.756  10.129  17.877  0.00  0.00    +0.000 A 
ATOM     25  C   UNL     1       2.247   8.815  17.896  0.00  0.00    +0.000 A 
BRANCH  23  26
ATOM     26  C   UNL     1       0.531  11.969  18.953  0.00  0.00    +0.000 C 
ATOM     27  N   UNL     1       0.107  13.051  18.941  0.00  0.00    +0.000 NA
ENDBRANCH  23  26
ENDBRANCH  18  20
ENDBRANCH   1  15
TORSDOF 7
ENDMDL
MODEL 8
REMARK VINA RESULT:      -7.2      3.225      5.396
REMARK  Name = 
REMARK  10 active torsions:
REMARK  status: ('A' for Active; 'I' for Inactive)
REMARK    1  A    between atoms: C_1  and  O_2
REMARK    2  A    between atoms: O_2  and  C_3
REMARK    3  A    between atoms: C_5  and  C_6
REMARK    4  A    between atoms: C_6  and  C_8
REMARK    5  A    between atoms: C_11  and  C_12
REMARK    6  A    between atoms: C_15  and  C_16
REMARK    7  A    between atoms: C_22  and  O_23
REMARK    8  A    between atoms: O_23  and  C_24
REMARK    9  A    between atoms: C_25  and  O_26
REMARK   10  A    between atoms: O_26  and  C_27
REMARK                            x       y       z     vdW  Elec       q    Type
REMARK                         _______ _______ _______ _____ _____    ______ ____
ROOT
ATOM      1  C   UNL     1       2.963   7.690  17.829  0.00  0.00    +0.000 C 
ATOM      2  O   UNL     1       3.601   8.144  16.884  0.00  0.00    +0.000 OA
ENDROOT
BRANCH   1   5
ATOM      3  C   UNL     1       4.923   4.617  18.834  0.00  0.00    +0.000 A 
ATOM      4  C   UNL     1       4.584   5.864  18.283  0.00  0.00    +0.000 A 
ATOM      5  C   UNL     1       3.267   6.321  18.318  0.00  0.00    +0.000 A 
ATOM      6  C   UNL     1       2.269   5.474  18.783  0.00  0.00    +0.000 A 
ATOM      7  C   UNL     1       2.570   4.193  19.262  0.00  0.00    +0.000 A 
ATOM      8  C   UNL     1       3.911   3.748  19.304  0.00  0.00    +0.000 A 
BRANCH   3  10
ATOM      9  C   UNL     1       7.124   4.910  17.997  0.00  0.00    +0.000 C 
ATOM     10  O   UNL     1       6.238   4.225  18.887  0.00  0.00    +0.000 OA
ENDBRANCH   3  10
BRANCH   7  11
ATOM     11  O   UNL     1       1.428   3.543  19.657  0.00  0.00    +0.000 OA
ATOM     12  C   UNL     1       0.752   2.689  18.749  0.00  0.00    +0.000 C 
ENDBRANCH   7  11
BRANCH   8  13
ATOM     13  O   UNL     1       4.099   2.482  19.788  0.00  0.00    +0.000 OA
ATOM     14  C   UNL     1       4.070   1.357  18.928  0.00  0.00    +0.000 C 
ENDBRANCH   8  13
ENDBRANCH   1   5
BRANCH   1  15
ATOM     15  C   UNL     1       1.905   8.460  18.494  0.00  0.00    +0.000 A 
ATOM     16  C   UNL     1       1.875   8.648  19.858  0.00  0.00    +0.000 A 
ATOM     17  S   UNL     1       0.533   9.607  20.304  0.00  0.00    +0.000 S 
ATOM     18  C   UNL     1       0.026   9.669  18.655  0.00  0.00    +0.000 A 
ATOM     19  N   UNL     1       0.823   9.033  17.815  0.00  0.00    +0.000 NA
BRANCH  18  20
ATOM     20  C   UNL     1      -1.246  10.329  18.292  0.00  0.00    +0.000 A 
ATOM     21  C   UNL     1      -1.832  11.325  19.095  0.00  0.00    +0.000 A 
ATOM     22  C   UNL     1      -3.078  11.876  18.773  0.00  0.00    +0.000 A 
ATOM     23  C   UNL     1      -3.759  11.453  17.630  0.00  0.00    +0.000 A 
ATOM     24  C   UNL     1      -3.173  10.492  16.799  0.00  0.00    +0.000 A 
ATOM     25  C   UNL     1      -1.925   9.942  17.124  0.00  0.00    +0.000 A 
BRANCH  23  26
ATOM     26  C   UNL     1      -5.050  11.992  17.321  0.00  0.00    +0.000 C 
ATOM     27  N   UNL     1      -6.100  12.418  17.061  0.00  0.00    +0.000 NA
ENDBRANCH  23  26
ENDBRANCH  18  20
ENDBRANCH   1  15
TORSDOF 7
ENDMDL
MODEL 9
REMARK VINA RESULT:      -7.2      3.276      5.246
REMARK  Name = 
REMARK  10 active torsions:
REMARK  status: ('A' for Active; 'I' for Inactive)
REMARK    1  A    between atoms: C_1  and  O_2
REMARK    2  A    between atoms: O_2  and  C_3
REMARK    3  A    between atoms: C_5  and  C_6
REMARK    4  A    between atoms: C_6  and  C_8
REMARK    5  A    between atoms: C_11  and  C_12
REMARK    6  A    between atoms: C_15  and  C_16
REMARK    7  A    between atoms: C_22  and  O_23
REMARK    8  A    between atoms: O_23  and  C_24
REMARK    9  A    between atoms: C_25  and  O_26
REMARK   10  A    between atoms: O_26  and  C_27
REMARK                            x       y       z     vdW  Elec       q    Type
REMARK                         _______ _______ _______ _____ _____    ______ ____
ROOT
ATOM      1  C   UNL     1       2.524   7.820  18.093  0.00  0.00    +0.000 C 
ATOM      2  O   UNL     1       2.810   8.509  17.118  0.00  0.00    +0.000 OA
ENDROOT
BRANCH   1   5
ATOM      3  C   UNL     1       4.700   4.746  18.419  0.00  0.00    +0.000 A 
ATOM      4  C   UNL     1       4.287   6.082  18.283  0.00  0.00    +0.000 A 
ATOM      5  C   UNL     1       2.938   6.394  18.120  0.00  0.00    +0.000 A 
ATOM      6  C   UNL     1       2.020   5.364  17.958  0.00  0.00    +0.000 A 
ATOM      7  C   UNL     1       2.418   4.023  18.007  0.00  0.00    +0.000 A 
ATOM      8  C   UNL     1       3.771   3.693  18.249  0.00  0.00    +0.000 A 
BRANCH   3  10
ATOM      9  C   UNL     1       6.786   5.532  19.230  0.00  0.00    +0.000 C 
ATOM     10  O   UNL     1       6.017   4.458  18.684  0.00  0.00    +0.000 OA
ENDBRANCH   3  10
BRANCH   7  11
ATOM     11  O   UNL     1       1.345   3.192  17.813  0.00  0.00    +0.000 OA
ATOM     12  C   UNL     1       0.652   2.659  18.930  0.00  0.00    +0.000 C 
ENDBRANCH   7  11
BRANCH   8  13
ATOM     13  O   UNL     1       4.058   2.355  18.277  0.00  0.00    +0.000 OA
ATOM     14  C   UNL     1       4.169   1.655  19.503  0.00  0.00    +0.000 C 
ENDBRANCH   8  13
ENDBRANCH   1   5
BRANCH   1  15
ATOM     15  C   UNL     1       1.784   8.363  19.238  0.00  0.00    +0.000 A 
ATOM     16  C   UNL     1       1.821   7.781  20.485  0.00  0.00    +0.000 A 
ATOM     17  S   UNL     1       0.874   8.671  21.594  0.00  0.00    +0.000 S 
ATOM     18  C   UNL     1       0.411   9.756  20.333  0.00  0.00    +0.000 A 
ATOM     19  N   UNL     1       0.951   9.486  19.157  0.00  0.00    +0.000 NA
BRANCH  18  20
ATOM     20  C   UNL     1      -0.570  10.829  20.595  0.00  0.00    +0.000 A 
ATOM     21  C   UNL     1      -0.794  11.344  21.886  0.00  0.00    +0.000 A 
ATOM     22  C   UNL     1      -1.786  12.301  22.124  0.00  0.00    +0.000 A 
ATOM     23  C   UNL     1      -2.570  12.776  21.070  0.00  0.00    +0.000 A 
ATOM     24  C   UNL     1      -2.337  12.305  19.775  0.00  0.00    +0.000 A 
ATOM     25  C   UNL     1      -1.340  11.346  19.540  0.00  0.00    +0.000 A 
BRANCH  23  26
ATOM     26  C   UNL     1      -3.611  13.729  21.321  0.00  0.00    +0.000 C 
ATOM     27  N   UNL     1      -4.459  14.502  21.510  0.00  0.00    +0.000 NA
ENDBRANCH  23  26
ENDBRANCH  18  20
ENDBRANCH   1  15
TORSDOF 7
ENDMDL
