MODEL 1
REMARK VINA RESULT:      -6.9      0.000      0.000
REMARK  Name = 
REMARK  6 active torsions:
REMARK  status: ('A' for Active; 'I' for Inactive)
REMARK    1  A    between atoms: C_1  and  C_2
REMARK    2  A    between atoms: C_2  and  C_3
REMARK    3  A    between atoms: N_7  and  C_8
REMARK    4  A    between atoms: C_8  and  C_9
REMARK    5  A    between atoms: C_9  and  C_10
REMARK    6  A    between atoms: C_10  and  C_11
REMARK                            x       y       z     vdW  Elec       q    Type
REMARK                         _______ _______ _______ _____ _____    ______ ____
ROOT
ATOM      1  C   UNL     1       3.359   2.362  17.978  0.00  0.00    +0.000 C 
ENDROOT
BRANCH   1   2
ATOM      2  C   UNL     1       4.650   3.108  18.321  0.00  0.00    +0.000 C 
BRANCH   2   9
ATOM      3  C   UNL     1       5.101   6.927  16.209  0.00  0.00    +0.000 C 
ATOM      4  C   UNL     1       6.327   6.131  16.702  0.00  0.00    +0.000 C 
ATOM      5  C   UNL     1       7.331   7.122  17.316  0.00  0.00    +0.000 C 
ATOM      6  C   UNL     1       7.008   5.397  15.530  0.00  0.00    +0.000 C 
ATOM      7  C   UNL     1       6.139   4.266  15.002  0.00  0.00    +0.000 C 
ATOM      8  C   UNL     1       5.706   3.326  16.122  0.00  0.00    +0.000 C 
ATOM      9  N   UNL     1       5.047   4.028  17.232  0.00  0.00    +0.000 NA
ATOM     10  C   UNL     1       5.910   5.096  17.775  0.00  0.00    +0.000 C 
ENDBRANCH   2   9
ENDBRANCH   1   2
BRANCH   1  11
ATOM     11  C   UNL     1       2.384   3.183  17.135  0.00  0.00    +0.000 C 
BRANCH  11  12
ATOM     12  C   UNL     1       1.520   4.138  17.998  0.00  0.00    +0.000 C 
ATOM     13  C   UNL     1       1.815   5.618  17.699  0.00  0.00    +0.000 C 
ATOM     14  C   UNL     1       2.611   6.464  18.705  0.00  0.00    +0.000 C 
ATOM     15  C   UNL     1       2.830   5.951  20.129  0.00  0.00    +0.000 C 
ATOM     16  C   UNL     1       2.242   4.619  20.431  0.00  0.00    +0.000 A 
ATOM     17  C   UNL     1       2.273   4.018  21.674  0.00  0.00    +0.000 A 
ATOM     18  S   UNL     1       1.457   2.519  21.696  0.00  0.00    +0.000 S 
ATOM     19  C   UNL     1       1.077   2.652  20.039  0.00  0.00    +0.000 A 
ATOM     20  C   UNL     1       1.597   3.797  19.462  0.00  0.00    +0.000 A 
ENDBRANCH  11  12
ENDBRANCH   1  11
TORSDOF 4
ENDMDL
MODEL 2
REMARK VINA RESULT:      -6.8      2.503      5.876
REMARK  Name = 
REMARK  6 active torsions:
REMARK  status: ('A' for Active; 'I' for Inactive)
REMARK    1  A    between atoms: C_1  and  C_2
REMARK    2  A    between atoms: C_2  and  C_3
REMARK    3  A    between atoms: N_7  and  C_8
REMARK    4  A    between atoms: C_8  and  C_9
REMARK    5  A    between atoms: C_9  and  C_10
REMARK    6  A    between atoms: C_10  and  C_11
REMARK                            x       y       z     vdW  Elec       q    Type
REMARK                         _______ _______ _______ _____ _____    ______ ____
ROOT
ATOM      1  C   UNL     1       3.741   6.981  18.251  0.00  0.00    +0.000 C 
ENDROOT
BRANCH   1   2
ATOM      2  C   UNL     1       2.400   6.295  18.518  0.00  0.00    +0.000 C 
BRANCH   2   9
ATOM      3  C   UNL     1       3.735   2.587  20.447  0.00  0.00    +0.000 C 
ATOM      4  C   UNL     1       2.237   2.934  20.322  0.00  0.00    +0.000 C 
ATOM      5  C   UNL     1       1.548   2.585  21.653  0.00  0.00    +0.000 C 
ATOM      6  C   UNL     1       1.580   2.116  19.194  0.00  0.00    +0.000 C 
ATOM      7  C   UNL     1       2.080   2.554  17.825  0.00  0.00    +0.000 C 
ATOM      8  C   UNL     1       1.931   4.060  17.634  0.00  0.00    +0.000 C 
ATOM      9  N   UNL     1       2.569   4.836  18.705  0.00  0.00    +0.000 NA
ATOM     10  C   UNL     1       2.050   4.443  20.031  0.00  0.00    +0.000 C 
ENDBRANCH   2   9
ENDBRANCH   1   2
BRANCH   1  11
ATOM     11  C   UNL     1       4.007   7.251  16.771  0.00  0.00    +0.000 C 
BRANCH  11  12
ATOM     12  C   UNL     1       5.294   6.548  16.267  0.00  0.00    +0.000 C 
ATOM     13  C   UNL     1       5.074   5.046  16.011  0.00  0.00    +0.000 C 
ATOM     14  C   UNL     1       5.653   4.006  16.982  0.00  0.00    +0.000 C 
ATOM     15  C   UNL     1       6.709   4.422  18.007  0.00  0.00    +0.000 C 
ATOM     16  C   UNL     1       7.094   5.858  17.988  0.00  0.00    +0.000 A 
ATOM     17  C   UNL     1       8.075   6.412  18.786  0.00  0.00    +0.000 A 
ATOM     18  S   UNL     1       8.311   8.073  18.475  0.00  0.00    +0.000 S 
ATOM     19  C   UNL     1       7.087   8.069  17.288  0.00  0.00    +0.000 A 
ATOM     20  C   UNL     1       6.476   6.835  17.156  0.00  0.00    +0.000 A 
ENDBRANCH  11  12
ENDBRANCH   1  11
TORSDOF 4
ENDMDL
MODEL 3
REMARK VINA RESULT:      -6.8      4.510      6.313
REMARK  Name = 
REMARK  6 active torsions:
REMARK  status: ('A' for Active; 'I' for Inactive)
REMARK    1  A    between atoms: C_1  and  C_2
REMARK    2  A    between atoms: C_2  and  C_3
REMARK    3  A    between atoms: N_7  and  C_8
REMARK    4  A    between atoms: C_8  and  C_9
REMARK    5  A    between atoms: C_9  and  C_10
REMARK    6  A    between atoms: C_10  and  C_11
REMARK                            x       y       z     vdW  Elec       q    Type
REMARK                         _______ _______ _______ _____ _____    ______ ____
ROOT
ATOM      1  C   UNL     1       1.492   8.943  17.685  0.00  0.00    +0.000 C 
ENDROOT
BRANCH   1   2
ATOM      2  C   UNL     1       2.733   8.110  18.011  0.00  0.00    +0.000 C 
BRANCH   2   9
ATOM      3  C   UNL     1       1.635   3.868  17.776  0.00  0.00    +0.000 C 
ATOM      4  C   UNL     1       2.965   4.321  18.413  0.00  0.00    +0.000 C 
ATOM      5  C   UNL     1       4.076   3.366  17.941  0.00  0.00    +0.000 C 
ATOM      6  C   UNL     1       2.881   4.262  19.951  0.00  0.00    +0.000 C 
ATOM      7  C   UNL     1       1.938   5.324  20.497  0.00  0.00    +0.000 C 
ATOM      8  C   UNL     1       2.296   6.710  19.972  0.00  0.00    +0.000 C 
ATOM      9  N   UNL     1       2.365   6.765  18.506  0.00  0.00    +0.000 NA
ATOM     10  C   UNL     1       3.315   5.765  17.978  0.00  0.00    +0.000 C 
ENDBRANCH   2   9
ENDBRANCH   1   2
BRANCH   1  11
ATOM     11  C   UNL     1       1.216  10.053  18.699  0.00  0.00    +0.000 C 
BRANCH  11  12
ATOM     12  C   UNL     1      -0.266  10.082  19.151  0.00  0.00    +0.000 C 
ATOM     13  C   UNL     1      -1.076  11.168  18.421  0.00  0.00    +0.000 C 
ATOM     14  C   UNL     1      -1.491  12.449  19.161  0.00  0.00    +0.000 C 
ATOM     15  C   UNL     1      -1.394  12.515  20.686  0.00  0.00    +0.000 C 
ATOM     16  C   UNL     1      -0.875  11.290  21.352  0.00  0.00    +0.000 A 
ATOM     17  C   UNL     1      -0.780  11.130  22.720  0.00  0.00    +0.000 A 
ATOM     18  S   UNL     1      -0.199   9.586  23.158  0.00  0.00    +0.000 S 
ATOM     19  C   UNL     1      -0.051   9.130  21.521  0.00  0.00    +0.000 A 
ATOM     20  C   UNL     1      -0.395  10.148  20.650  0.00  0.00    +0.000 A 
ENDBRANCH  11  12
ENDBRANCH   1  11
TORSDOF 4
ENDMDL
MODEL 4
REMARK VINA RESULT:      -6.8      2.476      6.003
REMARK  Name = 
REMARK  6 active torsions:
REMARK  status: ('A' for Active; 'I' for Inactive)
REMARK    1  A    between atoms: C_1  and  C_2
REMARK    2  A    between atoms: C_2  and  C_3
REMARK    3  A    between atoms: N_7  and  C_8
REMARK    4  A    between atoms: C_8  and  C_9
REMARK    5  A    between atoms: C_9  and  C_10
REMARK    6  A    between atoms: C_10  and  C_11
REMARK                            x       y       z     vdW  Elec       q    Type
REMARK                         _______ _______ _______ _____ _____    ______ ____
ROOT
ATOM      1  C   UNL     1       6.231   5.123  19.265  0.00  0.00    +0.000 C 
ENDROOT
BRANCH   1   2
ATOM      2  C   UNL     1       5.337   3.952  18.854  0.00  0.00    +0.000 C 
BRANCH   2   9
ATOM      3  C   UNL     1       1.031   3.171  19.160  0.00  0.00    +0.000 C 
ATOM      4  C   UNL     1       1.871   3.543  20.399  0.00  0.00    +0.000 C 
ATOM      5  C   UNL     1       1.435   2.640  21.567  0.00  0.00    +0.000 C 
ATOM      6  C   UNL     1       1.637   5.013  20.796  0.00  0.00    +0.000 C 
ATOM      7  C   UNL     1       2.226   5.967  19.767  0.00  0.00    +0.000 C 
ATOM      8  C   UNL     1       3.692   5.650  19.489  0.00  0.00    +0.000 C 
ATOM      9  N   UNL     1       3.909   4.250  19.101  0.00  0.00    +0.000 NA
ATOM     10  C   UNL     1       3.378   3.324  20.122  0.00  0.00    +0.000 C 
ENDBRANCH   2   9
ENDBRANCH   1   2
BRANCH   1  11
ATOM     11  C   UNL     1       7.533   5.208  18.470  0.00  0.00    +0.000 C 
BRANCH  11  12
ATOM     12  C   UNL     1       7.412   6.144  17.240  0.00  0.00    +0.000 C 
ATOM     13  C   UNL     1       6.767   7.495  17.600  0.00  0.00    +0.000 C 
ATOM     14  C   UNL     1       5.323   7.798  17.170  0.00  0.00    +0.000 C 
ATOM     15  C   UNL     1       4.638   6.919  16.122  0.00  0.00    +0.000 C 
ATOM     16  C   UNL     1       5.453   5.793  15.593  0.00  0.00    +0.000 A 
ATOM     17  C   UNL     1       5.038   4.934  14.595  0.00  0.00    +0.000 A 
ATOM     18  S   UNL     1       6.234   3.788  14.180  0.00  0.00    +0.000 S 
ATOM     19  C   UNL     1       7.305   4.419  15.347  0.00  0.00    +0.000 A 
ATOM     20  C   UNL     1       6.751   5.458  16.074  0.00  0.00    +0.000 A 
ENDBRANCH  11  12
ENDBRANCH   1  11
TORSDOF 4
ENDMDL
MODEL 5
REMARK VINA RESULT:      -6.8      6.086      9.420
REMARK  Name = 
REMARK  6 active torsions:
REMARK  status: ('A' for Active; 'I' for Inactive)
REMARK    1  A    between atoms: C_1  and  C_2
REMARK    2  A    between atoms: C_2  and  C_3
REMARK    3  A    between atoms: N_7  and  C_8
REMARK    4  A    between atoms: C_8  and  C_9
REMARK    5  A    between atoms: C_9  and  C_10
REMARK    6  A    between atoms: C_10  and  C_11
REMARK                            x       y       z     vdW  Elec       q    Type
REMARK                         _______ _______ _______ _____ _____    ______ ____
ROOT
ATOM      1  C   UNL     1       8.676   9.318  18.517  0.00  0.00    +0.000 C 
ENDROOT
BRANCH   1   2
ATOM      2  C   UNL     1       7.599   8.866  17.529  0.00  0.00    +0.000 C 
BRANCH   2   9
ATOM      3  C   UNL     1       5.245   5.190  17.087  0.00  0.00    +0.000 C 
ATOM      4  C   UNL     1       6.721   5.258  16.643  0.00  0.00    +0.000 C 
ATOM      5  C   UNL     1       6.852   4.537  15.290  0.00  0.00    +0.000 C 
ATOM      6  C   UNL     1       7.632   4.557  17.670  0.00  0.00    +0.000 C 
ATOM      7  C   UNL     1       7.700   5.335  18.976  0.00  0.00    +0.000 C 
ATOM      8  C   UNL     1       8.083   6.792  18.737  0.00  0.00    +0.000 C 
ATOM      9  N   UNL     1       7.205   7.460  17.766  0.00  0.00    +0.000 NA
ATOM     10  C   UNL     1       7.175   6.729  16.483  0.00  0.00    +0.000 C 
ENDBRANCH   2   9
ENDBRANCH   1   2
BRANCH   1  11
ATOM     11  C   UNL     1       9.110  10.771  18.327  0.00  0.00    +0.000 C 
BRANCH  11  12
ATOM     12  C   UNL     1      10.282  11.162  19.264  0.00  0.00    +0.000 C 
ATOM     13  C   UNL     1       9.844  11.250  20.737  0.00  0.00    +0.000 C 
ATOM     14  C   UNL     1       9.687  12.621  21.414  0.00  0.00    +0.000 C 
ATOM     15  C   UNL     1      10.269  13.870  20.751  0.00  0.00    +0.000 C 
ATOM     16  C   UNL     1      10.953  13.649  19.450  0.00  0.00    +0.000 A 
ATOM     17  C   UNL     1      11.600  14.637  18.733  0.00  0.00    +0.000 A 
ATOM     18  S   UNL     1      12.333  14.040  17.312  0.00  0.00    +0.000 S 
ATOM     19  C   UNL     1      11.771  12.463  17.633  0.00  0.00    +0.000 A 
ATOM     20  C   UNL     1      11.001  12.393  18.781  0.00  0.00    +0.000 A 
ENDBRANCH  11  12
ENDBRANCH   1  11
TORSDOF 4
ENDMDL
MODEL 6
REMARK VINA RESULT:      -6.8      5.272      8.627
REMARK  Name = 
REMARK  6 active torsions:
REMARK  status: ('A' for Active; 'I' for Inactive)
REMARK    1  A    between atoms: C_1  and  C_2
REMARK    2  A    between atoms: C_2  and  C_3
REMARK    3  A    between atoms: N_7  and  C_8
REMARK    4  A    between atoms: C_8  and  C_9
REMARK    5  A    between atoms: C_9  and  C_10
REMARK    6  A    between atoms: C_10  and  C_11
REMARK                            x       y       z     vdW  Elec       q    Type
REMARK                         _______ _______ _______ _____ _____    ______ ____
ROOT
ATOM      1  C   UNL     1       8.286   8.943  17.954  0.00  0.00    +0.000 C 
ENDROOT
BRANCH   1   2
ATOM      2  C   UNL     1       8.304   7.522  18.522  0.00  0.00    +0.000 C 
BRANCH   2   9
ATOM      3  C   UNL     1       4.720   6.521  16.196  0.00  0.00    +0.000 C 
ATOM      4  C   UNL     1       5.922   5.556  16.278  0.00  0.00    +0.000 C 
ATOM      5  C   UNL     1       6.174   4.978  14.875  0.00  0.00    +0.000 C 
ATOM      6  C   UNL     1       5.623   4.395  17.247  0.00  0.00    +0.000 C 
ATOM      7  C   UNL     1       5.557   4.876  18.689  0.00  0.00    +0.000 C 
ATOM      8  C   UNL     1       6.805   5.665  19.071  0.00  0.00    +0.000 C 
ATOM      9  N   UNL     1       7.079   6.778  18.151  0.00  0.00    +0.000 NA
ATOM     10  C   UNL     1       7.190   6.304  16.757  0.00  0.00    +0.000 C 
ENDBRANCH   2   9
ENDBRANCH   1   2
BRANCH   1  11
ATOM     11  C   UNL     1       8.915   9.981  18.882  0.00  0.00    +0.000 C 
BRANCH  11  12
ATOM     12  C   UNL     1       9.710  11.061  18.104  0.00  0.00    +0.000 C 
ATOM     13  C   UNL     1      11.163  11.183  18.599  0.00  0.00    +0.000 C 
ATOM     14  C   UNL     1      11.590  12.392  19.445  0.00  0.00    +0.000 C 
ATOM     15  C   UNL     1      10.687  13.624  19.526  0.00  0.00    +0.000 C 
ATOM     16  C   UNL     1       9.415  13.542  18.761  0.00  0.00    +0.000 A 
ATOM     17  C   UNL     1       8.503  14.573  18.654  0.00  0.00    +0.000 A 
ATOM     18  S   UNL     1       7.178  14.174  17.654  0.00  0.00    +0.000 S 
ATOM     19  C   UNL     1       7.803  12.612  17.377  0.00  0.00    +0.000 A 
ATOM     20  C   UNL     1       8.980  12.377  18.066  0.00  0.00    +0.000 A 
ENDBRANCH  11  12
ENDBRANCH   1  11
TORSDOF 4
ENDMDL
MODEL 7
REMARK VINA RESULT:      -6.7      2.333      5.819
REMARK  Name = 
REMARK  6 active torsions:
REMARK  status: ('A' for Active; 'I' for Inactive)
REMARK    1  A    between atoms: C_1  and  C_2
REMARK    2  A    between atoms: C_2  and  C_3
REMARK    3  A    between atoms: N_7  and  C_8
REMARK    4  A    between atoms: C_8  and  C_9
REMARK    5  A    between atoms: C_9  and  C_10
REMARK    6  A    between atoms: C_10  and  C_11
REMARK                            x       y       z     vdW  Elec       q    Type
REMARK                         _______ _______ _______ _____ _____    ______ ____
ROOT
ATOM      1  C   UNL     1       3.332   6.151  17.502  0.00  0.00    +0.000 C 
ENDROOT
BRANCH   1   2
ATOM      2  C   UNL     1       2.742   6.195  18.913  0.00  0.00    +0.000 C 
BRANCH   2   9
ATOM      3  C   UNL     1       2.644   1.808  18.929  0.00  0.00    +0.000 C 
ATOM      4  C   UNL     1       3.388   2.600  20.024  0.00  0.00    +0.000 C 
ATOM      5  C   UNL     1       4.731   1.901  20.298  0.00  0.00    +0.000 C 
ATOM      6  C   UNL     1       2.568   2.628  21.329  0.00  0.00    +0.000 C 
ATOM      7  C   UNL     1       1.313   3.476  21.180  0.00  0.00    +0.000 C 
ATOM      8  C   UNL     1       1.642   4.869  20.653  0.00  0.00    +0.000 C 
ATOM      9  N   UNL     1       2.413   4.838  19.403  0.00  0.00    +0.000 NA
ATOM     10  C   UNL     1       3.655   4.053  19.561  0.00  0.00    +0.000 C 
ENDBRANCH   2   9
ENDBRANCH   1   2
BRANCH   1  11
ATOM     11  C   UNL     1       4.210   7.356  17.168  0.00  0.00    +0.000 C 
BRANCH  11  12
ATOM     12  C   UNL     1       5.487   6.954  16.385  0.00  0.00    +0.000 C 
ATOM     13  C   UNL     1       5.159   6.172  15.101  0.00  0.00    +0.000 C 
ATOM     14  C   UNL     1       5.416   4.659  15.034  0.00  0.00    +0.000 C 
ATOM     15  C   UNL     1       6.284   3.983  16.096  0.00  0.00    +0.000 C 
ATOM     16  C   UNL     1       6.820   4.880  17.154  0.00  0.00    +0.000 A 
ATOM     17  C   UNL     1       7.678   4.473  18.157  0.00  0.00    +0.000 A 
ATOM     18  S   UNL     1       8.152   5.759  19.174  0.00  0.00    +0.000 S 
ATOM     19  C   UNL     1       7.196   6.864  18.294  0.00  0.00    +0.000 A 
ATOM     20  C   UNL     1       6.492   6.261  17.267  0.00  0.00    +0.000 A 
ENDBRANCH  11  12
ENDBRANCH   1  11
TORSDOF 4
ENDMDL
MODEL 8
REMARK VINA RESULT:      -6.6      2.521      5.884
REMARK  Name = 
REMARK  6 active torsions:
REMARK  status: ('A' for Active; 'I' for Inactive)
REMARK    1  A    between atoms: C_1  and  C_2
REMARK    2  A    between atoms: C_2  and  C_3
REMARK    3  A    between atoms: N_7  and  C_8
REMARK    4  A    between atoms: C_8  and  C_9
REMARK    5  A    between atoms: C_9  and  C_10
REMARK    6  A    between atoms: C_10  and  C_11
REMARK                            x       y       z     vdW  Elec       q    Type
REMARK                         _______ _______ _______ _____ _____    ______ ____
ROOT
ATOM      1  C   UNL     1       2.507   6.713  18.093  0.00  0.00    +0.000 C 
ENDROOT
BRANCH   1   2
ATOM      2  C   UNL     1       2.109   6.533  19.560  0.00  0.00    +0.000 C 
BRANCH   2   9
ATOM      3  C   UNL     1       0.370   2.555  18.925  0.00  0.00    +0.000 C 
ATOM      4  C   UNL     1       1.897   2.766  18.976  0.00  0.00    +0.000 C 
ATOM      5  C   UNL     1       2.539   1.925  17.859  0.00  0.00    +0.000 C 
ATOM      6  C   UNL     1       2.467   2.306  20.332  0.00  0.00    +0.000 C 
ATOM      7  C   UNL     1       2.023   3.224  21.462  0.00  0.00    +0.000 C 
ATOM      8  C   UNL     1       2.336   4.684  21.149  0.00  0.00    +0.000 C 
ATOM      9  N   UNL     1       1.782   5.121  19.860  0.00  0.00    +0.000 NA
ATOM     10  C   UNL     1       2.249   4.257  18.757  0.00  0.00    +0.000 C 
ENDBRANCH   2   9
ENDBRANCH   1   2
BRANCH   1  11
ATOM     11  C   UNL     1       4.016   6.820  17.878  0.00  0.00    +0.000 C 
BRANCH  11  12
ATOM     12  C   UNL     1       4.740   5.468  18.104  0.00  0.00    +0.000 C 
ATOM     13  C   UNL     1       5.642   5.494  19.351  0.00  0.00    +0.000 C 
ATOM     14  C   UNL     1       7.169   5.556  19.197  0.00  0.00    +0.000 C 
ATOM     15  C   UNL     1       7.812   5.267  17.840  0.00  0.00    +0.000 C 
ATOM     16  C   UNL     1       6.869   4.949  16.735  0.00  0.00    +0.000 A 
ATOM     17  C   UNL     1       7.258   4.594  15.459  0.00  0.00    +0.000 A 
ATOM     18  S   UNL     1       5.930   4.237  14.447  0.00  0.00    +0.000 S 
ATOM     19  C   UNL     1       4.827   4.576  15.702  0.00  0.00    +0.000 A 
ATOM     20  C   UNL     1       5.451   4.997  16.863  0.00  0.00    +0.000 A 
ENDBRANCH  11  12
ENDBRANCH   1  11
TORSDOF 4
ENDMDL
MODEL 9
REMARK VINA RESULT:      -6.6      3.983      6.491
REMARK  Name = 
REMARK  6 active torsions:
REMARK  status: ('A' for Active; 'I' for Inactive)
REMARK    1  A    between atoms: C_1  and  C_2
REMARK    2  A    between atoms: C_2  and  C_3
REMARK    3  A    between atoms: N_7  and  C_8
REMARK    4  A    between atoms: C_8  and  C_9
REMARK    5  A    between atoms: C_9  and  C_10
REMARK    6  A    between atoms: C_10  and  C_11
REMARK                            x       y       z     vdW  Elec       q    Type
REMARK                         _______ _______ _______ _____ _____    ______ ____
ROOT
ATOM      1  C   UNL     1       2.398   8.103  17.853  0.00  0.00    +0.000 C 
ENDROOT
BRANCH   1   2
ATOM      2  C   UNL     1       2.118   9.599  18.002  0.00  0.00    +0.000 C 
BRANCH   2   9
ATOM      3  C   UNL     1      -0.354  10.167  21.583  0.00  0.00    +0.000 C 
ATOM      4  C   UNL     1      -0.148  11.303  20.559  0.00  0.00    +0.000 C 
ATOM      5  C   UNL     1       0.084  12.613  21.332  0.00  0.00    +0.000 C 
ATOM      6  C   UNL     1      -1.394  11.466  19.668  0.00  0.00    +0.000 C 
ATOM      7  C   UNL     1      -1.567  10.279  18.731  0.00  0.00    +0.000 C 
ATOM      8  C   UNL     1      -0.296  10.008  17.934  0.00  0.00    +0.000 C 
ATOM      9  N   UNL     1       0.888   9.842  18.789  0.00  0.00    +0.000 NA
ATOM     10  C   UNL     1       1.083  11.015  19.665  0.00  0.00    +0.000 C 
ENDBRANCH   2   9
ENDBRANCH   1   2
BRANCH   1  11
ATOM     11  C   UNL     1       2.247   7.319  19.156  0.00  0.00    +0.000 C 
BRANCH  11  12
ATOM     12  C   UNL     1       3.310   6.200  19.297  0.00  0.00    +0.000 C 
ATOM     13  C   UNL     1       4.217   6.100  18.057  0.00  0.00    +0.000 C 
ATOM     14  C   UNL     1       4.048   4.934  17.070  0.00  0.00    +0.000 C 
ATOM     15  C   UNL     1       3.223   3.710  17.468  0.00  0.00    +0.000 C 
ATOM     16  C   UNL     1       2.618   3.756  18.826  0.00  0.00    +0.000 A 
ATOM     17  C   UNL     1       1.899   2.722  19.392  0.00  0.00    +0.000 A 
ATOM     18  S   UNL     1       1.392   3.072  20.984  0.00  0.00    +0.000 S 
ATOM     19  C   UNL     1       2.111   4.617  20.918  0.00  0.00    +0.000 A 
ATOM     20  C   UNL     1       2.692   4.884  19.691  0.00  0.00    +0.000 A 
ENDBRANCH  11  12
ENDBRANCH   1  11
TORSDOF 4
ENDMDL
