MODEL 1
REMARK VINA RESULT:      -7.7      0.000      0.000
REMARK  Name = 
REMARK  11 active torsions:
REMARK  status: ('A' for Active; 'I' for Inactive)
REMARK    1  A    between atoms: C_1  and  O_2
REMARK    2  A    between atoms: O_2  and  C_3
REMARK    3  A    between atoms: C_6  and  C_7
REMARK    4  A    between atoms: C_12  and  C_13
REMARK    5  A    between atoms: C_16  and  C_17
REMARK    6  A    between atoms: C_17  and  C_18
REMARK    7  A    between atoms: C_18  and  C_19
REMARK    8  A    between atoms: C_18  and  C_20
REMARK    9  A    between atoms: C_18  and  C_21
REMARK   10  A    between atoms: C_23  and  O_24
REMARK   11  A    between atoms: O_24  and  C_25
REMARK                            x       y       z     vdW  Elec       q    Type
REMARK                         _______ _______ _______ _____ _____    ______ ____
ROOT
ATOM      1  C   UNL     1       3.191   6.911  18.419  0.00  0.00    +0.000 A 
ATOM      2  N   UNL     1       2.613   8.108  18.022  0.00  0.00    +0.000 NA
ATOM      3  C   UNL     1       1.815   8.469  18.997  0.00  0.00    +0.000 A 
ATOM      4  C   UNL     1       0.982   9.609  19.163  0.00  0.00    +0.000 A 
ATOM      5  C   UNL     1       0.231   9.745  20.272  0.00  0.00    +0.000 A 
ATOM      6  C   UNL     1       0.261   8.754  21.342  0.00  0.00    +0.000 A 
ATOM      7  C   UNL     1      -0.601   8.923  22.555  0.00  0.00    +0.000 C 
ATOM      8  C   UNL     1       1.072   7.690  21.193  0.00  0.00    +0.000 A 
ATOM      9  N   UNL     1       1.838   7.544  20.033  0.00  0.00    +0.000 N 
ATOM     10  C   UNL     1       2.702   6.522  19.664  0.00  0.00    +0.000 A 
ENDROOT
BRANCH   1  14
ATOM     11  C   UNL     1       5.962   4.731  15.934  0.00  0.00    +0.000 A 
ATOM     12  C   UNL     1       4.654   4.274  16.147  0.00  0.00    +0.000 A 
ATOM     13  C   UNL     1       3.749   5.010  16.928  0.00  0.00    +0.000 A 
ATOM     14  C   UNL     1       4.128   6.212  17.536  0.00  0.00    +0.000 A 
ATOM     15  C   UNL     1       5.411   6.688  17.259  0.00  0.00    +0.000 A 
ATOM     16  C   UNL     1       6.345   5.953  16.504  0.00  0.00    +0.000 A 
BRANCH  11  18
ATOM     17  C   UNL     1       6.773   4.050  13.800  0.00  0.00    +0.000 C 
ATOM     18  O   UNL     1       6.884   4.017  15.218  0.00  0.00    +0.000 OA
ENDBRANCH  11  18
BRANCH  16  19
ATOM     19  O   UNL     1       7.548   6.605  16.421  0.00  0.00    +0.000 OA
ATOM     20  C   UNL     1       7.842   7.655  17.326  0.00  0.00    +0.000 C 
ENDBRANCH  16  19
ENDBRANCH   1  14
BRANCH  10  21
ATOM     21  C   UNL     1       2.939   5.354  20.576  0.00  0.00    +0.000 C 
BRANCH  21  22
ATOM     22  C   UNL     1       2.310   3.995  20.165  0.00  0.00    +0.000 C 
ATOM     23  C   UNL     1       3.387   3.027  19.653  0.00  0.00    +0.000 C 
ATOM     24  C   UNL     1       1.651   3.411  21.436  0.00  0.00    +0.000 C 
ATOM     25  C   UNL     1       1.213   4.105  19.089  0.00  0.00    +0.000 C 
ENDBRANCH  21  22
ENDBRANCH  10  21
TORSDOF 5
ENDMDL
MODEL 2
REMARK VINA RESULT:      -7.2      3.009      6.833
REMARK  Name = 
REMARK  11 active torsions:
REMARK  status: ('A' for Active; 'I' for Inactive)
REMARK    1  A    between atoms: C_1  and  O_2
REMARK    2  A    between atoms: O_2  and  C_3
REMARK    3  A    between atoms: C_6  and  C_7
REMARK    4  A    between atoms: C_12  and  C_13
REMARK    5  A    between atoms: C_16  and  C_17
REMARK    6  A    between atoms: C_17  and  C_18
REMARK    7  A    between atoms: C_18  and  C_19
REMARK    8  A    between atoms: C_18  and  C_20
REMARK    9  A    between atoms: C_18  and  C_21
REMARK   10  A    between atoms: C_23  and  O_24
REMARK   11  A    between atoms: O_24  and  C_25
REMARK                            x       y       z     vdW  Elec       q    Type
REMARK                         _______ _______ _______ _____ _____    ______ ____
ROOT
ATOM      1  C   UNL     1       2.989   7.132  18.351  0.00  0.00    +0.000 A 
ATOM      2  N   UNL     1       4.184   7.680  17.907  0.00  0.00    +0.000 NA
ATOM      3  C   UNL     1       4.763   6.752  17.184  0.00  0.00    +0.000 A 
ATOM      4  C   UNL     1       5.989   6.745  16.462  0.00  0.00    +0.000 A 
ATOM      5  C   UNL     1       6.377   5.641  15.797  0.00  0.00    +0.000 A 
ATOM      6  C   UNL     1       5.557   4.435  15.771  0.00  0.00    +0.000 A 
ATOM      7  C   UNL     1       6.026   3.217  15.038  0.00  0.00    +0.000 C 
ATOM      8  C   UNL     1       4.386   4.456  16.433  0.00  0.00    +0.000 A 
ATOM      9  N   UNL     1       3.993   5.598  17.136  0.00  0.00    +0.000 N 
ATOM     10  C   UNL     1       2.857   5.819  17.904  0.00  0.00    +0.000 A 
ENDROOT
BRANCH   1  14
ATOM     11  C   UNL     1       0.252   9.284  20.898  0.00  0.00    +0.000 A 
ATOM     12  C   UNL     1       0.940   8.151  21.355  0.00  0.00    +0.000 A 
ATOM     13  C   UNL     1       1.856   7.479  20.529  0.00  0.00    +0.000 A 
ATOM     14  C   UNL     1       2.097   7.906  19.218  0.00  0.00    +0.000 A 
ATOM     15  C   UNL     1       1.456   9.074  18.801  0.00  0.00    +0.000 A 
ATOM     16  C   UNL     1       0.512   9.746  19.601  0.00  0.00    +0.000 A 
BRANCH  11  18
ATOM     17  C   UNL     1      -0.514   9.891  23.071  0.00  0.00    +0.000 C 
ATOM     18  O   UNL     1      -0.681   9.934  21.658  0.00  0.00    +0.000 OA
ENDBRANCH  11  18
BRANCH  16  19
ATOM     19  O   UNL     1      -0.018  10.830  18.949  0.00  0.00    +0.000 OA
ATOM     20  C   UNL     1      -1.197  10.678  18.178  0.00  0.00    +0.000 C 
ENDBRANCH  16  19
ENDBRANCH   1  14
BRANCH  10  21
ATOM     21  C   UNL     1       1.818   4.748  18.061  0.00  0.00    +0.000 C 
BRANCH  21  22
ATOM     22  C   UNL     1       1.999   3.753  19.239  0.00  0.00    +0.000 C 
ATOM     23  C   UNL     1       0.876   3.923  20.273  0.00  0.00    +0.000 C 
ATOM     24  C   UNL     1       1.934   2.332  18.633  0.00  0.00    +0.000 C 
ATOM     25  C   UNL     1       3.348   3.879  19.972  0.00  0.00    +0.000 C 
ENDBRANCH  21  22
ENDBRANCH  10  21
TORSDOF 5
ENDMDL
MODEL 3
REMARK VINA RESULT:      -7.1      1.029      1.070
REMARK  Name = 
REMARK  11 active torsions:
REMARK  status: ('A' for Active; 'I' for Inactive)
REMARK    1  A    between atoms: C_1  and  O_2
REMARK    2  A    between atoms: O_2  and  C_3
REMARK    3  A    between atoms: C_6  and  C_7
REMARK    4  A    between atoms: C_12  and  C_13
REMARK    5  A    between atoms: C_16  and  C_17
REMARK    6  A    between atoms: C_17  and  C_18
REMARK    7  A    between atoms: C_18  and  C_19
REMARK    8  A    between atoms: C_18  and  C_20
REMARK    9  A    between atoms: C_18  and  C_21
REMARK   10  A    between atoms: C_23  and  O_24
REMARK   11  A    between atoms: O_24  and  C_25
REMARK                            x       y       z     vdW  Elec       q    Type
REMARK                         _______ _______ _______ _____ _____    ______ ____
ROOT
ATOM      1  C   UNL     1       3.543   7.185  18.270  0.00  0.00    +0.000 A 
ATOM      2  N   UNL     1       2.975   8.400  17.915  0.00  0.00    +0.000 NA
ATOM      3  C   UNL     1       2.069   8.659  18.827  0.00  0.00    +0.000 A 
ATOM      4  C   UNL     1       1.190   9.764  18.999  0.00  0.00    +0.000 A 
ATOM      5  C   UNL     1       0.324   9.787  20.029  0.00  0.00    +0.000 A 
ATOM      6  C   UNL     1       0.270   8.707  21.008  0.00  0.00    +0.000 A 
ATOM      7  C   UNL     1      -0.718   8.753  22.132  0.00  0.00    +0.000 C 
ATOM      8  C   UNL     1       1.123   7.677  20.857  0.00  0.00    +0.000 A 
ATOM      9  N   UNL     1       2.010   7.648  19.778  0.00  0.00    +0.000 N 
ATOM     10  C   UNL     1       2.937   6.679  19.418  0.00  0.00    +0.000 A 
ENDROOT
BRANCH   1  14
ATOM     11  C   UNL     1       6.512   5.292  15.778  0.00  0.00    +0.000 A 
ATOM     12  C   UNL     1       5.368   5.889  15.229  0.00  0.00    +0.000 A 
ATOM     13  C   UNL     1       4.426   6.534  16.046  0.00  0.00    +0.000 A 
ATOM     14  C   UNL     1       4.587   6.585  17.435  0.00  0.00    +0.000 A 
ATOM     15  C   UNL     1       5.763   6.046  17.960  0.00  0.00    +0.000 A 
ATOM     16  C   UNL     1       6.707   5.369  17.164  0.00  0.00    +0.000 A 
BRANCH  11  18
ATOM     17  C   UNL     1       7.258   4.660  13.605  0.00  0.00    +0.000 C 
ATOM     18  O   UNL     1       7.426   4.614  15.018  0.00  0.00    +0.000 OA
ENDBRANCH  11  18
BRANCH  16  19
ATOM     19  O   UNL     1       7.744   4.883  17.918  0.00  0.00    +0.000 OA
ATOM     20  C   UNL     1       8.030   5.467  19.177  0.00  0.00    +0.000 C 
ENDBRANCH  16  19
ENDBRANCH   1  14
BRANCH  10  21
ATOM     21  C   UNL     1       3.112   5.441  20.247  0.00  0.00    +0.000 C 
BRANCH  21  22
ATOM     22  C   UNL     1       2.557   4.114  19.665  0.00  0.00    +0.000 C 
ATOM     23  C   UNL     1       3.700   3.143  19.333  0.00  0.00    +0.000 C 
ATOM     24  C   UNL     1       1.653   3.495  20.756  0.00  0.00    +0.000 C 
ATOM     25  C   UNL     1       1.695   4.289  18.400  0.00  0.00    +0.000 C 
ENDBRANCH  21  22
ENDBRANCH  10  21
TORSDOF 5
ENDMDL
MODEL 4
REMARK VINA RESULT:      -7.0      3.134      6.774
REMARK  Name = 
REMARK  11 active torsions:
REMARK  status: ('A' for Active; 'I' for Inactive)
REMARK    1  A    between atoms: C_1  and  O_2
REMARK    2  A    between atoms: O_2  and  C_3
REMARK    3  A    between atoms: C_6  and  C_7
REMARK    4  A    between atoms: C_12  and  C_13
REMARK    5  A    between atoms: C_16  and  C_17
REMARK    6  A    between atoms: C_17  and  C_18
REMARK    7  A    between atoms: C_18  and  C_19
REMARK    8  A    between atoms: C_18  and  C_20
REMARK    9  A    between atoms: C_18  and  C_21
REMARK   10  A    between atoms: C_23  and  O_24
REMARK   11  A    between atoms: O_24  and  C_25
REMARK                            x       y       z     vdW  Elec       q    Type
REMARK                         _______ _______ _______ _____ _____    ______ ____
ROOT
ATOM      1  C   UNL     1       2.832   7.318  18.490  0.00  0.00    +0.000 A 
ATOM      2  N   UNL     1       3.381   7.876  17.345  0.00  0.00    +0.000 NA
ATOM      3  C   UNL     1       4.116   6.938  16.799  0.00  0.00    +0.000 A 
ATOM      4  C   UNL     1       4.896   6.920  15.609  0.00  0.00    +0.000 A 
ATOM      5  C   UNL     1       5.586   5.816  15.267  0.00  0.00    +0.000 A 
ATOM      6  C   UNL     1       5.543   4.605  16.078  0.00  0.00    +0.000 A 
ATOM      7  C   UNL     1       6.337   3.400  15.681  0.00  0.00    +0.000 C 
ATOM      8  C   UNL     1       4.782   4.617  17.188  0.00  0.00    +0.000 A 
ATOM      9  N   UNL     1       4.080   5.770  17.549  0.00  0.00    +0.000 N 
ATOM     10  C   UNL     1       3.275   6.008  18.656  0.00  0.00    +0.000 A 
ENDROOT
BRANCH   1  14
ATOM     11  C   UNL     1       0.173   9.544  21.054  0.00  0.00    +0.000 A 
ATOM     12  C   UNL     1       0.875   8.425  21.523  0.00  0.00    +0.000 A 
ATOM     13  C   UNL     1       1.766   7.730  20.690  0.00  0.00    +0.000 A 
ATOM     14  C   UNL     1       1.967   8.118  19.361  0.00  0.00    +0.000 A 
ATOM     15  C   UNL     1       1.312   9.273  18.929  0.00  0.00    +0.000 A 
ATOM     16  C   UNL     1       0.393   9.969  19.737  0.00  0.00    +0.000 A 
BRANCH  11  18
ATOM     17  C   UNL     1      -0.680  10.010  23.230  0.00  0.00    +0.000 C 
ATOM     18  O   UNL     1      -0.738  10.217  21.823  0.00  0.00    +0.000 OA
ENDBRANCH  11  18
BRANCH  16  19
ATOM     19  O   UNL     1      -0.157  11.033  19.070  0.00  0.00    +0.000 OA
ATOM     20  C   UNL     1      -1.270  10.828  18.216  0.00  0.00    +0.000 C 
ENDBRANCH  16  19
ENDBRANCH   1  14
BRANCH  10  21
ATOM     21  C   UNL     1       3.039   4.933  19.676  0.00  0.00    +0.000 C 
BRANCH  21  22
ATOM     22  C   UNL     1       1.973   3.857  19.337  0.00  0.00    +0.000 C 
ATOM     23  C   UNL     1       2.580   2.447  19.402  0.00  0.00    +0.000 C 
ATOM     24  C   UNL     1       0.857   3.989  20.399  0.00  0.00    +0.000 C 
ATOM     25  C   UNL     1       1.315   4.031  17.955  0.00  0.00    +0.000 C 
ENDBRANCH  21  22
ENDBRANCH  10  21
TORSDOF 5
ENDMDL
MODEL 5
REMARK VINA RESULT:      -6.8      3.111      6.773
REMARK  Name = 
REMARK  11 active torsions:
REMARK  status: ('A' for Active; 'I' for Inactive)
REMARK    1  A    between atoms: C_1  and  O_2
REMARK    2  A    between atoms: O_2  and  C_3
REMARK    3  A    between atoms: C_6  and  C_7
REMARK    4  A    between atoms: C_12  and  C_13
REMARK    5  A    between atoms: C_16  and  C_17
REMARK    6  A    between atoms: C_17  and  C_18
REMARK    7  A    between atoms: C_18  and  C_19
REMARK    8  A    between atoms: C_18  and  C_20
REMARK    9  A    between atoms: C_18  and  C_21
REMARK   10  A    between atoms: C_23  and  O_24
REMARK   11  A    between atoms: O_24  and  C_25
REMARK                            x       y       z     vdW  Elec       q    Type
REMARK                         _______ _______ _______ _____ _____    ______ ____
ROOT
ATOM      1  C   UNL     1       2.890   7.225  18.408  0.00  0.00    +0.000 A 
ATOM      2  N   UNL     1       3.460   7.822  17.293  0.00  0.00    +0.000 NA
ATOM      3  C   UNL     1       4.191   6.898  16.718  0.00  0.00    +0.000 A 
ATOM      4  C   UNL     1       4.985   6.919  15.538  0.00  0.00    +0.000 A 
ATOM      5  C   UNL     1       5.667   5.822  15.161  0.00  0.00    +0.000 A 
ATOM      6  C   UNL     1       5.600   4.580  15.921  0.00  0.00    +0.000 A 
ATOM      7  C   UNL     1       6.386   3.382  15.486  0.00  0.00    +0.000 C 
ATOM      8  C   UNL     1       4.826   4.556  17.022  0.00  0.00    +0.000 A 
ATOM      9  N   UNL     1       4.132   5.702  17.421  0.00  0.00    +0.000 N 
ATOM     10  C   UNL     1       3.316   5.904  18.526  0.00  0.00    +0.000 A 
ENDROOT
BRANCH   1  14
ATOM     11  C   UNL     1       0.218   9.384  21.016  0.00  0.00    +0.000 A 
ATOM     12  C   UNL     1       0.822   8.185  21.417  0.00  0.00    +0.000 A 
ATOM     13  C   UNL     1       1.718   7.509  20.574  0.00  0.00    +0.000 A 
ATOM     14  C   UNL     1       2.023   7.999  19.299  0.00  0.00    +0.000 A 
ATOM     15  C   UNL     1       1.466   9.229  18.941  0.00  0.00    +0.000 A 
ATOM     16  C   UNL     1       0.542   9.909  19.757  0.00  0.00    +0.000 A 
BRANCH  11  18
ATOM     17  C   UNL     1      -0.539   9.950  23.203  0.00  0.00    +0.000 C 
ATOM     18  O   UNL     1      -0.696  10.044  21.792  0.00  0.00    +0.000 OA
ENDBRANCH  11  18
BRANCH  16  19
ATOM     19  O   UNL     1       0.099  11.061  19.162  0.00  0.00    +0.000 OA
ATOM     20  C   UNL     1       0.665  12.306  19.534  0.00  0.00    +0.000 C 
ENDBRANCH  16  19
ENDBRANCH   1  14
BRANCH  10  21
ATOM     21  C   UNL     1       3.055   4.792  19.499  0.00  0.00    +0.000 C 
BRANCH  21  22
ATOM     22  C   UNL     1       1.906   3.806  19.156  0.00  0.00    +0.000 C 
ATOM     23  C   UNL     1       0.804   3.859  20.225  0.00  0.00    +0.000 C 
ATOM     24  C   UNL     1       1.328   4.256  17.794  0.00  0.00    +0.000 C 
ATOM     25  C   UNL     1       2.354   2.341  19.003  0.00  0.00    +0.000 C 
ENDBRANCH  21  22
ENDBRANCH  10  21
TORSDOF 5
ENDMDL
MODEL 6
REMARK VINA RESULT:      -6.5      3.256      7.368
REMARK  Name = 
REMARK  11 active torsions:
REMARK  status: ('A' for Active; 'I' for Inactive)
REMARK    1  A    between atoms: C_1  and  O_2
REMARK    2  A    between atoms: O_2  and  C_3
REMARK    3  A    between atoms: C_6  and  C_7
REMARK    4  A    between atoms: C_12  and  C_13
REMARK    5  A    between atoms: C_16  and  C_17
REMARK    6  A    between atoms: C_17  and  C_18
REMARK    7  A    between atoms: C_18  and  C_19
REMARK    8  A    between atoms: C_18  and  C_20
REMARK    9  A    between atoms: C_18  and  C_21
REMARK   10  A    between atoms: C_23  and  O_24
REMARK   11  A    between atoms: O_24  and  C_25
REMARK                            x       y       z     vdW  Elec       q    Type
REMARK                         _______ _______ _______ _____ _____    ______ ____
ROOT
ATOM      1  C   UNL     1       4.783   4.091  16.225  0.00  0.00    +0.000 A 
ATOM      2  N   UNL     1       4.732   3.349  15.054  0.00  0.00    +0.000 NA
ATOM      3  C   UNL     1       5.645   3.856  14.261  0.00  0.00    +0.000 A 
ATOM      4  C   UNL     1       6.062   3.498  12.950  0.00  0.00    +0.000 A 
ATOM      5  C   UNL     1       7.031   4.199  12.332  0.00  0.00    +0.000 A 
ATOM      6  C   UNL     1       7.697   5.321  12.982  0.00  0.00    +0.000 A 
ATOM      7  C   UNL     1       8.757   6.094  12.260  0.00  0.00    +0.000 C 
ATOM      8  C   UNL     1       7.318   5.639  14.233  0.00  0.00    +0.000 A 
ATOM      9  N   UNL     1       6.301   4.920  14.867  0.00  0.00    +0.000 N 
ATOM     10  C   UNL     1       5.739   5.099  16.124  0.00  0.00    +0.000 A 
ENDROOT
BRANCH   1  14
ATOM     11  C   UNL     1       1.966   3.159  19.356  0.00  0.00    +0.000 A 
ATOM     12  C   UNL     1       2.706   2.156  18.715  0.00  0.00    +0.000 A 
ATOM     13  C   UNL     1       3.647   2.474  17.722  0.00  0.00    +0.000 A 
ATOM     14  C   UNL     1       3.862   3.799  17.326  0.00  0.00    +0.000 A 
ATOM     15  C   UNL     1       3.167   4.791  18.020  0.00  0.00    +0.000 A 
ATOM     16  C   UNL     1       2.198   4.494  18.998  0.00  0.00    +0.000 A 
BRANCH  11  18
ATOM     17  C   UNL     1       1.450   2.651  21.626  0.00  0.00    +0.000 C 
ATOM     18  O   UNL     1       1.008   2.882  20.293  0.00  0.00    +0.000 OA
ENDBRANCH  11  18
BRANCH  16  19
ATOM     19  O   UNL     1       1.617   5.633  19.492  0.00  0.00    +0.000 OA
ATOM     20  C   UNL     1       2.401   6.801  19.669  0.00  0.00    +0.000 C 
ENDBRANCH  16  19
ENDBRANCH   1  14
BRANCH  10  21
ATOM     21  C   UNL     1       6.229   6.186  17.033  0.00  0.00    +0.000 C 
BRANCH  21  22
ATOM     22  C   UNL     1       7.171   5.768  18.194  0.00  0.00    +0.000 C 
ATOM     23  C   UNL     1       8.118   6.919  18.570  0.00  0.00    +0.000 C 
ATOM     24  C   UNL     1       6.265   5.428  19.400  0.00  0.00    +0.000 C 
ATOM     25  C   UNL     1       8.027   4.523  17.897  0.00  0.00    +0.000 C 
ENDBRANCH  21  22
ENDBRANCH  10  21
TORSDOF 5
ENDMDL
MODEL 7
REMARK VINA RESULT:      -6.4      3.093      6.542
REMARK  Name = 
REMARK  11 active torsions:
REMARK  status: ('A' for Active; 'I' for Inactive)
REMARK    1  A    between atoms: C_1  and  O_2
REMARK    2  A    between atoms: O_2  and  C_3
REMARK    3  A    between atoms: C_6  and  C_7
REMARK    4  A    between atoms: C_12  and  C_13
REMARK    5  A    between atoms: C_16  and  C_17
REMARK    6  A    between atoms: C_17  and  C_18
REMARK    7  A    between atoms: C_18  and  C_19
REMARK    8  A    between atoms: C_18  and  C_20
REMARK    9  A    between atoms: C_18  and  C_21
REMARK   10  A    between atoms: C_23  and  O_24
REMARK   11  A    between atoms: O_24  and  C_25
REMARK                            x       y       z     vdW  Elec       q    Type
REMARK                         _______ _______ _______ _____ _____    ______ ____
ROOT
ATOM      1  C   UNL     1       2.498   6.305  19.791  0.00  0.00    +0.000 A 
ATOM      2  N   UNL     1       1.712   5.486  20.587  0.00  0.00    +0.000 NA
ATOM      3  C   UNL     1       2.369   4.358  20.712  0.00  0.00    +0.000 A 
ATOM      4  C   UNL     1       2.070   3.164  21.424  0.00  0.00    +0.000 A 
ATOM      5  C   UNL     1       2.918   2.119  21.381  0.00  0.00    +0.000 A 
ATOM      6  C   UNL     1       4.168   2.178  20.632  0.00  0.00    +0.000 A 
ATOM      7  C   UNL     1       5.080   0.992  20.587  0.00  0.00    +0.000 C 
ATOM      8  C   UNL     1       4.460   3.320  19.982  0.00  0.00    +0.000 A 
ATOM      9  N   UNL     1       3.571   4.398  20.016  0.00  0.00    +0.000 N 
ATOM     10  C   UNL     1       3.656   5.638  19.397  0.00  0.00    +0.000 A 
ENDROOT
BRANCH   1  14
ATOM     11  C   UNL     1       1.307  10.308  18.714  0.00  0.00    +0.000 A 
ATOM     12  C   UNL     1       1.881   9.438  17.776  0.00  0.00    +0.000 A 
ATOM     13  C   UNL     1       2.232   8.125  18.129  0.00  0.00    +0.000 A 
ATOM     14  C   UNL     1       2.039   7.649  19.430  0.00  0.00    +0.000 A 
ATOM     15  C   UNL     1       1.404   8.504  20.333  0.00  0.00    +0.000 A 
ATOM     16  C   UNL     1       1.071   9.833  20.011  0.00  0.00    +0.000 A 
BRANCH  11  18
ATOM     17  C   UNL     1       2.052  12.560  18.489  0.00  0.00    +0.000 C 
ATOM     18  O   UNL     1       0.997  11.608  18.418  0.00  0.00    +0.000 OA
ENDBRANCH  11  18
BRANCH  16  19
ATOM     19  O   UNL     1       0.511  10.484  21.080  0.00  0.00    +0.000 OA
ATOM     20  C   UNL     1       0.075   9.740  22.205  0.00  0.00    +0.000 C 
ENDBRANCH  16  19
ENDBRANCH   1  14
BRANCH  10  21
ATOM     21  C   UNL     1       4.845   5.992  18.554  0.00  0.00    +0.000 C 
BRANCH  21  22
ATOM     22  C   UNL     1       4.913   5.376  17.130  0.00  0.00    +0.000 C 
ATOM     23  C   UNL     1       3.676   4.507  16.852  0.00  0.00    +0.000 C 
ATOM     24  C   UNL     1       4.947   6.560  16.136  0.00  0.00    +0.000 C 
ATOM     25  C   UNL     1       6.167   4.521  16.869  0.00  0.00    +0.000 C 
ENDBRANCH  21  22
ENDBRANCH  10  21
TORSDOF 5
ENDMDL
MODEL 8
REMARK VINA RESULT:      -6.4      1.006      1.956
REMARK  Name = 
REMARK  11 active torsions:
REMARK  status: ('A' for Active; 'I' for Inactive)
REMARK    1  A    between atoms: C_1  and  O_2
REMARK    2  A    between atoms: O_2  and  C_3
REMARK    3  A    between atoms: C_6  and  C_7
REMARK    4  A    between atoms: C_12  and  C_13
REMARK    5  A    between atoms: C_16  and  C_17
REMARK    6  A    between atoms: C_17  and  C_18
REMARK    7  A    between atoms: C_18  and  C_19
REMARK    8  A    between atoms: C_18  and  C_20
REMARK    9  A    between atoms: C_18  and  C_21
REMARK   10  A    between atoms: C_23  and  O_24
REMARK   11  A    between atoms: O_24  and  C_25
REMARK                            x       y       z     vdW  Elec       q    Type
REMARK                         _______ _______ _______ _____ _____    ______ ____
ROOT
ATOM      1  C   UNL     1       3.770   6.907  18.040  0.00  0.00    +0.000 A 
ATOM      2  N   UNL     1       3.206   8.116  17.660  0.00  0.00    +0.000 NA
ATOM      3  C   UNL     1       2.301   8.396  18.566  0.00  0.00    +0.000 A 
ATOM      4  C   UNL     1       1.425   9.507  18.714  0.00  0.00    +0.000 A 
ATOM      5  C   UNL     1       0.559   9.554  19.743  0.00  0.00    +0.000 A 
ATOM      6  C   UNL     1       0.502   8.496  20.745  0.00  0.00    +0.000 A 
ATOM      7  C   UNL     1      -0.487   8.567  21.867  0.00  0.00    +0.000 C 
ATOM      8  C   UNL     1       1.351   7.460  20.616  0.00  0.00    +0.000 A 
ATOM      9  N   UNL     1       2.239   7.406  19.538  0.00  0.00    +0.000 N 
ATOM     10  C   UNL     1       3.163   6.427  19.198  0.00  0.00    +0.000 A 
ENDROOT
BRANCH   1  14
ATOM     11  C   UNL     1       6.849   5.223  15.531  0.00  0.00    +0.000 A 
ATOM     12  C   UNL     1       7.127   6.254  16.439  0.00  0.00    +0.000 A 
ATOM     13  C   UNL     1       6.125   6.770  17.277  0.00  0.00    +0.000 A 
ATOM     14  C   UNL     1       4.813   6.287  17.219  0.00  0.00    +0.000 A 
ATOM     15  C   UNL     1       4.567   5.215  16.358  0.00  0.00    +0.000 A 
ATOM     16  C   UNL     1       5.548   4.702  15.488  0.00  0.00    +0.000 A 
BRANCH  11  18
ATOM     17  C   UNL     1       7.999   5.447  13.456  0.00  0.00    +0.000 C 
ATOM     18  O   UNL     1       7.788   4.730  14.667  0.00  0.00    +0.000 OA
ENDBRANCH  11  18
BRANCH  16  19
ATOM     19  O   UNL     1       5.048   3.694  14.706  0.00  0.00    +0.000 OA
ATOM     20  C   UNL     1       5.083   3.817  13.294  0.00  0.00    +0.000 C 
ENDBRANCH  16  19
ENDBRANCH   1  14
BRANCH  10  21
ATOM     21  C   UNL     1       3.334   5.206  20.054  0.00  0.00    +0.000 C 
BRANCH  21  22
ATOM     22  C   UNL     1       2.480   3.962  19.692  0.00  0.00    +0.000 C 
ATOM     23  C   UNL     1       3.373   2.729  19.483  0.00  0.00    +0.000 C 
ATOM     24  C   UNL     1       1.528   3.715  20.885  0.00  0.00    +0.000 C 
ATOM     25  C   UNL     1       1.606   4.138  18.436  0.00  0.00    +0.000 C 
ENDBRANCH  21  22
ENDBRANCH  10  21
TORSDOF 5
ENDMDL
MODEL 9
REMARK VINA RESULT:      -6.3      1.211      1.963
REMARK  Name = 
REMARK  11 active torsions:
REMARK  status: ('A' for Active; 'I' for Inactive)
REMARK    1  A    between atoms: C_1  and  O_2
REMARK    2  A    between atoms: O_2  and  C_3
REMARK    3  A    between atoms: C_6  and  C_7
REMARK    4  A    between atoms: C_12  and  C_13
REMARK    5  A    between atoms: C_16  and  C_17
REMARK    6  A    between atoms: C_17  and  C_18
REMARK    7  A    between atoms: C_18  and  C_19
REMARK    8  A    between atoms: C_18  and  C_20
REMARK    9  A    between atoms: C_18  and  C_21
REMARK   10  A    between atoms: C_23  and  O_24
REMARK   11  A    between atoms: O_24  and  C_25
REMARK                            x       y       z     vdW  Elec       q    Type
REMARK                         _______ _______ _______ _____ _____    ______ ____
ROOT
ATOM      1  C   UNL     1       3.381   6.812  18.006  0.00  0.00    +0.000 A 
ATOM      2  N   UNL     1       2.903   8.061  17.636  0.00  0.00    +0.000 NA
ATOM      3  C   UNL     1       2.131   8.461  18.617  0.00  0.00    +0.000 A 
ATOM      4  C   UNL     1       1.390   9.660  18.808  0.00  0.00    +0.000 A 
ATOM      5  C   UNL     1       0.646   9.828  19.917  0.00  0.00    +0.000 A 
ATOM      6  C   UNL     1       0.590   8.813  20.962  0.00  0.00    +0.000 A 
ATOM      7  C   UNL     1      -0.262   9.021  22.175  0.00  0.00    +0.000 C 
ATOM      8  C   UNL     1       1.314   7.691  20.790  0.00  0.00    +0.000 A 
ATOM      9  N   UNL     1       2.073   7.513  19.630  0.00  0.00    +0.000 N 
ATOM     10  C   UNL     1       2.855   6.433  19.239  0.00  0.00    +0.000 A 
ENDROOT
BRANCH   1  14
ATOM     11  C   UNL     1       5.876   4.640  15.239  0.00  0.00    +0.000 A 
ATOM     12  C   UNL     1       5.773   6.037  15.189  0.00  0.00    +0.000 A 
ATOM     13  C   UNL     1       4.986   6.737  16.118  0.00  0.00    +0.000 A 
ATOM     14  C   UNL     1       4.264   6.063  17.110  0.00  0.00    +0.000 A 
ATOM     15  C   UNL     1       4.431   4.679  17.188  0.00  0.00    +0.000 A 
ATOM     16  C   UNL     1       5.191   3.953  16.251  0.00  0.00    +0.000 A 
BRANCH  11  18
ATOM     17  C   UNL     1       5.978   3.669  13.065  0.00  0.00    +0.000 C 
ATOM     18  O   UNL     1       6.595   3.922  14.322  0.00  0.00    +0.000 OA
ENDBRANCH  11  18
BRANCH  16  19
ATOM     19  O   UNL     1       5.155   2.607  16.509  0.00  0.00    +0.000 OA
ATOM     20  C   UNL     1       4.154   2.083  17.364  0.00  0.00    +0.000 C 
ENDBRANCH  16  19
ENDBRANCH   1  14
BRANCH  10  21
ATOM     21  C   UNL     1       2.993   5.229  20.123  0.00  0.00    +0.000 C 
BRANCH  21  22
ATOM     22  C   UNL     1       2.008   4.054  19.878  0.00  0.00    +0.000 C 
ATOM     23  C   UNL     1       2.668   2.708  20.215  0.00  0.00    +0.000 C 
ATOM     24  C   UNL     1       0.800   4.286  20.815  0.00  0.00    +0.000 C 
ATOM     25  C   UNL     1       1.464   3.973  18.439  0.00  0.00    +0.000 C 
ENDBRANCH  21  22
ENDBRANCH  10  21
TORSDOF 5
ENDMDL
