MODEL 1
REMARK VINA RESULT:      -8.4      0.000      0.000
REMARK  Name = 
REMARK  7 active torsions:
REMARK  status: ('A' for Active; 'I' for Inactive)
REMARK    1  A    between atoms: N_1  and  C_2
REMARK    2  A    between atoms: C_2  and  C_3
REMARK    3  A    between atoms: C_2  and  C_21
REMARK    4  A    between atoms: C_3  and  N_4
REMARK    5  A    between atoms: N_4  and  C_5
REMARK    6  A    between atoms: C_7  and  C_8
REMARK    7  A    between atoms: C_21  and  C_22
REMARK                            x       y       z     vdW  Elec       q    Type
REMARK                         _______ _______ _______ _____ _____    ______ ____
ROOT
ATOM      1  C   UNL     1       4.642   4.904  19.033  0.00  0.00    +0.000 A 
ATOM      2  N   UNL     1       4.094   6.137  19.047  0.00  0.00    +0.000 NA
ATOM      3  C   UNL     1       2.754   6.273  18.998  0.00  0.00    +0.000 A 
ATOM      4  N   UNL     1       1.870   5.273  18.902  0.00  0.00    +0.000 NA
ATOM      5  C   UNL     1       2.408   4.034  18.876  0.00  0.00    +0.000 A 
ATOM      6  C   UNL     1       1.663   2.825  18.777  0.00  0.00    +0.000 A 
ATOM      7  C   UNL     1       2.471   1.712  18.766  0.00  0.00    +0.000 A 
ATOM      8  S   UNL     1       4.128   2.125  18.869  0.00  0.00    +0.000 S 
ATOM      9  C   UNL     1       3.777   3.811  18.933  0.00  0.00    +0.000 A 
ENDROOT
BRANCH   3  10
ATOM     10  C   UNL     1       2.230   7.641  19.015  0.00  0.00    +0.000 A 
ATOM     11  C   UNL     1       2.316   8.474  17.885  0.00  0.00    +0.000 A 
ATOM     12  C   UNL     1       1.787   9.756  17.938  0.00  0.00    +0.000 A 
ATOM     13  N   UNL     1       1.186  10.273  19.030  0.00  0.00    +0.000 NA
ATOM     14  C   UNL     1       1.119   9.468  20.111  0.00  0.00    +0.000 A 
ATOM     15  C   UNL     1       1.615   8.181  20.149  0.00  0.00    +0.000 A 
ATOM     16  F   UNL     1       1.517   7.486  21.295  0.00  0.00    +0.000 F 
ENDBRANCH   3  10
BRANCH   1  17
ATOM     17  N   UNL     1       6.026   4.743  19.080  0.00  0.00    +0.000 N 
ATOM     18  H   UNL     1       6.337   4.494  20.015  0.00  0.00    +0.000 HD
BRANCH  17  19
ATOM     19  C   UNL     1       6.799   5.843  18.502  0.00  0.00    +0.000 C 
BRANCH  19  20
ATOM     20  C   UNL     1       7.276   5.473  17.073  0.00  0.00    +0.000 C 
BRANCH  20  21
ATOM     21  N   UNL     1       7.870   4.110  17.096  0.00  0.00    +0.000 NA
ATOM     22  H   UNL     1       8.250   3.888  16.177  0.00  0.00    +0.000 HD
ATOM     23  H   UNL     1       7.141   3.420  17.274  0.00  0.00    +0.000 HD
ENDBRANCH  20  21
BRANCH  20  24
ATOM     24  C   UNL     1       6.139   5.577  16.017  0.00  0.00    +0.000 C 
BRANCH  24  25
ATOM     25  C   UNL     1       6.495   4.992  14.664  0.00  0.00    +0.000 A 
ATOM     26  C   UNL     1       7.562   5.501  13.913  0.00  0.00    +0.000 A 
ATOM     27  C   UNL     1       7.807   5.027  12.620  0.00  0.00    +0.000 A 
ATOM     28  C   UNL     1       7.004   4.026  12.074  0.00  0.00    +0.000 A 
ATOM     29  C   UNL     1       5.976   3.474  12.832  0.00  0.00    +0.000 A 
ATOM     30  C   UNL     1       5.725   3.953  14.119  0.00  0.00    +0.000 A 
ENDBRANCH  24  25
ENDBRANCH  20  24
ENDBRANCH  19  20
ENDBRANCH  17  19
ENDBRANCH   1  17
TORSDOF 7
ENDMDL
MODEL 2
REMARK VINA RESULT:      -8.2      0.921      1.283
REMARK  Name = 
REMARK  7 active torsions:
REMARK  status: ('A' for Active; 'I' for Inactive)
REMARK    1  A    between atoms: N_1  and  C_2
REMARK    2  A    between atoms: C_2  and  C_3
REMARK    3  A    between atoms: C_2  and  C_21
REMARK    4  A    between atoms: C_3  and  N_4
REMARK    5  A    between atoms: N_4  and  C_5
REMARK    6  A    between atoms: C_7  and  C_8
REMARK    7  A    between atoms: C_21  and  C_22
REMARK                            x       y       z     vdW  Elec       q    Type
REMARK                         _______ _______ _______ _____ _____    ______ ____
ROOT
ATOM      1  C   UNL     1       4.519   4.868  19.150  0.00  0.00    +0.000 A 
ATOM      2  N   UNL     1       3.935   6.063  19.376  0.00  0.00    +0.000 NA
ATOM      3  C   UNL     1       2.591   6.164  19.353  0.00  0.00    +0.000 A 
ATOM      4  N   UNL     1       1.737   5.168  19.090  0.00  0.00    +0.000 NA
ATOM      5  C   UNL     1       2.312   3.969  18.851  0.00  0.00    +0.000 A 
ATOM      6  C   UNL     1       1.603   2.772  18.549  0.00  0.00    +0.000 A 
ATOM      7  C   UNL     1       2.444   1.703  18.346  0.00  0.00    +0.000 A 
ATOM      8  S   UNL     1       4.087   2.144  18.515  0.00  0.00    +0.000 S 
ATOM      9  C   UNL     1       3.687   3.782  18.867  0.00  0.00    +0.000 A 
ENDROOT
BRANCH   3  10
ATOM     10  C   UNL     1       2.027   7.492  19.605  0.00  0.00    +0.000 A 
ATOM     11  C   UNL     1       1.551   7.859  20.876  0.00  0.00    +0.000 A 
ATOM     12  C   UNL     1       1.046   9.136  21.076  0.00  0.00    +0.000 A 
ATOM     13  N   UNL     1       0.971  10.072  20.106  0.00  0.00    +0.000 NA
ATOM     14  C   UNL     1       1.421   9.705  18.887  0.00  0.00    +0.000 A 
ATOM     15  C   UNL     1       1.942   8.460  18.598  0.00  0.00    +0.000 A 
ATOM     16  F   UNL     1       2.330   8.200  17.338  0.00  0.00    +0.000 F 
ENDBRANCH   3  10
BRANCH   1  17
ATOM     17  N   UNL     1       5.908   4.744  19.166  0.00  0.00    +0.000 N 
ATOM     18  H   UNL     1       6.248   4.521  20.097  0.00  0.00    +0.000 HD
BRANCH  17  19
ATOM     19  C   UNL     1       6.638   5.853  18.550  0.00  0.00    +0.000 C 
BRANCH  19  20
ATOM     20  C   UNL     1       7.136   5.450  17.137  0.00  0.00    +0.000 C 
BRANCH  20  21
ATOM     21  N   UNL     1       7.869   4.160  17.229  0.00  0.00    +0.000 NA
ATOM     22  H   UNL     1       7.590   3.554  16.459  0.00  0.00    +0.000 HD
ATOM     23  H   UNL     1       7.601   3.672  18.083  0.00  0.00    +0.000 HD
ENDBRANCH  20  21
BRANCH  20  24
ATOM     24  C   UNL     1       5.984   5.373  16.095  0.00  0.00    +0.000 C 
BRANCH  24  25
ATOM     25  C   UNL     1       6.419   4.890  14.725  0.00  0.00    +0.000 A 
ATOM     26  C   UNL     1       7.491   5.490  14.053  0.00  0.00    +0.000 A 
ATOM     27  C   UNL     1       7.809   5.109  12.745  0.00  0.00    +0.000 A 
ATOM     28  C   UNL     1       7.073   4.112  12.105  0.00  0.00    +0.000 A 
ATOM     29  C   UNL     1       6.040   3.472  12.783  0.00  0.00    +0.000 A 
ATOM     30  C   UNL     1       5.717   3.857  14.085  0.00  0.00    +0.000 A 
ENDBRANCH  24  25
ENDBRANCH  20  24
ENDBRANCH  19  20
ENDBRANCH  17  19
ENDBRANCH   1  17
TORSDOF 7
ENDMDL
MODEL 3
REMARK VINA RESULT:      -8.2      1.513      1.811
REMARK  Name = 
REMARK  7 active torsions:
REMARK  status: ('A' for Active; 'I' for Inactive)
REMARK    1  A    between atoms: N_1  and  C_2
REMARK    2  A    between atoms: C_2  and  C_3
REMARK    3  A    between atoms: C_2  and  C_21
REMARK    4  A    between atoms: C_3  and  N_4
REMARK    5  A    between atoms: N_4  and  C_5
REMARK    6  A    between atoms: C_7  and  C_8
REMARK    7  A    between atoms: C_21  and  C_22
REMARK                            x       y       z     vdW  Elec       q    Type
REMARK                         _______ _______ _______ _____ _____    ______ ____
ROOT
ATOM      1  C   UNL     1       3.606   5.428  18.744  0.00  0.00    +0.000 A 
ATOM      2  N   UNL     1       3.050   6.651  18.866  0.00  0.00    +0.000 NA
ATOM      3  C   UNL     1       2.186   6.894  19.872  0.00  0.00    +0.000 A 
ATOM      4  N   UNL     1       1.780   6.006  20.785  0.00  0.00    +0.000 NA
ATOM      5  C   UNL     1       2.323   4.774  20.666  0.00  0.00    +0.000 A 
ATOM      6  C   UNL     1       2.038   3.673  21.522  0.00  0.00    +0.000 A 
ATOM      7  C   UNL     1       2.728   2.539  21.163  0.00  0.00    +0.000 A 
ATOM      8  S   UNL     1       3.715   2.801  19.791  0.00  0.00    +0.000 S 
ATOM      9  C   UNL     1       3.227   4.447  19.665  0.00  0.00    +0.000 A 
ENDROOT
BRANCH   3  10
ATOM     10  C   UNL     1       1.620   8.244  19.940  0.00  0.00    +0.000 A 
ATOM     11  C   UNL     1       1.273   8.833  21.169  0.00  0.00    +0.000 A 
ATOM     12  C   UNL     1       0.761  10.123  21.189  0.00  0.00    +0.000 A 
ATOM     13  N   UNL     1       0.562  10.867  20.081  0.00  0.00    +0.000 NA
ATOM     14  C   UNL     1       0.888  10.287  18.907  0.00  0.00    +0.000 A 
ATOM     15  C   UNL     1       1.405   9.012  18.791  0.00  0.00    +0.000 A 
ATOM     16  F   UNL     1       1.663   8.530  17.564  0.00  0.00    +0.000 F 
ENDBRANCH   3  10
BRANCH   1  17
ATOM     17  N   UNL     1       4.499   5.156  17.709  0.00  0.00    +0.000 N 
ATOM     18  H   UNL     1       4.395   4.203  17.372  0.00  0.00    +0.000 HD
BRANCH  17  19
ATOM     19  C   UNL     1       5.893   5.509  17.981  0.00  0.00    +0.000 C 
BRANCH  19  20
ATOM     20  C   UNL     1       6.821   4.921  16.885  0.00  0.00    +0.000 C 
BRANCH  20  21
ATOM     21  N   UNL     1       7.921   4.163  17.535  0.00  0.00    +0.000 NA
ATOM     22  H   UNL     1       7.902   3.195  17.216  0.00  0.00    +0.000 HD
ATOM     23  H   UNL     1       7.770   4.132  18.542  0.00  0.00    +0.000 HD
ENDBRANCH  20  21
BRANCH  20  24
ATOM     24  C   UNL     1       6.053   4.039  15.861  0.00  0.00    +0.000 C 
BRANCH  24  25
ATOM     25  C   UNL     1       6.542   4.179  14.432  0.00  0.00    +0.000 A 
ATOM     26  C   UNL     1       7.514   5.128  14.090  0.00  0.00    +0.000 A 
ATOM     27  C   UNL     1       7.873   5.322  12.752  0.00  0.00    +0.000 A 
ATOM     28  C   UNL     1       7.281   4.557  11.747  0.00  0.00    +0.000 A 
ATOM     29  C   UNL     1       6.354   3.575  12.081  0.00  0.00    +0.000 A 
ATOM     30  C   UNL     1       5.989   3.386  13.415  0.00  0.00    +0.000 A 
ENDBRANCH  24  25
ENDBRANCH  20  24
ENDBRANCH  19  20
ENDBRANCH  17  19
ENDBRANCH   1  17
TORSDOF 7
ENDMDL
MODEL 4
REMARK VINA RESULT:      -8.2      1.557      2.171
REMARK  Name = 
REMARK  7 active torsions:
REMARK  status: ('A' for Active; 'I' for Inactive)
REMARK    1  A    between atoms: N_1  and  C_2
REMARK    2  A    between atoms: C_2  and  C_3
REMARK    3  A    between atoms: C_2  and  C_21
REMARK    4  A    between atoms: C_3  and  N_4
REMARK    5  A    between atoms: N_4  and  C_5
REMARK    6  A    between atoms: C_7  and  C_8
REMARK    7  A    between atoms: C_21  and  C_22
REMARK                            x       y       z     vdW  Elec       q    Type
REMARK                         _______ _______ _______ _____ _____    ______ ____
ROOT
ATOM      1  C   UNL     1       3.316   5.897  18.574  0.00  0.00    +0.000 A 
ATOM      2  N   UNL     1       2.741   7.083  18.864  0.00  0.00    +0.000 NA
ATOM      3  C   UNL     1       1.956   7.195  19.955  0.00  0.00    +0.000 A 
ATOM      4  N   UNL     1       1.648   6.205  20.801  0.00  0.00    +0.000 NA
ATOM      5  C   UNL     1       2.210   5.010  20.513  0.00  0.00    +0.000 A 
ATOM      6  C   UNL     1       2.024   3.820  21.271  0.00  0.00    +0.000 A 
ATOM      7  C   UNL     1       2.711   2.751  20.744  0.00  0.00    +0.000 A 
ATOM      8  S   UNL     1       3.575   3.183  19.333  0.00  0.00    +0.000 S 
ATOM      9  C   UNL     1       3.037   4.817  19.416  0.00  0.00    +0.000 A 
ENDROOT
BRANCH   3  10
ATOM     10  C   UNL     1       1.364   8.511  20.206  0.00  0.00    +0.000 A 
ATOM     11  C   UNL     1       1.101   8.960  21.512  0.00  0.00    +0.000 A 
ATOM     12  C   UNL     1       0.560  10.223  21.706  0.00  0.00    +0.000 A 
ATOM     13  N   UNL     1       0.256  11.070  20.699  0.00  0.00    +0.000 NA
ATOM     14  C   UNL     1       0.504  10.623  19.449  0.00  0.00    +0.000 A 
ATOM     15  C   UNL     1       1.041   9.385  19.163  0.00  0.00    +0.000 A 
ATOM     16  F   UNL     1       1.214   9.039  17.876  0.00  0.00    +0.000 F 
ENDBRANCH   3  10
BRANCH   1  17
ATOM     17  N   UNL     1       4.127   5.760  17.448  0.00  0.00    +0.000 N 
ATOM     18  H   UNL     1       3.991   4.857  17.002  0.00  0.00    +0.000 HD
BRANCH  17  19
ATOM     19  C   UNL     1       5.540   6.078  17.658  0.00  0.00    +0.000 C 
BRANCH  19  20
ATOM     20  C   UNL     1       6.438   5.038  16.938  0.00  0.00    +0.000 C 
BRANCH  20  21
ATOM     21  N   UNL     1       7.134   4.208  17.957  0.00  0.00    +0.000 NA
ATOM     22  H   UNL     1       7.588   4.815  18.639  0.00  0.00    +0.000 HD
ATOM     23  H   UNL     1       7.880   3.674  17.514  0.00  0.00    +0.000 HD
ENDBRANCH  20  21
BRANCH  20  24
ATOM     24  C   UNL     1       5.645   4.155  15.934  0.00  0.00    +0.000 C 
BRANCH  24  25
ATOM     25  C   UNL     1       6.136   4.249  14.503  0.00  0.00    +0.000 A 
ATOM     26  C   UNL     1       5.534   3.506  13.480  0.00  0.00    +0.000 A 
ATOM     27  C   UNL     1       6.068   3.517  12.188  0.00  0.00    +0.000 A 
ATOM     28  C   UNL     1       7.195   4.287  11.900  0.00  0.00    +0.000 A 
ATOM     29  C   UNL     1       7.769   5.072  12.895  0.00  0.00    +0.000 A 
ATOM     30  C   UNL     1       7.242   5.055  14.187  0.00  0.00    +0.000 A 
ENDBRANCH  24  25
ENDBRANCH  20  24
ENDBRANCH  19  20
ENDBRANCH  17  19
ENDBRANCH   1  17
TORSDOF 7
ENDMDL
MODEL 5
REMARK VINA RESULT:      -8.1      0.744      1.210
REMARK  Name = 
REMARK  7 active torsions:
REMARK  status: ('A' for Active; 'I' for Inactive)
REMARK    1  A    between atoms: N_1  and  C_2
REMARK    2  A    between atoms: C_2  and  C_3
REMARK    3  A    between atoms: C_2  and  C_21
REMARK    4  A    between atoms: C_3  and  N_4
REMARK    5  A    between atoms: N_4  and  C_5
REMARK    6  A    between atoms: C_7  and  C_8
REMARK    7  A    between atoms: C_21  and  C_22
REMARK                            x       y       z     vdW  Elec       q    Type
REMARK                         _______ _______ _______ _____ _____    ______ ____
ROOT
ATOM      1  C   UNL     1       4.498   4.926  19.198  0.00  0.00    +0.000 A 
ATOM      2  N   UNL     1       3.974   6.170  19.187  0.00  0.00    +0.000 NA
ATOM      3  C   UNL     1       2.639   6.330  19.089  0.00  0.00    +0.000 A 
ATOM      4  N   UNL     1       1.741   5.347  18.966  0.00  0.00    +0.000 NA
ATOM      5  C   UNL     1       2.256   4.098  18.967  0.00  0.00    +0.000 A 
ATOM      6  C   UNL     1       1.492   2.903  18.848  0.00  0.00    +0.000 A 
ATOM      7  C   UNL     1       2.279   1.774  18.872  0.00  0.00    +0.000 A 
ATOM      8  S   UNL     1       3.938   2.157  19.032  0.00  0.00    +0.000 S 
ATOM      9  C   UNL     1       3.617   3.849  19.074  0.00  0.00    +0.000 A 
ENDROOT
BRANCH   3  10
ATOM     10  C   UNL     1       2.142   7.709  19.079  0.00  0.00    +0.000 A 
ATOM     11  C   UNL     1       2.285   8.533  17.949  0.00  0.00    +0.000 A 
ATOM     12  C   UNL     1       1.779   9.825  17.976  0.00  0.00    +0.000 A 
ATOM     13  N   UNL     1       1.148  10.360  19.043  0.00  0.00    +0.000 NA
ATOM     14  C   UNL     1       1.027   9.563  20.125  0.00  0.00    +0.000 A 
ATOM     15  C   UNL     1       1.496   8.267  20.188  0.00  0.00    +0.000 A 
ATOM     16  F   UNL     1       1.344   7.580  21.333  0.00  0.00    +0.000 F 
ENDBRANCH   3  10
BRANCH   1  17
ATOM     17  N   UNL     1       5.877   4.740  19.296  0.00  0.00    +0.000 N 
ATOM     18  H   UNL     1       6.184   4.753  20.265  0.00  0.00    +0.000 HD
BRANCH  17  19
ATOM     19  C   UNL     1       6.684   5.607  18.436  0.00  0.00    +0.000 C 
BRANCH  19  20
ATOM     20  C   UNL     1       6.277   5.422  16.951  0.00  0.00    +0.000 C 
BRANCH  20  21
ATOM     21  N   UNL     1       5.871   6.737  16.390  0.00  0.00    +0.000 NA
ATOM     22  H   UNL     1       6.686   7.346  16.327  0.00  0.00    +0.000 HD
ATOM     23  H   UNL     1       5.224   7.198  17.028  0.00  0.00    +0.000 HD
ENDBRANCH  20  21
BRANCH  20  24
ATOM     24  C   UNL     1       7.400   4.766  16.100  0.00  0.00    +0.000 C 
BRANCH  24  25
ATOM     25  C   UNL     1       7.036   4.565  14.642  0.00  0.00    +0.000 A 
ATOM     26  C   UNL     1       5.989   3.712  14.268  0.00  0.00    +0.000 A 
ATOM     27  C   UNL     1       5.738   3.450  12.917  0.00  0.00    +0.000 A 
ATOM     28  C   UNL     1       6.514   4.053  11.928  0.00  0.00    +0.000 A 
ATOM     29  C   UNL     1       7.520   4.944  12.286  0.00  0.00    +0.000 A 
ATOM     30  C   UNL     1       7.778   5.200  13.633  0.00  0.00    +0.000 A 
ENDBRANCH  24  25
ENDBRANCH  20  24
ENDBRANCH  19  20
ENDBRANCH  17  19
ENDBRANCH   1  17
TORSDOF 7
ENDMDL
MODEL 6
REMARK VINA RESULT:      -7.9      1.389      1.828
REMARK  Name = 
REMARK  7 active torsions:
REMARK  status: ('A' for Active; 'I' for Inactive)
REMARK    1  A    between atoms: N_1  and  C_2
REMARK    2  A    between atoms: C_2  and  C_3
REMARK    3  A    between atoms: C_2  and  C_21
REMARK    4  A    between atoms: C_3  and  N_4
REMARK    5  A    between atoms: N_4  and  C_5
REMARK    6  A    between atoms: C_7  and  C_8
REMARK    7  A    between atoms: C_21  and  C_22
REMARK                            x       y       z     vdW  Elec       q    Type
REMARK                         _______ _______ _______ _____ _____    ______ ____
ROOT
ATOM      1  C   UNL     1       3.210   5.522  18.404  0.00  0.00    +0.000 A 
ATOM      2  N   UNL     1       2.720   6.767  18.582  0.00  0.00    +0.000 NA
ATOM      3  C   UNL     1       2.042   7.061  19.709  0.00  0.00    +0.000 A 
ATOM      4  N   UNL     1       1.765   6.207  20.701  0.00  0.00    +0.000 NA
ATOM      5  C   UNL     1       2.243   4.955  20.528  0.00  0.00    +0.000 A 
ATOM      6  C   UNL     1       2.070   3.884  21.449  0.00  0.00    +0.000 A 
ATOM      7  C   UNL     1       2.656   2.718  21.012  0.00  0.00    +0.000 A 
ATOM      8  S   UNL     1       3.410   2.916  19.489  0.00  0.00    +0.000 S 
ATOM      9  C   UNL     1       2.958   4.576  19.401  0.00  0.00    +0.000 A 
ENDROOT
BRANCH   3  10
ATOM     10  C   UNL     1       1.537   8.431  19.833  0.00  0.00    +0.000 A 
ATOM     11  C   UNL     1       1.372   9.257  18.708  0.00  0.00    +0.000 A 
ATOM     12  C   UNL     1       0.869  10.540  18.868  0.00  0.00    +0.000 A 
ATOM     13  N   UNL     1       0.525  11.066  20.064  0.00  0.00    +0.000 NA
ATOM     14  C   UNL     1       0.698  10.267  21.138  0.00  0.00    +0.000 A 
ATOM     15  C   UNL     1       1.189   8.979  21.073  0.00  0.00    +0.000 A 
ATOM     16  F   UNL     1       1.347   8.290  22.216  0.00  0.00    +0.000 F 
ENDBRANCH   3  10
BRANCH   1  17
ATOM     17  N   UNL     1       3.911   5.197  17.243  0.00  0.00    +0.000 N 
ATOM     18  H   UNL     1       3.958   4.190  17.109  0.00  0.00    +0.000 HD
BRANCH  17  19
ATOM     19  C   UNL     1       5.215   5.846  17.101  0.00  0.00    +0.000 C 
BRANCH  19  20
ATOM     20  C   UNL     1       6.320   4.785  16.856  0.00  0.00    +0.000 C 
BRANCH  20  21
ATOM     21  N   UNL     1       6.688   4.160  18.153  0.00  0.00    +0.000 NA
ATOM     22  H   UNL     1       6.169   3.290  18.272  0.00  0.00    +0.000 HD
ATOM     23  H   UNL     1       6.402   4.765  18.921  0.00  0.00    +0.000 HD
ENDBRANCH  20  21
BRANCH  20  24
ATOM     24  C   UNL     1       5.902   3.715  15.810  0.00  0.00    +0.000 C 
BRANCH  24  25
ATOM     25  C   UNL     1       6.337   4.030  14.393  0.00  0.00    +0.000 A 
ATOM     26  C   UNL     1       5.803   3.336  13.299  0.00  0.00    +0.000 A 
ATOM     27  C   UNL     1       6.295   3.560  12.009  0.00  0.00    +0.000 A 
ATOM     28  C   UNL     1       7.309   4.494  11.796  0.00  0.00    +0.000 A 
ATOM     29  C   UNL     1       7.809   5.228  12.867  0.00  0.00    +0.000 A 
ATOM     30  C   UNL     1       7.325   4.999  14.156  0.00  0.00    +0.000 A 
ENDBRANCH  24  25
ENDBRANCH  20  24
ENDBRANCH  19  20
ENDBRANCH  17  19
ENDBRANCH   1  17
TORSDOF 7
ENDMDL
MODEL 7
REMARK VINA RESULT:      -7.9      1.400      1.675
REMARK  Name = 
REMARK  7 active torsions:
REMARK  status: ('A' for Active; 'I' for Inactive)
REMARK    1  A    between atoms: N_1  and  C_2
REMARK    2  A    between atoms: C_2  and  C_3
REMARK    3  A    between atoms: C_2  and  C_21
REMARK    4  A    between atoms: C_3  and  N_4
REMARK    5  A    between atoms: N_4  and  C_5
REMARK    6  A    between atoms: C_7  and  C_8
REMARK    7  A    between atoms: C_21  and  C_22
REMARK                            x       y       z     vdW  Elec       q    Type
REMARK                         _______ _______ _______ _____ _____    ______ ____
ROOT
ATOM      1  C   UNL     1       3.400   6.200  18.414  0.00  0.00    +0.000 A 
ATOM      2  N   UNL     1       2.792   7.376  18.673  0.00  0.00    +0.000 NA
ATOM      3  C   UNL     1       1.983   7.488  19.746  0.00  0.00    +0.000 A 
ATOM      4  N   UNL     1       1.682   6.506  20.603  0.00  0.00    +0.000 NA
ATOM      5  C   UNL     1       2.277   5.320  20.346  0.00  0.00    +0.000 A 
ATOM      6  C   UNL     1       2.104   4.139  21.121  0.00  0.00    +0.000 A 
ATOM      7  C   UNL     1       2.825   3.078  20.626  0.00  0.00    +0.000 A 
ATOM      8  S   UNL     1       3.708   3.505  19.225  0.00  0.00    +0.000 S 
ATOM      9  C   UNL     1       3.130   5.128  19.269  0.00  0.00    +0.000 A 
ENDROOT
BRANCH   3  10
ATOM     10  C   UNL     1       1.356   8.794  19.963  0.00  0.00    +0.000 A 
ATOM     11  C   UNL     1       0.959   9.606  18.886  0.00  0.00    +0.000 A 
ATOM     12  C   UNL     1       0.347  10.826  19.137  0.00  0.00    +0.000 A 
ATOM     13  N   UNL     1       0.108  11.302  20.378  0.00  0.00    +0.000 NA
ATOM     14  C   UNL     1       0.503  10.519  21.403  0.00  0.00    +0.000 A 
ATOM     15  C   UNL     1       1.115   9.292  21.248  0.00  0.00    +0.000 A 
ATOM     16  F   UNL     1       1.493   8.616  22.347  0.00  0.00    +0.000 F 
ENDBRANCH   3  10
BRANCH   1  17
ATOM     17  N   UNL     1       4.237   6.064  17.307  0.00  0.00    +0.000 N 
ATOM     18  H   UNL     1       4.061   5.192  16.816  0.00  0.00    +0.000 HD
BRANCH  17  19
ATOM     19  C   UNL     1       5.659   6.284  17.572  0.00  0.00    +0.000 C 
BRANCH  19  20
ATOM     20  C   UNL     1       6.509   5.167  16.912  0.00  0.00    +0.000 C 
BRANCH  20  21
ATOM     21  N   UNL     1       7.105   4.317  17.976  0.00  0.00    +0.000 NA
ATOM     22  H   UNL     1       7.779   4.864  18.511  0.00  0.00    +0.000 HD
ATOM     23  H   UNL     1       7.633   3.556  17.553  0.00  0.00    +0.000 HD
ENDBRANCH  20  21
BRANCH  20  24
ATOM     24  C   UNL     1       5.695   4.316  15.897  0.00  0.00    +0.000 C 
BRANCH  24  25
ATOM     25  C   UNL     1       6.282   4.289  14.500  0.00  0.00    +0.000 A 
ATOM     26  C   UNL     1       7.367   5.105  14.154  0.00  0.00    +0.000 A 
ATOM     27  C   UNL     1       7.825   5.152  12.833  0.00  0.00    +0.000 A 
ATOM     28  C   UNL     1       7.219   4.370  11.851  0.00  0.00    +0.000 A 
ATOM     29  C   UNL     1       6.176   3.515  12.193  0.00  0.00    +0.000 A 
ATOM     30  C   UNL     1       5.712   3.474  13.509  0.00  0.00    +0.000 A 
ENDBRANCH  24  25
ENDBRANCH  20  24
ENDBRANCH  19  20
ENDBRANCH  17  19
ENDBRANCH   1  17
TORSDOF 7
ENDMDL
MODEL 8
REMARK VINA RESULT:      -7.9      2.368      7.798
REMARK  Name = 
REMARK  7 active torsions:
REMARK  status: ('A' for Active; 'I' for Inactive)
REMARK    1  A    between atoms: N_1  and  C_2
REMARK    2  A    between atoms: C_2  and  C_3
REMARK    3  A    between atoms: C_2  and  C_21
REMARK    4  A    between atoms: C_3  and  N_4
REMARK    5  A    between atoms: N_4  and  C_5
REMARK    6  A    between atoms: C_7  and  C_8
REMARK    7  A    between atoms: C_21  and  C_22
REMARK                            x       y       z     vdW  Elec       q    Type
REMARK                         _______ _______ _______ _____ _____    ______ ____
ROOT
ATOM      1  C   UNL     1       2.910   6.166  18.855  0.00  0.00    +0.000 A 
ATOM      2  N   UNL     1       3.851   6.107  17.890  0.00  0.00    +0.000 NA
ATOM      3  C   UNL     1       4.410   4.921  17.574  0.00  0.00    +0.000 A 
ATOM      4  N   UNL     1       4.142   3.750  18.162  0.00  0.00    +0.000 NA
ATOM      5  C   UNL     1       3.208   3.799  19.137  0.00  0.00    +0.000 A 
ATOM      6  C   UNL     1       2.765   2.680  19.897  0.00  0.00    +0.000 A 
ATOM      7  C   UNL     1       1.812   3.023  20.827  0.00  0.00    +0.000 A 
ATOM      8  S   UNL     1       1.455   4.695  20.787  0.00  0.00    +0.000 S 
ATOM      9  C   UNL     1       2.580   4.978  19.513  0.00  0.00    +0.000 A 
ENDROOT
BRANCH   3  10
ATOM     10  C   UNL     1       5.426   4.934  16.519  0.00  0.00    +0.000 A 
ATOM     11  C   UNL     1       5.178   4.372  15.254  0.00  0.00    +0.000 A 
ATOM     12  C   UNL     1       6.161   4.426  14.276  0.00  0.00    +0.000 A 
ATOM     13  N   UNL     1       7.373   4.990  14.463  0.00  0.00    +0.000 NA
ATOM     14  C   UNL     1       7.604   5.516  15.685  0.00  0.00    +0.000 A 
ATOM     15  C   UNL     1       6.686   5.510  16.715  0.00  0.00    +0.000 A 
ATOM     16  F   UNL     1       7.042   6.038  17.899  0.00  0.00    +0.000 F 
ENDBRANCH   3  10
BRANCH   1  17
ATOM     17  N   UNL     1       2.323   7.383  19.198  0.00  0.00    +0.000 N 
ATOM     18  H   UNL     1       1.504   7.246  19.783  0.00  0.00    +0.000 HD
BRANCH  17  19
ATOM     19  C   UNL     1       2.071   8.289  18.077  0.00  0.00    +0.000 C 
BRANCH  19  20
ATOM     20  C   UNL     1       1.647   9.687  18.600  0.00  0.00    +0.000 C 
BRANCH  20  21
ATOM     21  N   UNL     1       2.036  10.718  17.603  0.00  0.00    +0.000 NA
ATOM     22  H   UNL     1       1.672  11.625  17.891  0.00  0.00    +0.000 HD
ATOM     23  H   UNL     1       1.599  10.511  16.705  0.00  0.00    +0.000 HD
ENDBRANCH  20  21
BRANCH  20  24
ATOM     24  C   UNL     1       0.131   9.767  18.935  0.00  0.00    +0.000 C 
BRANCH  24  25
ATOM     25  C   UNL     1      -0.168  10.049  20.394  0.00  0.00    +0.000 A 
ATOM     26  C   UNL     1       0.051   9.078  21.379  0.00  0.00    +0.000 A 
ATOM     27  C   UNL     1      -0.333   9.313  22.703  0.00  0.00    +0.000 A 
ATOM     28  C   UNL     1      -0.919  10.527  23.060  0.00  0.00    +0.000 A 
ATOM     29  C   UNL     1      -1.092  11.520  22.101  0.00  0.00    +0.000 A 
ATOM     30  C   UNL     1      -0.717  11.283  20.777  0.00  0.00    +0.000 A 
ENDBRANCH  24  25
ENDBRANCH  20  24
ENDBRANCH  19  20
ENDBRANCH  17  19
ENDBRANCH   1  17
TORSDOF 7
ENDMDL
MODEL 9
REMARK VINA RESULT:      -7.9      0.921      1.587
REMARK  Name = 
REMARK  7 active torsions:
REMARK  status: ('A' for Active; 'I' for Inactive)
REMARK    1  A    between atoms: N_1  and  C_2
REMARK    2  A    between atoms: C_2  and  C_3
REMARK    3  A    between atoms: C_2  and  C_21
REMARK    4  A    between atoms: C_3  and  N_4
REMARK    5  A    between atoms: N_4  and  C_5
REMARK    6  A    between atoms: C_7  and  C_8
REMARK    7  A    between atoms: C_21  and  C_22
REMARK                            x       y       z     vdW  Elec       q    Type
REMARK                         _______ _______ _______ _____ _____    ______ ____
ROOT
ATOM      1  C   UNL     1       4.495   4.928  19.266  0.00  0.00    +0.000 A 
ATOM      2  N   UNL     1       3.932   6.154  19.317  0.00  0.00    +0.000 NA
ATOM      3  C   UNL     1       2.592   6.269  19.414  0.00  0.00    +0.000 A 
ATOM      4  N   UNL     1       1.720   5.256  19.438  0.00  0.00    +0.000 NA
ATOM      5  C   UNL     1       2.272   4.024  19.377  0.00  0.00    +0.000 A 
ATOM      6  C   UNL     1       1.541   2.803  19.387  0.00  0.00    +0.000 A 
ATOM      7  C   UNL     1       2.361   1.701  19.308  0.00  0.00    +0.000 A 
ATOM      8  S   UNL     1       4.011   2.140  19.217  0.00  0.00    +0.000 S 
ATOM      9  C   UNL     1       3.642   3.821  19.286  0.00  0.00    +0.000 A 
ENDROOT
BRANCH   3  10
ATOM     10  C   UNL     1       2.052   7.630  19.462  0.00  0.00    +0.000 A 
ATOM     11  C   UNL     1       1.460   8.145  20.629  0.00  0.00    +0.000 A 
ATOM     12  C   UNL     1       0.981   9.447  20.637  0.00  0.00    +0.000 A 
ATOM     13  N   UNL     1       1.041  10.273  19.571  0.00  0.00    +0.000 NA
ATOM     14  C   UNL     1       1.602   9.765  18.453  0.00  0.00    +0.000 A 
ATOM     15  C   UNL     1       2.106   8.484  18.355  0.00  0.00    +0.000 A 
ATOM     16  F   UNL     1       2.613   8.079  17.178  0.00  0.00    +0.000 F 
ENDBRANCH   3  10
BRANCH   1  17
ATOM     17  N   UNL     1       5.878   4.788  19.161  0.00  0.00    +0.000 N 
ATOM     18  H   UNL     1       6.299   4.594  20.066  0.00  0.00    +0.000 HD
BRANCH  17  19
ATOM     19  C   UNL     1       6.559   5.864  18.440  0.00  0.00    +0.000 C 
BRANCH  19  20
ATOM     20  C   UNL     1       6.994   5.377  17.033  0.00  0.00    +0.000 C 
BRANCH  20  21
ATOM     21  N   UNL     1       7.361   3.939  17.108  0.00  0.00    +0.000 NA
ATOM     22  H   UNL     1       6.714   3.454  17.729  0.00  0.00    +0.000 HD
ATOM     23  H   UNL     1       8.284   3.841  17.530  0.00  0.00    +0.000 HD
ENDBRANCH  20  21
BRANCH  20  24
ATOM     24  C   UNL     1       5.907   5.628  15.950  0.00  0.00    +0.000 C 
BRANCH  24  25
ATOM     25  C   UNL     1       6.245   5.056  14.588  0.00  0.00    +0.000 A 
ATOM     26  C   UNL     1       5.443   4.071  13.996  0.00  0.00    +0.000 A 
ATOM     27  C   UNL     1       5.829   3.474  12.792  0.00  0.00    +0.000 A 
ATOM     28  C   UNL     1       7.006   3.868  12.157  0.00  0.00    +0.000 A 
ATOM     29  C   UNL     1       7.782   4.883  12.707  0.00  0.00    +0.000 A 
ATOM     30  C   UNL     1       7.402   5.475  13.913  0.00  0.00    +0.000 A 
ENDBRANCH  24  25
ENDBRANCH  20  24
ENDBRANCH  19  20
ENDBRANCH  17  19
ENDBRANCH   1  17
TORSDOF 7
ENDMDL
