MODEL 1
REMARK VINA RESULT:      -7.8      0.000      0.000
REMARK  Name = 
REMARK  6 active torsions:
REMARK  status: ('A' for Active; 'I' for Inactive)
REMARK    1  A    between atoms: S_2  and  N_4
REMARK    2  A    between atoms: S_2  and  C_10
REMARK    3  A    between atoms: C_14  and  N_15
REMARK    4  A    between atoms: N_15  and  C_16
REMARK    5  A    between atoms: C_16  and  C_17
REMARK    6  A    between atoms: C_17  and  C_18
REMARK                            x       y       z     vdW  Elec       q    Type
REMARK                         _______ _______ _______ _____ _____    ______ ____
ROOT
ATOM      1  C   UNL     1       5.600   5.256  17.516  0.00  0.00    +0.000 A 
ATOM      2  C   UNL     1       6.459   4.930  18.564  0.00  0.00    +0.000 A 
ATOM      3  C   UNL     1       7.447   5.846  18.953  0.00  0.00    +0.000 A 
ATOM      4 CL   UNL     1       8.491   5.401  20.259  0.00  0.00    +0.000 Cl
ATOM      5  C   UNL     1       7.580   7.102  18.320  0.00  0.00    +0.000 A 
ATOM      6  C   UNL     1       6.700   7.389  17.264  0.00  0.00    +0.000 A 
ATOM      7  C   UNL     1       5.716   6.479  16.876  0.00  0.00    +0.000 A 
ATOM      8  F   UNL     1       4.893   6.816  15.874  0.00  0.00    +0.000 F 
ENDROOT
BRANCH   1  10
ATOM      9  O   UNL     1       4.871   3.690  15.598  0.00  0.00    +0.000 OA
ATOM     10  S   UNL     1       4.427   4.083  16.917  0.00  0.00    +0.000 S 
ATOM     11  O   UNL     1       3.114   4.653  17.125  0.00  0.00    +0.000 OA
BRANCH  10  12
ATOM     12  N   UNL     1       4.598   2.799  18.011  0.00  0.00    +0.000 N 
ATOM     13  C   UNL     1       3.532   2.788  18.944  0.00  0.00    +0.000 A 
ATOM     14  N   UNL     1       3.735   3.279  20.140  0.00  0.00    +0.000 NA
ATOM     15  C   UNL     1       2.570   3.159  20.875  0.00  0.00    +0.000 A 
ATOM     16  C   UNL     1       1.539   2.484  20.254  0.00  0.00    +0.000 A 
ATOM     17  S   UNL     1       2.030   2.016  18.677  0.00  0.00    +0.000 S 
ATOM     18  H   UNL     1       5.435   3.029  18.553  0.00  0.00    +0.000 HD
ENDBRANCH  10  12
ENDBRANCH   1  10
BRANCH   5  19
ATOM     19  N   UNL     1       8.646   7.972  18.656  0.00  0.00    +0.000 N 
ATOM     20  H   UNL     1       8.900   7.848  19.639  0.00  0.00    +0.000 HD
BRANCH  19  21
ATOM     21  C   UNL     1       8.492   9.377  18.285  0.00  0.00    +0.000 C 
BRANCH  21  22
ATOM     22  C   UNL     1       9.303  10.290  19.211  0.00  0.00    +0.000 C 
BRANCH  22  23
ATOM     23  C   UNL     1       9.575  11.669  18.567  0.00  0.00    +0.000 C 
ATOM     24  C   UNL     1      10.861  11.653  17.725  0.00  0.00    +0.000 C 
ATOM     25  C   UNL     1      11.165  13.042  17.171  0.00  0.00    +0.000 C 
ATOM     26  O   UNL     1      11.254  14.000  18.224  0.00  0.00    +0.000 OA
ATOM     27  C   UNL     1      10.030  14.121  18.942  0.00  0.00    +0.000 C 
ATOM     28  C   UNL     1       9.664  12.799  19.605  0.00  0.00    +0.000 C 
ENDBRANCH  22  23
ENDBRANCH  21  22
ENDBRANCH  19  21
ENDBRANCH   5  19
TORSDOF 6
ENDMDL
MODEL 2
REMARK VINA RESULT:      -7.7      0.385      1.026
REMARK  Name = 
REMARK  6 active torsions:
REMARK  status: ('A' for Active; 'I' for Inactive)
REMARK    1  A    between atoms: S_2  and  N_4
REMARK    2  A    between atoms: S_2  and  C_10
REMARK    3  A    between atoms: C_14  and  N_15
REMARK    4  A    between atoms: N_15  and  C_16
REMARK    5  A    between atoms: C_16  and  C_17
REMARK    6  A    between atoms: C_17  and  C_18
REMARK                            x       y       z     vdW  Elec       q    Type
REMARK                         _______ _______ _______ _____ _____    ______ ____
ROOT
ATOM      1  C   UNL     1       5.671   5.417  17.573  0.00  0.00    +0.000 A 
ATOM      2  C   UNL     1       6.515   5.036  18.615  0.00  0.00    +0.000 A 
ATOM      3  C   UNL     1       7.535   5.906  19.024  0.00  0.00    +0.000 A 
ATOM      4 CL   UNL     1       8.560   5.396  20.321  0.00  0.00    +0.000 Cl
ATOM      5  C   UNL     1       7.717   7.169  18.417  0.00  0.00    +0.000 A 
ATOM      6  C   UNL     1       6.850   7.511  17.366  0.00  0.00    +0.000 A 
ATOM      7  C   UNL     1       5.833   6.647  16.959  0.00  0.00    +0.000 A 
ATOM      8  F   UNL     1       5.026   7.036  15.963  0.00  0.00    +0.000 F 
ENDROOT
BRANCH   1  10
ATOM      9  O   UNL     1       4.849   3.975  15.595  0.00  0.00    +0.000 OA
ATOM     10  S   UNL     1       4.455   4.301  16.948  0.00  0.00    +0.000 S 
ATOM     11  O   UNL     1       3.162   4.882  17.231  0.00  0.00    +0.000 OA
BRANCH  10  12
ATOM     12  N   UNL     1       4.636   2.954  17.963  0.00  0.00    +0.000 N 
ATOM     13  C   UNL     1       3.558   2.867  18.879  0.00  0.00    +0.000 A 
ATOM     14  N   UNL     1       3.738   3.286  20.105  0.00  0.00    +0.000 NA
ATOM     15  C   UNL     1       2.566   3.101  20.817  0.00  0.00    +0.000 A 
ATOM     16  C   UNL     1       1.555   2.448  20.140  0.00  0.00    +0.000 A 
ATOM     17  S   UNL     1       2.074   2.088  18.544  0.00  0.00    +0.000 S 
ATOM     18  H   UNL     1       5.462   3.164  18.530  0.00  0.00    +0.000 HD
ENDBRANCH  10  12
ENDBRANCH   1  10
BRANCH   5  19
ATOM     19  N   UNL     1       8.815   7.991  18.772  0.00  0.00    +0.000 N 
ATOM     20  H   UNL     1       9.103   7.791  19.732  0.00  0.00    +0.000 HD
BRANCH  19  21
ATOM     21  C   UNL     1       8.677   9.423  18.510  0.00  0.00    +0.000 C 
BRANCH  21  22
ATOM     22  C   UNL     1       9.209  10.257  19.681  0.00  0.00    +0.000 C 
BRANCH  22  23
ATOM     23  C   UNL     1      10.005  11.490  19.196  0.00  0.00    +0.000 C 
ATOM     24  C   UNL     1       9.200  12.786  19.379  0.00  0.00    +0.000 C 
ATOM     25  C   UNL     1       9.960  13.983  18.814  0.00  0.00    +0.000 C 
ATOM     26  O   UNL     1      10.289  13.773  17.441  0.00  0.00    +0.000 OA
ATOM     27  C   UNL     1      11.139  12.645  17.262  0.00  0.00    +0.000 C 
ATOM     28  C   UNL     1      10.446  11.371  17.729  0.00  0.00    +0.000 C 
ENDBRANCH  22  23
ENDBRANCH  21  22
ENDBRANCH  19  21
ENDBRANCH   5  19
TORSDOF 6
ENDMDL
MODEL 3
REMARK VINA RESULT:      -7.6      1.250      1.372
REMARK  Name = 
REMARK  6 active torsions:
REMARK  status: ('A' for Active; 'I' for Inactive)
REMARK    1  A    between atoms: S_2  and  N_4
REMARK    2  A    between atoms: S_2  and  C_10
REMARK    3  A    between atoms: C_14  and  N_15
REMARK    4  A    between atoms: N_15  and  C_16
REMARK    5  A    between atoms: C_16  and  C_17
REMARK    6  A    between atoms: C_17  and  C_18
REMARK                            x       y       z     vdW  Elec       q    Type
REMARK                         _______ _______ _______ _____ _____    ______ ____
ROOT
ATOM      1  C   UNL     1       5.465   5.179  17.698  0.00  0.00    +0.000 A 
ATOM      2  C   UNL     1       6.374   4.888  18.714  0.00  0.00    +0.000 A 
ATOM      3  C   UNL     1       7.382   5.813  19.019  0.00  0.00    +0.000 A 
ATOM      4 CL   UNL     1       8.488   5.413  20.288  0.00  0.00    +0.000 Cl
ATOM      5  C   UNL     1       7.488   7.043  18.333  0.00  0.00    +0.000 A 
ATOM      6  C   UNL     1       6.559   7.295  17.311  0.00  0.00    +0.000 A 
ATOM      7  C   UNL     1       5.553   6.376  17.006  0.00  0.00    +0.000 A 
ATOM      8  F   UNL     1       4.684   6.679  16.034  0.00  0.00    +0.000 F 
ENDROOT
BRANCH   1  10
ATOM      9  O   UNL     1       4.427   2.844  18.068  0.00  0.00    +0.000 OA
ATOM     10  S   UNL     1       4.260   3.990  17.202  0.00  0.00    +0.000 S 
ATOM     11  O   UNL     1       4.359   3.862  15.764  0.00  0.00    +0.000 OA
BRANCH  10  12
ATOM     12  N   UNL     1       2.800   4.785  17.537  0.00  0.00    +0.000 N 
ATOM     13  C   UNL     1       2.218   4.286  18.730  0.00  0.00    +0.000 A 
ATOM     14  N   UNL     1       1.240   3.423  18.640  0.00  0.00    +0.000 NA
ATOM     15  C   UNL     1       0.827   3.082  19.915  0.00  0.00    +0.000 A 
ATOM     16  C   UNL     1       1.434   3.775  20.943  0.00  0.00    +0.000 A 
ATOM     17  S   UNL     1       2.591   4.865  20.294  0.00  0.00    +0.000 S 
ATOM     18  H   UNL     1       2.169   4.500  16.784  0.00  0.00    +0.000 HD
ENDBRANCH  10  12
ENDBRANCH   1  10
BRANCH   5  19
ATOM     19  N   UNL     1       8.573   7.920  18.582  0.00  0.00    +0.000 N 
ATOM     20  H   UNL     1       8.875   7.832  19.555  0.00  0.00    +0.000 HD
BRANCH  19  21
ATOM     21  C   UNL     1       8.404   9.311  18.167  0.00  0.00    +0.000 C 
BRANCH  21  22
ATOM     22  C   UNL     1       9.151  10.267  19.105  0.00  0.00    +0.000 C 
BRANCH  22  23
ATOM     23  C   UNL     1       9.450  11.623  18.427  0.00  0.00    +0.000 C 
ATOM     24  C   UNL     1      10.834  11.624  17.757  0.00  0.00    +0.000 C 
ATOM     25  C   UNL     1      11.153  12.996  17.172  0.00  0.00    +0.000 C 
ATOM     26  O   UNL     1      11.069  14.008  18.173  0.00  0.00    +0.000 OA
ATOM     27  C   UNL     1       9.758  14.109  18.723  0.00  0.00    +0.000 C 
ATOM     28  C   UNL     1       9.361  12.806  19.404  0.00  0.00    +0.000 C 
ENDBRANCH  22  23
ENDBRANCH  21  22
ENDBRANCH  19  21
ENDBRANCH   5  19
TORSDOF 6
ENDMDL
MODEL 4
REMARK VINA RESULT:      -7.5      6.648      8.554
REMARK  Name = 
REMARK  6 active torsions:
REMARK  status: ('A' for Active; 'I' for Inactive)
REMARK    1  A    between atoms: S_2  and  N_4
REMARK    2  A    between atoms: S_2  and  C_10
REMARK    3  A    between atoms: C_14  and  N_15
REMARK    4  A    between atoms: N_15  and  C_16
REMARK    5  A    between atoms: C_16  and  C_17
REMARK    6  A    between atoms: C_17  and  C_18
REMARK                            x       y       z     vdW  Elec       q    Type
REMARK                         _______ _______ _______ _____ _____    ______ ____
ROOT
ATOM      1  C   UNL     1       2.093   7.842  19.150  0.00  0.00    +0.000 A 
ATOM      2  C   UNL     1       1.628   7.956  20.460  0.00  0.00    +0.000 A 
ATOM      3  C   UNL     1       1.013   9.147  20.868  0.00  0.00    +0.000 A 
ATOM      4 CL   UNL     1       0.450   9.246  22.501  0.00  0.00    +0.000 Cl
ATOM      5  C   UNL     1       0.833  10.229  19.978  0.00  0.00    +0.000 A 
ATOM      6  C   UNL     1       1.322  10.077  18.670  0.00  0.00    +0.000 A 
ATOM      7  C   UNL     1       1.935   8.892  18.261  0.00  0.00    +0.000 A 
ATOM      8  F   UNL     1       2.364   8.798  16.996  0.00  0.00    +0.000 F 
ENDROOT
BRANCH   1  10
ATOM      9  O   UNL     1       4.180   6.879  17.973  0.00  0.00    +0.000 OA
ATOM     10  S   UNL     1       2.982   6.408  18.633  0.00  0.00    +0.000 S 
ATOM     11  O   UNL     1       2.040   5.550  17.949  0.00  0.00    +0.000 OA
BRANCH  10  12
ATOM     12  N   UNL     1       3.366   5.663  20.107  0.00  0.00    +0.000 N 
ATOM     13  C   UNL     1       2.717   4.408  20.220  0.00  0.00    +0.000 A 
ATOM     14  N   UNL     1       1.631   4.325  20.945  0.00  0.00    +0.000 NA
ATOM     15  C   UNL     1       1.176   3.019  20.918  0.00  0.00    +0.000 A 
ATOM     16  C   UNL     1       1.988   2.118  20.258  0.00  0.00    +0.000 A 
ATOM     17  S   UNL     1       3.349   2.941  19.612  0.00  0.00    +0.000 S 
ATOM     18  H   UNL     1       2.939   6.259  20.820  0.00  0.00    +0.000 HD
ENDBRANCH  10  12
ENDBRANCH   1  10
BRANCH   5  19
ATOM     19  N   UNL     1       0.303  11.461  20.434  0.00  0.00    +0.000 N 
ATOM     20  H   UNL     1       0.301  11.482  21.456  0.00  0.00    +0.000 HD
BRANCH  19  21
ATOM     21  C   UNL     1      -0.972  11.883  19.858  0.00  0.00    +0.000 C 
BRANCH  21  22
ATOM     22  C   UNL     1      -1.701  10.708  19.197  0.00  0.00    +0.000 C 
BRANCH  22  23
ATOM     23  C   UNL     1      -2.349  11.113  17.854  0.00  0.00    +0.000 C 
ATOM     24  C   UNL     1      -3.864  11.327  18.002  0.00  0.00    +0.000 C 
ATOM     25  C   UNL     1      -4.504  11.637  16.652  0.00  0.00    +0.000 C 
ATOM     26  O   UNL     1      -4.222  10.606  15.707  0.00  0.00    +0.000 OA
ATOM     27  C   UNL     1      -2.826  10.474  15.461  0.00  0.00    +0.000 C 
ATOM     28  C   UNL     1      -2.090  10.089  16.738  0.00  0.00    +0.000 C 
ENDBRANCH  22  23
ENDBRANCH  21  22
ENDBRANCH  19  21
ENDBRANCH   5  19
TORSDOF 6
ENDMDL
MODEL 5
REMARK VINA RESULT:      -7.4      6.494      8.697
REMARK  Name = 
REMARK  6 active torsions:
REMARK  status: ('A' for Active; 'I' for Inactive)
REMARK    1  A    between atoms: S_2  and  N_4
REMARK    2  A    between atoms: S_2  and  C_10
REMARK    3  A    between atoms: C_14  and  N_15
REMARK    4  A    between atoms: N_15  and  C_16
REMARK    5  A    between atoms: C_16  and  C_17
REMARK    6  A    between atoms: C_17  and  C_18
REMARK                            x       y       z     vdW  Elec       q    Type
REMARK                         _______ _______ _______ _____ _____    ______ ____
ROOT
ATOM      1  C   UNL     1       2.291   7.049  19.396  0.00  0.00    +0.000 A 
ATOM      2  C   UNL     1       1.692   7.348  20.618  0.00  0.00    +0.000 A 
ATOM      3  C   UNL     1       1.129   8.616  20.814  0.00  0.00    +0.000 A 
ATOM      4 CL   UNL     1       0.394   8.946  22.346  0.00  0.00    +0.000 Cl
ATOM      5  C   UNL     1       1.138   9.595  19.795  0.00  0.00    +0.000 A 
ATOM      6  C   UNL     1       1.758   9.257  18.582  0.00  0.00    +0.000 A 
ATOM      7  C   UNL     1       2.318   7.994  18.383  0.00  0.00    +0.000 A 
ATOM      8  F   UNL     1       2.880   7.723  17.198  0.00  0.00    +0.000 F 
ENDROOT
BRANCH   1  10
ATOM      9  O   UNL     1       3.012   5.200  17.743  0.00  0.00    +0.000 OA
ATOM     10  S   UNL     1       3.118   5.510  19.152  0.00  0.00    +0.000 S 
ATOM     11  O   UNL     1       2.619   4.597  20.157  0.00  0.00    +0.000 OA
BRANCH  10  12
ATOM     12  N   UNL     1       4.721   5.884  19.562  0.00  0.00    +0.000 N 
ATOM     13  C   UNL     1       5.593   5.616  18.478  0.00  0.00    +0.000 A 
ATOM     14  N   UNL     1       6.293   4.511  18.492  0.00  0.00    +0.000 NA
ATOM     15  C   UNL     1       7.071   4.462  17.349  0.00  0.00    +0.000 A 
ATOM     16  C   UNL     1       7.021   5.583  16.545  0.00  0.00    +0.000 A 
ATOM     17  S   UNL     1       5.931   6.724  17.221  0.00  0.00    +0.000 S 
ATOM     18  H   UNL     1       4.969   5.208  20.289  0.00  0.00    +0.000 HD
ENDBRANCH  10  12
ENDBRANCH   1  10
BRANCH   5  19
ATOM     19  N   UNL     1       0.658  10.904  20.045  0.00  0.00    +0.000 N 
ATOM     20  H   UNL     1       0.193  10.937  20.955  0.00  0.00    +0.000 HD
BRANCH  19  21
ATOM     21  C   UNL     1      -0.132  11.529  18.985  0.00  0.00    +0.000 C 
BRANCH  21  22
ATOM     22  C   UNL     1      -1.605  11.112  19.067  0.00  0.00    +0.000 C 
BRANCH  22  23
ATOM     23  C   UNL     1      -2.352  11.371  17.740  0.00  0.00    +0.000 C 
ATOM     24  C   UNL     1      -3.869  11.485  17.962  0.00  0.00    +0.000 C 
ATOM     25  C   UNL     1      -4.602  11.650  16.634  0.00  0.00    +0.000 C 
ATOM     26  O   UNL     1      -4.293  10.577  15.746  0.00  0.00    +0.000 OA
ATOM     27  C   UNL     1      -2.906  10.528  15.428  0.00  0.00    +0.000 C 
ATOM     28  C   UNL     1      -2.076  10.290  16.683  0.00  0.00    +0.000 C 
ENDBRANCH  22  23
ENDBRANCH  21  22
ENDBRANCH  19  21
ENDBRANCH   5  19
TORSDOF 6
ENDMDL
MODEL 6
REMARK VINA RESULT:      -7.4      5.163      8.201
REMARK  Name = 
REMARK  6 active torsions:
REMARK  status: ('A' for Active; 'I' for Inactive)
REMARK    1  A    between atoms: S_2  and  N_4
REMARK    2  A    between atoms: S_2  and  C_10
REMARK    3  A    between atoms: C_14  and  N_15
REMARK    4  A    between atoms: N_15  and  C_16
REMARK    5  A    between atoms: C_16  and  C_17
REMARK    6  A    between atoms: C_17  and  C_18
REMARK                            x       y       z     vdW  Elec       q    Type
REMARK                         _______ _______ _______ _____ _____    ______ ____
ROOT
ATOM      1  C   UNL     1       5.064   6.221  17.467  0.00  0.00    +0.000 A 
ATOM      2  C   UNL     1       3.926   7.026  17.446  0.00  0.00    +0.000 A 
ATOM      3  C   UNL     1       3.032   6.977  18.524  0.00  0.00    +0.000 A 
ATOM      4 CL   UNL     1       1.633   7.993  18.458  0.00  0.00    +0.000 Cl
ATOM      5  C   UNL     1       3.265   6.145  19.641  0.00  0.00    +0.000 A 
ATOM      6  C   UNL     1       4.419   5.344  19.620  0.00  0.00    +0.000 A 
ATOM      7  C   UNL     1       5.311   5.392  18.548  0.00  0.00    +0.000 A 
ATOM      8  F   UNL     1       6.404   4.619  18.593  0.00  0.00    +0.000 F 
ENDROOT
BRANCH   1  10
ATOM      9  O   UNL     1       7.417   6.700  16.517  0.00  0.00    +0.000 OA
ATOM     10  S   UNL     1       6.149   6.161  16.077  0.00  0.00    +0.000 S 
ATOM     11  O   UNL     1       5.438   6.742  14.959  0.00  0.00    +0.000 OA
BRANCH  10  12
ATOM     12  N   UNL     1       6.278   4.496  15.782  0.00  0.00    +0.000 N 
ATOM     13  C   UNL     1       6.175   4.221  14.396  0.00  0.00    +0.000 A 
ATOM     14  N   UNL     1       5.035   3.788  13.923  0.00  0.00    +0.000 NA
ATOM     15  C   UNL     1       5.166   3.583  12.562  0.00  0.00    +0.000 A 
ATOM     16  C   UNL     1       6.435   3.765  12.051  0.00  0.00    +0.000 A 
ATOM     17  S   UNL     1       7.495   4.250  13.311  0.00  0.00    +0.000 S 
ATOM     18  H   UNL     1       5.440   4.091  16.206  0.00  0.00    +0.000 HD
ENDBRANCH  10  12
ENDBRANCH   1  10
BRANCH   5  19
ATOM     19  N   UNL     1       2.301   6.031  20.673  0.00  0.00    +0.000 N 
ATOM     20  H   UNL     1       2.540   6.659  21.444  0.00  0.00    +0.000 HD
BRANCH  19  21
ATOM     21  C   UNL     1       1.977   4.679  21.125  0.00  0.00    +0.000 C 
BRANCH  21  22
ATOM     22  C   UNL     1       0.925   4.027  20.222  0.00  0.00    +0.000 C 
BRANCH  22  23
ATOM     23  C   UNL     1       1.560   3.039  19.217  0.00  0.00    +0.000 C 
ATOM     24  C   UNL     1       2.838   2.402  19.786  0.00  0.00    +0.000 C 
ATOM     25  C   UNL     1       3.502   1.499  18.751  0.00  0.00    +0.000 C 
ATOM     26  O   UNL     1       3.779   2.220  17.551  0.00  0.00    +0.000 OA
ATOM     27  C   UNL     1       2.592   2.715  16.939  0.00  0.00    +0.000 C 
ATOM     28  C   UNL     1       1.880   3.693  17.865  0.00  0.00    +0.000 C 
ENDBRANCH  22  23
ENDBRANCH  21  22
ENDBRANCH  19  21
ENDBRANCH   5  19
TORSDOF 6
ENDMDL
MODEL 7
REMARK VINA RESULT:      -7.3      5.408      7.508
REMARK  Name = 
REMARK  6 active torsions:
REMARK  status: ('A' for Active; 'I' for Inactive)
REMARK    1  A    between atoms: S_2  and  N_4
REMARK    2  A    between atoms: S_2  and  C_10
REMARK    3  A    between atoms: C_14  and  N_15
REMARK    4  A    between atoms: N_15  and  C_16
REMARK    5  A    between atoms: C_16  and  C_17
REMARK    6  A    between atoms: C_17  and  C_18
REMARK                            x       y       z     vdW  Elec       q    Type
REMARK                         _______ _______ _______ _____ _____    ______ ____
ROOT
ATOM      1  C   UNL     1       5.805   4.633  17.763  0.00  0.00    +0.000 A 
ATOM      2  C   UNL     1       4.746   3.907  17.217  0.00  0.00    +0.000 A 
ATOM      3  C   UNL     1       3.792   3.339  18.072  0.00  0.00    +0.000 A 
ATOM      4 CL   UNL     1       2.494   2.448  17.354  0.00  0.00    +0.000 Cl
ATOM      5  C   UNL     1       3.866   3.499  19.474  0.00  0.00    +0.000 A 
ATOM      6  C   UNL     1       4.951   4.230  19.984  0.00  0.00    +0.000 A 
ATOM      7  C   UNL     1       5.903   4.798  19.135  0.00  0.00    +0.000 A 
ATOM      8  F   UNL     1       6.905   5.500  19.678  0.00  0.00    +0.000 F 
ENDROOT
BRANCH   1  10
ATOM      9  O   UNL     1       7.914   4.127  16.361  0.00  0.00    +0.000 OA
ATOM     10  S   UNL     1       7.092   5.258  16.731  0.00  0.00    +0.000 S 
ATOM     11  O   UNL     1       7.659   6.404  17.409  0.00  0.00    +0.000 OA
BRANCH  10  12
ATOM     12  N   UNL     1       6.237   5.840  15.388  0.00  0.00    +0.000 N 
ATOM     13  C   UNL     1       6.553   5.091  14.227  0.00  0.00    +0.000 A 
ATOM     14  N   UNL     1       7.406   5.589  13.369  0.00  0.00    +0.000 NA
ATOM     15  C   UNL     1       7.557   4.698  12.322  0.00  0.00    +0.000 A 
ATOM     16  C   UNL     1       6.735   3.590  12.358  0.00  0.00    +0.000 A 
ATOM     17  S   UNL     1       5.764   3.643  13.774  0.00  0.00    +0.000 S 
ATOM     18  H   UNL     1       6.616   6.776  15.223  0.00  0.00    +0.000 HD
ENDBRANCH  10  12
ENDBRANCH   1  10
BRANCH   5  19
ATOM     19  N   UNL     1       2.953   2.833  20.327  0.00  0.00    +0.000 N 
ATOM     20  H   UNL     1       2.363   2.201  19.781  0.00  0.00    +0.000 HD
BRANCH  19  21
ATOM     21  C   UNL     1       2.183   3.668  21.249  0.00  0.00    +0.000 C 
BRANCH  21  22
ATOM     22  C   UNL     1       1.222   4.592  20.493  0.00  0.00    +0.000 C 
BRANCH  22  23
ATOM     23  C   UNL     1       1.814   6.006  20.298  0.00  0.00    +0.000 C 
ATOM     24  C   UNL     1       0.978   7.070  21.026  0.00  0.00    +0.000 C 
ATOM     25  C   UNL     1       1.521   8.470  20.751  0.00  0.00    +0.000 C 
ATOM     26  O   UNL     1       1.572   8.728  19.349  0.00  0.00    +0.000 OA
ATOM     27  C   UNL     1       2.441   7.827  18.670  0.00  0.00    +0.000 C 
ATOM     28  C   UNL     1       1.948   6.393  18.818  0.00  0.00    +0.000 C 
ENDBRANCH  22  23
ENDBRANCH  21  22
ENDBRANCH  19  21
ENDBRANCH   5  19
TORSDOF 6
ENDMDL
MODEL 8
REMARK VINA RESULT:      -7.2      6.316      8.577
REMARK  Name = 
REMARK  6 active torsions:
REMARK  status: ('A' for Active; 'I' for Inactive)
REMARK    1  A    between atoms: S_2  and  N_4
REMARK    2  A    between atoms: S_2  and  C_10
REMARK    3  A    between atoms: C_14  and  N_15
REMARK    4  A    between atoms: N_15  and  C_16
REMARK    5  A    between atoms: C_16  and  C_17
REMARK    6  A    between atoms: C_17  and  C_18
REMARK                            x       y       z     vdW  Elec       q    Type
REMARK                         _______ _______ _______ _____ _____    ______ ____
ROOT
ATOM      1  C   UNL     1       2.446   6.816  19.046  0.00  0.00    +0.000 A 
ATOM      2  C   UNL     1       2.465   8.010  18.326  0.00  0.00    +0.000 A 
ATOM      3  C   UNL     1       1.861   9.150  18.873  0.00  0.00    +0.000 A 
ATOM      4 CL   UNL     1       1.909  10.611  17.948  0.00  0.00    +0.000 Cl
ATOM      5  C   UNL     1       1.249   9.124  20.146  0.00  0.00    +0.000 A 
ATOM      6  C   UNL     1       1.244   7.900  20.835  0.00  0.00    +0.000 A 
ATOM      7  C   UNL     1       1.846   6.764  20.293  0.00  0.00    +0.000 A 
ATOM      8  F   UNL     1       1.826   5.629  21.005  0.00  0.00    +0.000 F 
ENDROOT
BRANCH   1  10
ATOM      9  O   UNL     1       1.951   4.596  17.822  0.00  0.00    +0.000 OA
ATOM     10  S   UNL     1       3.084   5.330  18.340  0.00  0.00    +0.000 S 
ATOM     11  O   UNL     1       3.971   4.743  19.320  0.00  0.00    +0.000 OA
BRANCH  10  12
ATOM     12  N   UNL     1       4.049   5.911  17.072  0.00  0.00    +0.000 N 
ATOM     13  C   UNL     1       5.405   5.544  17.262  0.00  0.00    +0.000 A 
ATOM     14  N   UNL     1       6.237   6.433  17.740  0.00  0.00    +0.000 NA
ATOM     15  C   UNL     1       7.493   5.862  17.836  0.00  0.00    +0.000 A 
ATOM     16  C   UNL     1       7.607   4.584  17.329  0.00  0.00    +0.000 A 
ATOM     17  S   UNL     1       6.079   4.060  16.748  0.00  0.00    +0.000 S 
ATOM     18  H   UNL     1       4.023   6.929  17.170  0.00  0.00    +0.000 HD
ENDBRANCH  10  12
ENDBRANCH   1  10
BRANCH   5  19
ATOM     19  N   UNL     1       0.555  10.256  20.639  0.00  0.00    +0.000 N 
ATOM     20  H   UNL     1       0.739  10.370  21.638  0.00  0.00    +0.000 HD
BRANCH  19  21
ATOM     21  C   UNL     1      -0.866  10.351  20.312  0.00  0.00    +0.000 C 
BRANCH  21  22
ATOM     22  C   UNL     1      -1.203  11.706  19.679  0.00  0.00    +0.000 C 
BRANCH  22  23
ATOM     23  C   UNL     1      -1.914  11.545  18.316  0.00  0.00    +0.000 C 
ATOM     24  C   UNL     1      -3.434  11.722  18.450  0.00  0.00    +0.000 C 
ATOM     25  C   UNL     1      -4.131  11.470  17.115  0.00  0.00    +0.000 C 
ATOM     26  O   UNL     1      -3.808  10.176  16.610  0.00  0.00    +0.000 OA
ATOM     27  C   UNL     1      -2.413  10.032  16.360  0.00  0.00    +0.000 C 
ATOM     28  C   UNL     1      -1.619  10.191  17.650  0.00  0.00    +0.000 C 
ENDBRANCH  22  23
ENDBRANCH  21  22
ENDBRANCH  19  21
ENDBRANCH   5  19
TORSDOF 6
ENDMDL
MODEL 9
REMARK VINA RESULT:      -7.2      6.250      8.403
REMARK  Name = 
REMARK  6 active torsions:
REMARK  status: ('A' for Active; 'I' for Inactive)
REMARK    1  A    between atoms: S_2  and  N_4
REMARK    2  A    between atoms: S_2  and  C_10
REMARK    3  A    between atoms: C_14  and  N_15
REMARK    4  A    between atoms: N_15  and  C_16
REMARK    5  A    between atoms: C_16  and  C_17
REMARK    6  A    between atoms: C_17  and  C_18
REMARK                            x       y       z     vdW  Elec       q    Type
REMARK                         _______ _______ _______ _____ _____    ______ ____
ROOT
ATOM      1  C   UNL     1       1.096   9.218  20.059  0.00  0.00    +0.000 A 
ATOM      2  C   UNL     1       1.788   9.028  18.864  0.00  0.00    +0.000 A 
ATOM      3  C   UNL     1       2.445   7.812  18.638  0.00  0.00    +0.000 A 
ATOM      4 CL   UNL     1       3.291   7.617  17.141  0.00  0.00    +0.000 Cl
ATOM      5  C   UNL     1       2.408   6.764  19.585  0.00  0.00    +0.000 A 
ATOM      6  C   UNL     1       1.707   6.998  20.779  0.00  0.00    +0.000 A 
ATOM      7  C   UNL     1       1.051   8.208  21.006  0.00  0.00    +0.000 A 
ATOM      8  F   UNL     1       0.383   8.367  22.156  0.00  0.00    +0.000 F 
ENDROOT
BRANCH   1  10
ATOM      9  O   UNL     1       1.371  11.561  21.109  0.00  0.00    +0.000 OA
ATOM     10  S   UNL     1       0.360  10.777  20.435  0.00  0.00    +0.000 S 
ATOM     11  O   UNL     1      -0.915  10.504  21.060  0.00  0.00    +0.000 OA
BRANCH  10  12
ATOM     12  N   UNL     1       0.041  11.413  18.895  0.00  0.00    +0.000 N 
ATOM     13  C   UNL     1      -1.259  11.052  18.461  0.00  0.00    +0.000 A 
ATOM     14  N   UNL     1      -1.389  10.062  17.616  0.00  0.00    +0.000 NA
ATOM     15  C   UNL     1      -2.731   9.892  17.331  0.00  0.00    +0.000 A 
ATOM     16  C   UNL     1      -3.582  10.826  17.887  0.00  0.00    +0.000 A 
ATOM     17  S   UNL     1      -2.675  11.935  18.833  0.00  0.00    +0.000 S 
ATOM     18  H   UNL     1       0.685  10.921  18.271  0.00  0.00    +0.000 HD
ENDBRANCH  10  12
ENDBRANCH   1  10
BRANCH   5  19
ATOM     19  N   UNL     1       3.162   5.581  19.386  0.00  0.00    +0.000 N 
ATOM     20  H   UNL     1       4.156   5.811  19.312  0.00  0.00    +0.000 HD
BRANCH  19  21
ATOM     21  C   UNL     1       2.710   4.682  18.326  0.00  0.00    +0.000 C 
BRANCH  21  22
ATOM     22  C   UNL     1       3.829   3.730  17.888  0.00  0.00    +0.000 C 
BRANCH  22  23
ATOM     23  C   UNL     1       5.063   4.496  17.357  0.00  0.00    +0.000 C 
ATOM     24  C   UNL     1       5.567   3.900  16.033  0.00  0.00    +0.000 C 
ATOM     25  C   UNL     1       6.837   4.607  15.569  0.00  0.00    +0.000 C 
ATOM     26  O   UNL     1       7.848   4.550  16.574  0.00  0.00    +0.000 OA
ATOM     27  C   UNL     1       7.447   5.206  17.773  0.00  0.00    +0.000 C 
ATOM     28  C   UNL     1       6.219   4.530  18.369  0.00  0.00    +0.000 C 
ENDBRANCH  22  23
ENDBRANCH  21  22
ENDBRANCH  19  21
ENDBRANCH   5  19
TORSDOF 6
ENDMDL
