MODEL 1
REMARK VINA RESULT:      -7.9      0.000      0.000
REMARK  Name = 
REMARK  10 active torsions:
REMARK  status: ('A' for Active; 'I' for Inactive)
REMARK    1  A    between atoms: C_1  and  N_2
REMARK    2  A    between atoms: N_2  and  C_3
REMARK    3  A    between atoms: N_2  and  C_4
REMARK    4  A    between atoms: C_7  and  C_8
REMARK    5  A    between atoms: C_10  and  C_11
REMARK    6  A    between atoms: C_14  and  N_15
REMARK    7  A    between atoms: C_19  and  C_20
REMARK    8  A    between atoms: C_23  and  N_24
REMARK    9  A    between atoms: N_24  and  C_25
REMARK   10  A    between atoms: N_24  and  C_26
REMARK                            x       y       z     vdW  Elec       q    Type
REMARK                         _______ _______ _______ _____ _____    ______ ____
ROOT
ATOM      1  C   UNL     1       0.962  10.334  18.772  0.00  0.00    +0.000 A 
ATOM      2  C   UNL     1      -0.431  10.434  18.539  0.00  0.00    +0.000 A 
ATOM      3  C   UNL     1      -1.175  11.617  18.375  0.00  0.00    +0.000 A 
ATOM      4  S   UNL     1      -0.404  13.206  18.475  0.00  0.00    +0.000 S 
ATOM      5  C   UNL     1       1.304  12.836  18.806  0.00  0.00    +0.000 A 
ATOM      6  C   UNL     1       1.759  11.507  18.889  0.00  0.00    +0.000 A 
ENDROOT
BRANCH   1  10
ATOM      7  C   UNL     1       2.853   6.405  19.182  0.00  0.00    +0.000 A 
ATOM      8  C   UNL     1       2.115   6.991  20.218  0.00  0.00    +0.000 A 
ATOM      9  C   UNL     1       1.486   8.238  20.078  0.00  0.00    +0.000 A 
ATOM     10  C   UNL     1       1.590   8.991  18.900  0.00  0.00    +0.000 A 
ATOM     11  C   UNL     1       2.332   8.414  17.861  0.00  0.00    +0.000 A 
ATOM     12  C   UNL     1       2.932   7.152  17.997  0.00  0.00    +0.000 A 
BRANCH   7  14
ATOM     13  C   UNL     1       4.907   5.021  19.164  0.00  0.00    +0.000 C 
ATOM     14  N   UNL     1       3.466   5.167  19.318  0.00  0.00    +0.000 N 
ATOM     15  C   UNL     1       2.688   3.976  19.633  0.00  0.00    +0.000 C 
ENDBRANCH   7  14
ENDBRANCH   1  10
BRANCH   3  16
ATOM     16  C   UNL     1      -2.629  11.636  18.150  0.00  0.00    +0.000 A 
ATOM     17  C   UNL     1      -3.517  12.048  19.154  0.00  0.00    +0.000 A 
ATOM     18  C   UNL     1      -4.898  12.084  18.932  0.00  0.00    +0.000 A 
ATOM     19  C   UNL     1      -5.428  11.767  17.681  0.00  0.00    +0.000 A 
ATOM     20  C   UNL     1      -4.567  11.302  16.693  0.00  0.00    +0.000 A 
ATOM     21  C   UNL     1      -3.190  11.246  16.919  0.00  0.00    +0.000 A 
BRANCH  19  22
ATOM     22  N   UNL     1      -6.813  11.696  17.496  0.00  0.00    +0.000 N 
ATOM     23  H   UNL     1      -7.303  12.536  17.784  0.00  0.00    +0.000 HD
ATOM     24  H   UNL     1      -7.076  11.399  16.561  0.00  0.00    +0.000 HD
ENDBRANCH  19  22
ENDBRANCH   3  16
BRANCH   5  25
ATOM     25  C   UNL     1       2.183  14.017  18.889  0.00  0.00    +0.000 A 
ATOM     26  C   UNL     1       3.406  14.069  18.206  0.00  0.00    +0.000 A 
ATOM     27  C   UNL     1       4.318  15.112  18.402  0.00  0.00    +0.000 A 
ATOM     28  C   UNL     1       4.045  16.200  19.238  0.00  0.00    +0.000 A 
ATOM     29  C   UNL     1       2.786  16.181  19.856  0.00  0.00    +0.000 A 
ATOM     30  C   UNL     1       1.881  15.115  19.699  0.00  0.00    +0.000 A 
BRANCH  28  31
ATOM     31  N   UNL     1       4.999  17.178  19.488  0.00  0.00    +0.000 N 
ATOM     32  C   UNL     1       4.903  18.039  20.668  0.00  0.00    +0.000 C 
ATOM     33  C   UNL     1       6.333  17.118  18.900  0.00  0.00    +0.000 C 
ENDBRANCH  28  31
ENDBRANCH   5  25
TORSDOF 6
ENDMDL
MODEL 2
REMARK VINA RESULT:      -7.8      0.112      1.371
REMARK  Name = 
REMARK  10 active torsions:
REMARK  status: ('A' for Active; 'I' for Inactive)
REMARK    1  A    between atoms: C_1  and  N_2
REMARK    2  A    between atoms: N_2  and  C_3
REMARK    3  A    between atoms: N_2  and  C_4
REMARK    4  A    between atoms: C_7  and  C_8
REMARK    5  A    between atoms: C_10  and  C_11
REMARK    6  A    between atoms: C_14  and  N_15
REMARK    7  A    between atoms: C_19  and  C_20
REMARK    8  A    between atoms: C_23  and  N_24
REMARK    9  A    between atoms: N_24  and  C_25
REMARK   10  A    between atoms: N_24  and  C_26
REMARK                            x       y       z     vdW  Elec       q    Type
REMARK                         _______ _______ _______ _____ _____    ______ ____
ROOT
ATOM      1  C   UNL     1       0.997  10.324  18.773  0.00  0.00    +0.000 A 
ATOM      2  C   UNL     1      -0.395  10.423  18.535  0.00  0.00    +0.000 A 
ATOM      3  C   UNL     1      -1.140  11.605  18.372  0.00  0.00    +0.000 A 
ATOM      4  S   UNL     1      -0.371  13.195  18.482  0.00  0.00    +0.000 S 
ATOM      5  C   UNL     1       1.336  12.825  18.819  0.00  0.00    +0.000 A 
ATOM      6  C   UNL     1       1.792  11.497  18.899  0.00  0.00    +0.000 A 
ENDROOT
BRANCH   1  10
ATOM      7  C   UNL     1       2.804   6.349  19.114  0.00  0.00    +0.000 A 
ATOM      8  C   UNL     1       2.893   7.112  17.943  0.00  0.00    +0.000 A 
ATOM      9  C   UNL     1       2.338   8.397  17.842  0.00  0.00    +0.000 A 
ATOM     10  C   UNL     1       1.626   8.980  18.900  0.00  0.00    +0.000 A 
ATOM     11  C   UNL     1       1.527   8.221  20.073  0.00  0.00    +0.000 A 
ATOM     12  C   UNL     1       2.112   6.948  20.177  0.00  0.00    +0.000 A 
BRANCH   7  14
ATOM     13  C   UNL     1       2.522   3.896  19.318  0.00  0.00    +0.000 C 
ATOM     14  N   UNL     1       3.362   5.082  19.216  0.00  0.00    +0.000 N 
ATOM     15  C   UNL     1       4.807   4.896  19.210  0.00  0.00    +0.000 C 
ENDBRANCH   7  14
ENDBRANCH   1  10
BRANCH   3  16
ATOM     16  C   UNL     1      -2.593  11.624  18.140  0.00  0.00    +0.000 A 
ATOM     17  C   UNL     1      -3.140  11.226  16.912  0.00  0.00    +0.000 A 
ATOM     18  C   UNL     1      -4.524  11.227  16.700  0.00  0.00    +0.000 A 
ATOM     19  C   UNL     1      -5.403  11.569  17.727  0.00  0.00    +0.000 A 
ATOM     20  C   UNL     1      -4.874  12.021  18.932  0.00  0.00    +0.000 A 
ATOM     21  C   UNL     1      -3.494  12.040  19.139  0.00  0.00    +0.000 A 
BRANCH  19  22
ATOM     22  N   UNL     1      -6.775  11.676  17.478  0.00  0.00    +0.000 N 
ATOM     23  H   UNL     1      -7.167  12.572  17.749  0.00  0.00    +0.000 HD
ATOM     24  H   UNL     1      -7.032  11.415  16.531  0.00  0.00    +0.000 HD
ENDBRANCH  19  22
ENDBRANCH   3  16
BRANCH   5  25
ATOM     25  C   UNL     1       2.213  14.008  18.910  0.00  0.00    +0.000 A 
ATOM     26  C   UNL     1       3.371  14.122  18.128  0.00  0.00    +0.000 A 
ATOM     27  C   UNL     1       4.291  15.158  18.318  0.00  0.00    +0.000 A 
ATOM     28  C   UNL     1       4.089  16.180  19.252  0.00  0.00    +0.000 A 
ATOM     29  C   UNL     1       2.889  16.102  19.975  0.00  0.00    +0.000 A 
ATOM     30  C   UNL     1       1.978  15.041  19.821  0.00  0.00    +0.000 A 
BRANCH  28  31
ATOM     31  N   UNL     1       5.056  17.148  19.488  0.00  0.00    +0.000 N 
ATOM     32  C   UNL     1       4.992  18.003  20.674  0.00  0.00    +0.000 C 
ATOM     33  C   UNL     1       6.377  17.080  18.872  0.00  0.00    +0.000 C 
ENDBRANCH  28  31
ENDBRANCH   5  25
TORSDOF 6
ENDMDL
MODEL 3
REMARK VINA RESULT:      -7.6      0.265      1.095
REMARK  Name = 
REMARK  10 active torsions:
REMARK  status: ('A' for Active; 'I' for Inactive)
REMARK    1  A    between atoms: C_1  and  N_2
REMARK    2  A    between atoms: N_2  and  C_3
REMARK    3  A    between atoms: N_2  and  C_4
REMARK    4  A    between atoms: C_7  and  C_8
REMARK    5  A    between atoms: C_10  and  C_11
REMARK    6  A    between atoms: C_14  and  N_15
REMARK    7  A    between atoms: C_19  and  C_20
REMARK    8  A    between atoms: C_23  and  N_24
REMARK    9  A    between atoms: N_24  and  C_25
REMARK   10  A    between atoms: N_24  and  C_26
REMARK                            x       y       z     vdW  Elec       q    Type
REMARK                         _______ _______ _______ _____ _____    ______ ____
ROOT
ATOM      1  C   UNL     1       0.932  10.258  18.907  0.00  0.00    +0.000 A 
ATOM      2  C   UNL     1      -0.449  10.381  18.616  0.00  0.00    +0.000 A 
ATOM      3  C   UNL     1      -1.168  11.577  18.441  0.00  0.00    +0.000 A 
ATOM      4  S   UNL     1      -0.381  13.153  18.605  0.00  0.00    +0.000 S 
ATOM      5  C   UNL     1       1.306  12.753  19.003  0.00  0.00    +0.000 A 
ATOM      6  C   UNL     1       1.738  11.417  19.080  0.00  0.00    +0.000 A 
ENDROOT
BRANCH   1  10
ATOM      7  C   UNL     1       2.752   6.296  19.322  0.00  0.00    +0.000 A 
ATOM      8  C   UNL     1       2.071   6.919  20.375  0.00  0.00    +0.000 A 
ATOM      9  C   UNL     1       1.464   8.177  20.235  0.00  0.00    +0.000 A 
ATOM     10  C   UNL     1       1.535   8.903  19.038  0.00  0.00    +0.000 A 
ATOM     11  C   UNL     1       2.220   8.289  17.981  0.00  0.00    +0.000 A 
ATOM     12  C   UNL     1       2.798   7.017  18.119  0.00  0.00    +0.000 A 
BRANCH   7  14
ATOM     13  C   UNL     1       4.664   4.777  18.908  0.00  0.00    +0.000 C 
ATOM     14  N   UNL     1       3.343   5.048  19.458  0.00  0.00    +0.000 N 
ATOM     15  C   UNL     1       2.667   3.971  20.171  0.00  0.00    +0.000 C 
ENDBRANCH   7  14
ENDBRANCH   1  10
BRANCH   3  16
ATOM     16  C   UNL     1      -2.611  11.622  18.153  0.00  0.00    +0.000 A 
ATOM     17  C   UNL     1      -3.117  11.231  16.905  0.00  0.00    +0.000 A 
ATOM     18  C   UNL     1      -4.491  11.257  16.639  0.00  0.00    +0.000 A 
ATOM     19  C   UNL     1      -5.403  11.616  17.631  0.00  0.00    +0.000 A 
ATOM     20  C   UNL     1      -4.914  12.061  18.854  0.00  0.00    +0.000 A 
ATOM     21  C   UNL     1      -3.542  12.056  19.116  0.00  0.00    +0.000 A 
BRANCH  19  22
ATOM     22  N   UNL     1      -6.763  11.748  17.328  0.00  0.00    +0.000 N 
ATOM     23  H   UNL     1      -7.332  12.006  18.128  0.00  0.00    +0.000 HD
ATOM     24  H   UNL     1      -6.938  12.342  16.524  0.00  0.00    +0.000 HD
ENDBRANCH  19  22
ENDBRANCH   3  16
BRANCH   5  25
ATOM     25  C   UNL     1       2.196  13.920  19.146  0.00  0.00    +0.000 A 
ATOM     26  C   UNL     1       3.266  14.137  18.266  0.00  0.00    +0.000 A 
ATOM     27  C   UNL     1       4.208  15.148  18.484  0.00  0.00    +0.000 A 
ATOM     28  C   UNL     1       4.113  16.045  19.552  0.00  0.00    +0.000 A 
ATOM     29  C   UNL     1       2.995  15.872  20.383  0.00  0.00    +0.000 A 
ATOM     30  C   UNL     1       2.066  14.832  20.196  0.00  0.00    +0.000 A 
BRANCH  28  31
ATOM     31  N   UNL     1       5.106  16.982  19.803  0.00  0.00    +0.000 N 
ATOM     32  C   UNL     1       6.235  17.146  18.886  0.00  0.00    +0.000 C 
ATOM     33  C   UNL     1       4.880  18.125  20.682  0.00  0.00    +0.000 C 
ENDBRANCH  28  31
ENDBRANCH   5  25
TORSDOF 6
ENDMDL
MODEL 4
REMARK VINA RESULT:      -7.5      0.879      7.127
REMARK  Name = 
REMARK  10 active torsions:
REMARK  status: ('A' for Active; 'I' for Inactive)
REMARK    1  A    between atoms: C_1  and  N_2
REMARK    2  A    between atoms: N_2  and  C_3
REMARK    3  A    between atoms: N_2  and  C_4
REMARK    4  A    between atoms: C_7  and  C_8
REMARK    5  A    between atoms: C_10  and  C_11
REMARK    6  A    between atoms: C_14  and  N_15
REMARK    7  A    between atoms: C_19  and  C_20
REMARK    8  A    between atoms: C_23  and  N_24
REMARK    9  A    between atoms: N_24  and  C_25
REMARK   10  A    between atoms: N_24  and  C_26
REMARK                            x       y       z     vdW  Elec       q    Type
REMARK                         _______ _______ _______ _____ _____    ______ ____
ROOT
ATOM      1  C   UNL     1       1.185  10.198  18.750  0.00  0.00    +0.000 A 
ATOM      2  C   UNL     1       2.028  11.335  18.805  0.00  0.00    +0.000 A 
ATOM      3  C   UNL     1       1.625  12.683  18.777  0.00  0.00    +0.000 A 
ATOM      4  S   UNL     1      -0.081  13.128  18.634  0.00  0.00    +0.000 S 
ATOM      5  C   UNL     1      -0.927  11.565  18.543  0.00  0.00    +0.000 A 
ATOM      6  C   UNL     1      -0.224  10.350  18.629  0.00  0.00    +0.000 A 
ENDROOT
BRANCH   1  10
ATOM      7  C   UNL     1       2.995   6.215  18.968  0.00  0.00    +0.000 A 
ATOM      8  C   UNL     1       2.266   6.764  20.030  0.00  0.00    +0.000 A 
ATOM      9  C   UNL     1       1.662   8.028  19.951  0.00  0.00    +0.000 A 
ATOM     10  C   UNL     1       1.786   8.837  18.813  0.00  0.00    +0.000 A 
ATOM     11  C   UNL     1       2.519   8.298  17.748  0.00  0.00    +0.000 A 
ATOM     12  C   UNL     1       3.094   7.019  17.822  0.00  0.00    +0.000 A 
BRANCH   7  14
ATOM     13  C   UNL     1       5.022   4.813  19.203  0.00  0.00    +0.000 C 
ATOM     14  N   UNL     1       3.582   4.960  19.043  0.00  0.00    +0.000 N 
ATOM     15  C   UNL     1       2.775   3.749  18.979  0.00  0.00    +0.000 C 
ENDBRANCH   7  14
ENDBRANCH   1  10
BRANCH   3  16
ATOM     16  C   UNL     1       2.567  13.812  18.825  0.00  0.00    +0.000 A 
ATOM     17  C   UNL     1       2.933  14.506  17.662  0.00  0.00    +0.000 A 
ATOM     18  C   UNL     1       3.815  15.592  17.712  0.00  0.00    +0.000 A 
ATOM     19  C   UNL     1       4.310  16.053  18.931  0.00  0.00    +0.000 A 
ATOM     20  C   UNL     1       4.003  15.342  20.086  0.00  0.00    +0.000 A 
ATOM     21  C   UNL     1       3.139  14.246  20.036  0.00  0.00    +0.000 A 
BRANCH  19  22
ATOM     22  N   UNL     1       5.276  17.065  18.966  0.00  0.00    +0.000 N 
ATOM     23  H   UNL     1       5.698  17.190  19.880  0.00  0.00    +0.000 HD
ATOM     24  H   UNL     1       5.970  16.981  18.230  0.00  0.00    +0.000 HD
ENDBRANCH  19  22
ENDBRANCH   3  16
BRANCH   5  25
ATOM     25  C   UNL     1      -2.396  11.667  18.465  0.00  0.00    +0.000 A 
ATOM     26  C   UNL     1      -3.092  11.333  17.295  0.00  0.00    +0.000 A 
ATOM     27  C   UNL     1      -4.463  11.574  17.156  0.00  0.00    +0.000 A 
ATOM     28  C   UNL     1      -5.240  12.104  18.191  0.00  0.00    +0.000 A 
ATOM     29  C   UNL     1      -4.552  12.361  19.386  0.00  0.00    +0.000 A 
ATOM     30  C   UNL     1      -3.166  12.161  19.521  0.00  0.00    +0.000 A 
BRANCH  28  31
ATOM     31  N   UNL     1      -6.579  12.420  18.003  0.00  0.00    +0.000 N 
ATOM     32  C   UNL     1      -7.548  12.272  19.089  0.00  0.00    +0.000 C 
ATOM     33  C   UNL     1      -7.014  13.312  16.932  0.00  0.00    +0.000 C 
ENDBRANCH  28  31
ENDBRANCH   5  25
TORSDOF 6
ENDMDL
MODEL 5
REMARK VINA RESULT:      -7.5      0.996      7.284
REMARK  Name = 
REMARK  10 active torsions:
REMARK  status: ('A' for Active; 'I' for Inactive)
REMARK    1  A    between atoms: C_1  and  N_2
REMARK    2  A    between atoms: N_2  and  C_3
REMARK    3  A    between atoms: N_2  and  C_4
REMARK    4  A    between atoms: C_7  and  C_8
REMARK    5  A    between atoms: C_10  and  C_11
REMARK    6  A    between atoms: C_14  and  N_15
REMARK    7  A    between atoms: C_19  and  C_20
REMARK    8  A    between atoms: C_23  and  N_24
REMARK    9  A    between atoms: N_24  and  C_25
REMARK   10  A    between atoms: N_24  and  C_26
REMARK                            x       y       z     vdW  Elec       q    Type
REMARK                         _______ _______ _______ _____ _____    ______ ____
ROOT
ATOM      1  C   UNL     1       1.042  10.347  18.895  0.00  0.00    +0.000 A 
ATOM      2  C   UNL     1       1.921  11.458  18.901  0.00  0.00    +0.000 A 
ATOM      3  C   UNL     1       1.559  12.818  18.884  0.00  0.00    +0.000 A 
ATOM      4  S   UNL     1      -0.137  13.315  18.820  0.00  0.00    +0.000 S 
ATOM      5  C   UNL     1      -1.035  11.779  18.780  0.00  0.00    +0.000 A 
ATOM      6  C   UNL     1      -0.366  10.543  18.841  0.00  0.00    +0.000 A 
ENDROOT
BRANCH   1  10
ATOM      7  C   UNL     1       2.737   6.312  19.049  0.00  0.00    +0.000 A 
ATOM      8  C   UNL     1       2.139   6.914  20.163  0.00  0.00    +0.000 A 
ATOM      9  C   UNL     1       1.571   8.197  20.107  0.00  0.00    +0.000 A 
ATOM     10  C   UNL     1       1.602   8.969  18.938  0.00  0.00    +0.000 A 
ATOM     11  C   UNL     1       2.205   8.376  17.821  0.00  0.00    +0.000 A 
ATOM     12  C   UNL     1       2.743   7.080  17.876  0.00  0.00    +0.000 A 
BRANCH   7  14
ATOM     13  C   UNL     1       2.454   3.853  18.984  0.00  0.00    +0.000 C 
ATOM     14  N   UNL     1       3.289   5.040  19.103  0.00  0.00    +0.000 N 
ATOM     15  C   UNL     1       4.725   4.852  19.266  0.00  0.00    +0.000 C 
ENDBRANCH   7  14
ENDBRANCH   1  10
BRANCH   3  16
ATOM     16  C   UNL     1       2.537  13.917  18.878  0.00  0.00    +0.000 A 
ATOM     17  C   UNL     1       2.785  14.667  17.719  0.00  0.00    +0.000 A 
ATOM     18  C   UNL     1       3.702  15.724  17.720  0.00  0.00    +0.000 A 
ATOM     19  C   UNL     1       4.352  16.102  18.894  0.00  0.00    +0.000 A 
ATOM     20  C   UNL     1       4.161  15.334  20.038  0.00  0.00    +0.000 A 
ATOM     21  C   UNL     1       3.262  14.266  20.034  0.00  0.00    +0.000 A 
BRANCH  19  22
ATOM     22  N   UNL     1       5.348  17.085  18.867  0.00  0.00    +0.000 N 
ATOM     23  H   UNL     1       5.846  17.132  17.984  0.00  0.00    +0.000 HD
ATOM     24  H   UNL     1       5.020  17.995  19.173  0.00  0.00    +0.000 HD
ENDBRANCH  19  22
ENDBRANCH   3  16
BRANCH   5  25
ATOM     25  C   UNL     1      -2.502  11.926  18.772  0.00  0.00    +0.000 A 
ATOM     26  C   UNL     1      -3.182  12.536  19.835  0.00  0.00    +0.000 A 
ATOM     27  C   UNL     1      -4.579  12.541  19.914  0.00  0.00    +0.000 A 
ATOM     28  C   UNL     1      -5.389  11.995  18.912  0.00  0.00    +0.000 A 
ATOM     29  C   UNL     1      -4.702  11.457  17.813  0.00  0.00    +0.000 A 
ATOM     30  C   UNL     1      -3.297  11.411  17.746  0.00  0.00    +0.000 A 
BRANCH  28  31
ATOM     31  N   UNL     1      -6.768  11.928  19.052  0.00  0.00    +0.000 N 
ATOM     32  C   UNL     1      -7.383  11.055  20.052  0.00  0.00    +0.000 C 
ATOM     33  C   UNL     1      -7.641  12.997  18.575  0.00  0.00    +0.000 C 
ENDBRANCH  28  31
ENDBRANCH   5  25
TORSDOF 6
ENDMDL
MODEL 6
REMARK VINA RESULT:      -7.5      0.808      7.206
REMARK  Name = 
REMARK  10 active torsions:
REMARK  status: ('A' for Active; 'I' for Inactive)
REMARK    1  A    between atoms: C_1  and  N_2
REMARK    2  A    between atoms: N_2  and  C_3
REMARK    3  A    between atoms: N_2  and  C_4
REMARK    4  A    between atoms: C_7  and  C_8
REMARK    5  A    between atoms: C_10  and  C_11
REMARK    6  A    between atoms: C_14  and  N_15
REMARK    7  A    between atoms: C_19  and  C_20
REMARK    8  A    between atoms: C_23  and  N_24
REMARK    9  A    between atoms: N_24  and  C_25
REMARK   10  A    between atoms: N_24  and  C_26
REMARK                            x       y       z     vdW  Elec       q    Type
REMARK                         _______ _______ _______ _____ _____    ______ ____
ROOT
ATOM      1  C   UNL     1       1.154  10.240  18.713  0.00  0.00    +0.000 A 
ATOM      2  C   UNL     1       1.988  11.385  18.729  0.00  0.00    +0.000 A 
ATOM      3  C   UNL     1       1.575  12.729  18.675  0.00  0.00    +0.000 A 
ATOM      4  S   UNL     1      -0.137  13.157  18.543  0.00  0.00    +0.000 S 
ATOM      5  C   UNL     1      -0.972  11.587  18.501  0.00  0.00    +0.000 A 
ATOM      6  C   UNL     1      -0.258  10.380  18.607  0.00  0.00    +0.000 A 
ENDROOT
BRANCH   1  10
ATOM      7  C   UNL     1       2.909   6.234  18.939  0.00  0.00    +0.000 A 
ATOM      8  C   UNL     1       3.014   7.033  17.793  0.00  0.00    +0.000 A 
ATOM      9  C   UNL     1       2.476   8.327  17.729  0.00  0.00    +0.000 A 
ATOM     10  C   UNL     1       1.765   8.886  18.800  0.00  0.00    +0.000 A 
ATOM     11  C   UNL     1       1.650   8.091  19.948  0.00  0.00    +0.000 A 
ATOM     12  C   UNL     1       2.219   6.809  20.016  0.00  0.00    +0.000 A 
BRANCH   7  14
ATOM     13  C   UNL     1       2.611   3.777  18.865  0.00  0.00    +0.000 C 
ATOM     14  N   UNL     1       3.451   4.958  19.004  0.00  0.00    +0.000 N 
ATOM     15  C   UNL     1       4.882   4.760  19.199  0.00  0.00    +0.000 C 
ENDBRANCH   7  14
ENDBRANCH   1  10
BRANCH   3  16
ATOM     16  C   UNL     1       2.508  13.866  18.682  0.00  0.00    +0.000 A 
ATOM     17  C   UNL     1       3.764  13.783  18.062  0.00  0.00    +0.000 A 
ATOM     18  C   UNL     1       4.643  14.872  18.055  0.00  0.00    +0.000 A 
ATOM     19  C   UNL     1       4.270  16.094  18.614  0.00  0.00    +0.000 A 
ATOM     20  C   UNL     1       3.053  16.175  19.283  0.00  0.00    +0.000 A 
ATOM     21  C   UNL     1       2.182  15.084  19.309  0.00  0.00    +0.000 A 
BRANCH  19  22
ATOM     22  N   UNL     1       5.191  17.143  18.703  0.00  0.00    +0.000 N 
ATOM     23  H   UNL     1       5.934  17.088  18.015  0.00  0.00    +0.000 HD
ATOM     24  H   UNL     1       4.754  18.059  18.726  0.00  0.00    +0.000 HD
ENDBRANCH  19  22
ENDBRANCH   3  16
BRANCH   5  25
ATOM     25  C   UNL     1      -2.443  11.676  18.440  0.00  0.00    +0.000 A 
ATOM     26  C   UNL     1      -3.148  11.344  17.275  0.00  0.00    +0.000 A 
ATOM     27  C   UNL     1      -4.523  11.574  17.152  0.00  0.00    +0.000 A 
ATOM     28  C   UNL     1      -5.293  12.088  18.200  0.00  0.00    +0.000 A 
ATOM     29  C   UNL     1      -4.595  12.344  19.390  0.00  0.00    +0.000 A 
ATOM     30  C   UNL     1      -3.205  12.155  19.508  0.00  0.00    +0.000 A 
BRANCH  28  31
ATOM     31  N   UNL     1      -6.637  12.394  18.029  0.00  0.00    +0.000 N 
ATOM     32  C   UNL     1      -7.586  12.266  19.135  0.00  0.00    +0.000 C 
ATOM     33  C   UNL     1      -7.096  13.259  16.947  0.00  0.00    +0.000 C 
ENDBRANCH  28  31
ENDBRANCH   5  25
TORSDOF 6
ENDMDL
MODEL 7
REMARK VINA RESULT:      -7.5      0.663      1.081
REMARK  Name = 
REMARK  10 active torsions:
REMARK  status: ('A' for Active; 'I' for Inactive)
REMARK    1  A    between atoms: C_1  and  N_2
REMARK    2  A    between atoms: N_2  and  C_3
REMARK    3  A    between atoms: N_2  and  C_4
REMARK    4  A    between atoms: C_7  and  C_8
REMARK    5  A    between atoms: C_10  and  C_11
REMARK    6  A    between atoms: C_14  and  N_15
REMARK    7  A    between atoms: C_19  and  C_20
REMARK    8  A    between atoms: C_23  and  N_24
REMARK    9  A    between atoms: N_24  and  C_25
REMARK   10  A    between atoms: N_24  and  C_26
REMARK                            x       y       z     vdW  Elec       q    Type
REMARK                         _______ _______ _______ _____ _____    ______ ____
ROOT
ATOM      1  C   UNL     1       0.872  10.391  18.937  0.00  0.00    +0.000 A 
ATOM      2  C   UNL     1      -0.513  10.487  18.660  0.00  0.00    +0.000 A 
ATOM      3  C   UNL     1      -1.263  11.668  18.512  0.00  0.00    +0.000 A 
ATOM      4  S   UNL     1      -0.512  13.259  18.695  0.00  0.00    +0.000 S 
ATOM      5  C   UNL     1       1.188  12.892  19.071  0.00  0.00    +0.000 A 
ATOM      6  C   UNL     1       1.653  11.566  19.123  0.00  0.00    +0.000 A 
ENDROOT
BRANCH   1  10
ATOM      7  C   UNL     1       2.700   6.420  19.210  0.00  0.00    +0.000 A 
ATOM      8  C   UNL     1       2.742   7.183  18.036  0.00  0.00    +0.000 A 
ATOM      9  C   UNL     1       2.180   8.467  17.955  0.00  0.00    +0.000 A 
ATOM     10  C   UNL     1       1.509   9.049  19.039  0.00  0.00    +0.000 A 
ATOM     11  C   UNL     1       1.457   8.290  20.216  0.00  0.00    +0.000 A 
ATOM     12  C   UNL     1       2.048   7.019  20.298  0.00  0.00    +0.000 A 
BRANCH   7  14
ATOM     13  C   UNL     1       4.548   4.863  18.667  0.00  0.00    +0.000 C 
ATOM     14  N   UNL     1       3.264   5.155  19.291  0.00  0.00    +0.000 N 
ATOM     15  C   UNL     1       2.598   4.081  20.015  0.00  0.00    +0.000 C 
ENDBRANCH   7  14
ENDBRANCH   1  10
BRANCH   3  16
ATOM     16  C   UNL     1      -2.708  11.683  18.237  0.00  0.00    +0.000 A 
ATOM     17  C   UNL     1      -3.632  12.088  19.212  0.00  0.00    +0.000 A 
ATOM     18  C   UNL     1      -5.004  12.119  18.943  0.00  0.00    +0.000 A 
ATOM     19  C   UNL     1      -5.490  11.805  17.674  0.00  0.00    +0.000 A 
ATOM     20  C   UNL     1      -4.594  11.347  16.714  0.00  0.00    +0.000 A 
ATOM     21  C   UNL     1      -3.225  11.295  16.986  0.00  0.00    +0.000 A 
BRANCH  19  22
ATOM     22  N   UNL     1      -6.868  11.730  17.441  0.00  0.00    +0.000 N 
ATOM     23  H   UNL     1      -7.146  12.098  16.538  0.00  0.00    +0.000 HD
ATOM     24  H   UNL     1      -7.253  10.807  17.616  0.00  0.00    +0.000 HD
ENDBRANCH  19  22
ENDBRANCH   3  16
BRANCH   5  25
ATOM     25  C   UNL     1       2.052  14.078  19.226  0.00  0.00    +0.000 A 
ATOM     26  C   UNL     1       3.293  14.000  19.873  0.00  0.00    +0.000 A 
ATOM     27  C   UNL     1       4.047  15.141  20.166  0.00  0.00    +0.000 A 
ATOM     28  C   UNL     1       3.646  16.425  19.779  0.00  0.00    +0.000 A 
ATOM     29  C   UNL     1       2.442  16.486  19.062  0.00  0.00    +0.000 A 
ATOM     30  C   UNL     1       1.656  15.349  18.801  0.00  0.00    +0.000 A 
BRANCH  28  31
ATOM     31  N   UNL     1       4.362  17.552  20.158  0.00  0.00    +0.000 N 
ATOM     32  C   UNL     1       3.850  18.460  21.185  0.00  0.00    +0.000 C 
ATOM     33  C   UNL     1       5.799  17.663  19.926  0.00  0.00    +0.000 C 
ENDBRANCH  28  31
ENDBRANCH   5  25
TORSDOF 6
ENDMDL
MODEL 8
REMARK VINA RESULT:      -7.4      0.950      7.339
REMARK  Name = 
REMARK  10 active torsions:
REMARK  status: ('A' for Active; 'I' for Inactive)
REMARK    1  A    between atoms: C_1  and  N_2
REMARK    2  A    between atoms: N_2  and  C_3
REMARK    3  A    between atoms: N_2  and  C_4
REMARK    4  A    between atoms: C_7  and  C_8
REMARK    5  A    between atoms: C_10  and  C_11
REMARK    6  A    between atoms: C_14  and  N_15
REMARK    7  A    between atoms: C_19  and  C_20
REMARK    8  A    between atoms: C_23  and  N_24
REMARK    9  A    between atoms: N_24  and  C_25
REMARK   10  A    between atoms: N_24  and  C_26
REMARK                            x       y       z     vdW  Elec       q    Type
REMARK                         _______ _______ _______ _____ _____    ______ ____
ROOT
ATOM      1  C   UNL     1       0.959  10.357  18.954  0.00  0.00    +0.000 A 
ATOM      2  C   UNL     1       1.832  11.472  18.918  0.00  0.00    +0.000 A 
ATOM      3  C   UNL     1       1.464  12.828  18.849  0.00  0.00    +0.000 A 
ATOM      4  S   UNL     1      -0.236  13.313  18.767  0.00  0.00    +0.000 S 
ATOM      5  C   UNL     1      -1.125  11.772  18.786  0.00  0.00    +0.000 A 
ATOM      6  C   UNL     1      -0.450  10.543  18.893  0.00  0.00    +0.000 A 
ENDROOT
BRANCH   1  10
ATOM      7  C   UNL     1       2.581   6.297  19.207  0.00  0.00    +0.000 A 
ATOM      8  C   UNL     1       2.611   7.040  18.021  0.00  0.00    +0.000 A 
ATOM      9  C   UNL     1       2.116   8.352  17.945  0.00  0.00    +0.000 A 
ATOM     10  C   UNL     1       1.527   8.984  19.049  0.00  0.00    +0.000 A 
ATOM     11  C   UNL     1       1.488   8.245  20.238  0.00  0.00    +0.000 A 
ATOM     12  C   UNL     1       2.013   6.944  20.314  0.00  0.00    +0.000 A 
BRANCH   7  14
ATOM     13  C   UNL     1       2.505   4.029  20.199  0.00  0.00    +0.000 C 
ATOM     14  N   UNL     1       3.080   5.004  19.283  0.00  0.00    +0.000 N 
ATOM     15  C   UNL     1       4.187   4.576  18.437  0.00  0.00    +0.000 C 
ENDBRANCH   7  14
ENDBRANCH   1  10
BRANCH   3  16
ATOM     16  C   UNL     1       2.435  13.932  18.801  0.00  0.00    +0.000 A 
ATOM     17  C   UNL     1       3.658  13.798  18.127  0.00  0.00    +0.000 A 
ATOM     18  C   UNL     1       4.573  14.855  18.067  0.00  0.00    +0.000 A 
ATOM     19  C   UNL     1       4.268  16.095  18.627  0.00  0.00    +0.000 A 
ATOM     20  C   UNL     1       3.086  16.227  19.347  0.00  0.00    +0.000 A 
ATOM     21  C   UNL     1       2.180  15.167  19.426  0.00  0.00    +0.000 A 
BRANCH  19  22
ATOM     22  N   UNL     1       5.228  17.112  18.662  0.00  0.00    +0.000 N 
ATOM     23  H   UNL     1       4.910  17.984  18.252  0.00  0.00    +0.000 HD
ATOM     24  H   UNL     1       5.635  17.246  19.582  0.00  0.00    +0.000 HD
ENDBRANCH  19  22
ENDBRANCH   3  16
BRANCH   5  25
ATOM     25  C   UNL     1      -2.593  11.911  18.773  0.00  0.00    +0.000 A 
ATOM     26  C   UNL     1      -3.278  12.540  19.822  0.00  0.00    +0.000 A 
ATOM     27  C   UNL     1      -4.675  12.538  19.899  0.00  0.00    +0.000 A 
ATOM     28  C   UNL     1      -5.480  11.968  18.907  0.00  0.00    +0.000 A 
ATOM     29  C   UNL     1      -4.789  11.411  17.820  0.00  0.00    +0.000 A 
ATOM     30  C   UNL     1      -3.384  11.371  17.756  0.00  0.00    +0.000 A 
BRANCH  28  31
ATOM     31  N   UNL     1      -6.860  11.897  19.046  0.00  0.00    +0.000 N 
ATOM     32  C   UNL     1      -7.473  10.984  20.011  0.00  0.00    +0.000 C 
ATOM     33  C   UNL     1      -7.732  12.984  18.615  0.00  0.00    +0.000 C 
ENDBRANCH  28  31
ENDBRANCH   5  25
TORSDOF 6
ENDMDL
MODEL 9
REMARK VINA RESULT:      -7.4      1.074      7.229
REMARK  Name = 
REMARK  10 active torsions:
REMARK  status: ('A' for Active; 'I' for Inactive)
REMARK    1  A    between atoms: C_1  and  N_2
REMARK    2  A    between atoms: N_2  and  C_3
REMARK    3  A    between atoms: N_2  and  C_4
REMARK    4  A    between atoms: C_7  and  C_8
REMARK    5  A    between atoms: C_10  and  C_11
REMARK    6  A    between atoms: C_14  and  N_15
REMARK    7  A    between atoms: C_19  and  C_20
REMARK    8  A    between atoms: C_23  and  N_24
REMARK    9  A    between atoms: N_24  and  C_25
REMARK   10  A    between atoms: N_24  and  C_26
REMARK                            x       y       z     vdW  Elec       q    Type
REMARK                         _______ _______ _______ _____ _____    ______ ____
ROOT
ATOM      1  C   UNL     1       1.070  10.373  18.958  0.00  0.00    +0.000 A 
ATOM      2  C   UNL     1       1.960  11.475  18.943  0.00  0.00    +0.000 A 
ATOM      3  C   UNL     1       1.614  12.838  18.947  0.00  0.00    +0.000 A 
ATOM      4  S   UNL     1      -0.079  13.354  18.942  0.00  0.00    +0.000 S 
ATOM      5  C   UNL     1      -0.994  11.828  18.921  0.00  0.00    +0.000 A 
ATOM      6  C   UNL     1      -0.337  10.585  18.952  0.00  0.00    +0.000 A 
ENDROOT
BRANCH   1  10
ATOM      7  C   UNL     1       2.722   6.318  19.033  0.00  0.00    +0.000 A 
ATOM      8  C   UNL     1       2.100   6.892  20.148  0.00  0.00    +0.000 A 
ATOM      9  C   UNL     1       1.545   8.181  20.117  0.00  0.00    +0.000 A 
ATOM     10  C   UNL     1       1.615   8.989  18.973  0.00  0.00    +0.000 A 
ATOM     11  C   UNL     1       2.242   8.424  17.855  0.00  0.00    +0.000 A 
ATOM     12  C   UNL     1       2.767   7.122  17.884  0.00  0.00    +0.000 A 
BRANCH   7  14
ATOM     13  C   UNL     1       4.205   4.598  18.044  0.00  0.00    +0.000 C 
ATOM     14  N   UNL     1       3.261   5.040  19.062  0.00  0.00    +0.000 N 
ATOM     15  C   UNL     1       2.910   4.102  20.121  0.00  0.00    +0.000 C 
ENDBRANCH   7  14
ENDBRANCH   1  10
BRANCH   3  16
ATOM     16  C   UNL     1       2.603  13.927  18.916  0.00  0.00    +0.000 A 
ATOM     17  C   UNL     1       3.325  14.289  20.063  0.00  0.00    +0.000 A 
ATOM     18  C   UNL     1       4.278  15.312  20.028  0.00  0.00    +0.000 A 
ATOM     19  C   UNL     1       4.581  15.964  18.832  0.00  0.00    +0.000 A 
ATOM     20  C   UNL     1       3.835  15.657  17.700  0.00  0.00    +0.000 A 
ATOM     21  C   UNL     1       2.868  14.650  17.737  0.00  0.00    +0.000 A 
BRANCH  19  22
ATOM     22  N   UNL     1       5.452  17.059  18.824  0.00  0.00    +0.000 N 
ATOM     23  H   UNL     1       4.979  17.952  18.908  0.00  0.00    +0.000 HD
ATOM     24  H   UNL     1       6.219  16.966  19.483  0.00  0.00    +0.000 HD
ENDBRANCH  19  22
ENDBRANCH   3  16
BRANCH   5  25
ATOM     25  C   UNL     1      -2.459  11.992  18.963  0.00  0.00    +0.000 A 
ATOM     26  C   UNL     1      -3.094  12.633  20.036  0.00  0.00    +0.000 A 
ATOM     27  C   UNL     1      -4.487  12.655  20.164  0.00  0.00    +0.000 A 
ATOM     28  C   UNL     1      -5.338  12.096  19.204  0.00  0.00    +0.000 A 
ATOM     29  C   UNL     1      -4.697  11.526  18.094  0.00  0.00    +0.000 A 
ATOM     30  C   UNL     1      -3.296  11.462  17.978  0.00  0.00    +0.000 A 
BRANCH  28  31
ATOM     31  N   UNL     1      -6.712  12.047  19.395  0.00  0.00    +0.000 N 
ATOM     32  C   UNL     1      -7.619  12.809  18.536  0.00  0.00    +0.000 C 
ATOM     33  C   UNL     1      -7.350  10.945  20.107  0.00  0.00    +0.000 C 
ENDBRANCH  28  31
ENDBRANCH   5  25
TORSDOF 6
ENDMDL
