MODEL 1
REMARK VINA RESULT:      -7.5      0.000      0.000
REMARK  Name = 
REMARK  6 active torsions:
REMARK  status: ('A' for Active; 'I' for Inactive)
REMARK    1  A    between atoms: C_1  and  N_2
REMARK    2  A    between atoms: N_2  and  C_3
REMARK    3  A    between atoms: N_2  and  C_10
REMARK    4  A    between atoms: C_3  and  C_4
REMARK    5  A    between atoms: C_10  and  C_11
REMARK    6  A    between atoms: C_14  and  C_15
REMARK                            x       y       z     vdW  Elec       q    Type
REMARK                         _______ _______ _______ _____ _____    ______ ____
ROOT
ATOM      1  C   UNL     1       6.075   5.123  17.978  0.00  0.00    +0.000 A 
ATOM      2  C   UNL     1       7.401   4.774  18.077  0.00  0.00    +0.000 A 
ATOM      3  N   UNL     1       7.858   4.519  16.841  0.00  0.00    +0.000 N 
ATOM      4  C   UNL     1       6.807   4.710  16.011  0.00  0.00    +0.000 A 
ATOM      5  N   UNL     1       5.692   5.075  16.685  0.00  0.00    +0.000 NA
ATOM      6  H   UNL     1       8.834   4.246  16.606  0.00  0.00    +0.000 HD
ENDROOT
BRANCH   4   7
ATOM      7  C   UNL     1       6.861   4.542  14.534  0.00  0.00    +0.000 A 
ATOM      8  C   UNL     1       7.733   5.321  13.748  0.00  0.00    +0.000 A 
ATOM      9  C   UNL     1       7.777   5.162  12.361  0.00  0.00    +0.000 A 
ATOM     10  C   UNL     1       6.952   4.229  11.735  0.00  0.00    +0.000 A 
ATOM     11  C   UNL     1       6.079   3.450  12.498  0.00  0.00    +0.000 A 
ATOM     12  C   UNL     1       6.033   3.601  13.889  0.00  0.00    +0.000 A 
ENDBRANCH   4   7
BRANCH   1  13
ATOM     13  C   UNL     1       5.161   5.493  19.114  0.00  0.00    +0.000 C 
BRANCH  13  15
ATOM     14  C   UNL     1       3.868   3.440  19.236  0.00  0.00    +0.000 C 
ATOM     15  N   UNL     1       3.805   4.899  18.997  0.00  0.00    +0.000 NA
BRANCH  15  16
ATOM     16  C   UNL     1       2.910   5.592  19.955  0.00  0.00    +0.000 C 
BRANCH  16  17
ATOM     17  C   UNL     1       2.359   6.925  19.484  0.00  0.00    +0.000 A 
ATOM     18  C   UNL     1       1.743   7.773  20.423  0.00  0.00    +0.000 A 
ATOM     19  C   UNL     1       1.229   9.013  20.038  0.00  0.00    +0.000 A 
ATOM     20  C   UNL     1       1.321   9.425  18.708  0.00  0.00    +0.000 A 
ATOM     21  C   UNL     1       1.940   8.599  17.764  0.00  0.00    +0.000 A 
ATOM     22  C   UNL     1       2.465   7.358  18.148  0.00  0.00    +0.000 A 
ENDBRANCH  16  17
ENDBRANCH  15  16
ENDBRANCH  13  15
ENDBRANCH   1  13
TORSDOF 5
ENDMDL
MODEL 2
REMARK VINA RESULT:      -7.4      1.848      7.392
REMARK  Name = 
REMARK  6 active torsions:
REMARK  status: ('A' for Active; 'I' for Inactive)
REMARK    1  A    between atoms: C_1  and  N_2
REMARK    2  A    between atoms: N_2  and  C_3
REMARK    3  A    between atoms: N_2  and  C_10
REMARK    4  A    between atoms: C_3  and  C_4
REMARK    5  A    between atoms: C_10  and  C_11
REMARK    6  A    between atoms: C_14  and  C_15
REMARK                            x       y       z     vdW  Elec       q    Type
REMARK                         _______ _______ _______ _____ _____    ______ ____
ROOT
ATOM      1  C   UNL     1       4.207   6.633  16.977  0.00  0.00    +0.000 A 
ATOM      2  C   UNL     1       3.559   7.626  17.672  0.00  0.00    +0.000 A 
ATOM      3  N   UNL     1       2.807   7.047  18.622  0.00  0.00    +0.000 N 
ATOM      4  C   UNL     1       3.003   5.715  18.488  0.00  0.00    +0.000 A 
ATOM      5  N   UNL     1       3.856   5.431  17.476  0.00  0.00    +0.000 NA
ATOM      6  H   UNL     1       2.217   7.553  19.312  0.00  0.00    +0.000 HD
ENDROOT
BRANCH   4   7
ATOM      7  C   UNL     1       2.364   4.681  19.344  0.00  0.00    +0.000 A 
ATOM      8  C   UNL     1       1.466   3.743  18.798  0.00  0.00    +0.000 A 
ATOM      9  C   UNL     1       0.864   2.776  19.607  0.00  0.00    +0.000 A 
ATOM     10  C   UNL     1       1.145   2.730  20.973  0.00  0.00    +0.000 A 
ATOM     11  C   UNL     1       2.030   3.655  21.532  0.00  0.00    +0.000 A 
ATOM     12  C   UNL     1       2.639   4.624  20.725  0.00  0.00    +0.000 A 
ENDBRANCH   4   7
BRANCH   1  13
ATOM     13  C   UNL     1       5.156   6.824  15.825  0.00  0.00    +0.000 C 
BRANCH  13  15
ATOM     14  C   UNL     1       6.833   6.904  17.581  0.00  0.00    +0.000 C 
ATOM     15  N   UNL     1       6.571   6.532  16.174  0.00  0.00    +0.000 NA
BRANCH  15  16
ATOM     16  C   UNL     1       6.827   5.095  15.910  0.00  0.00    +0.000 C 
BRANCH  16  17
ATOM     17  C   UNL     1       6.847   4.696  14.446  0.00  0.00    +0.000 A 
ATOM     18  C   UNL     1       5.918   3.739  13.994  0.00  0.00    +0.000 A 
ATOM     19  C   UNL     1       5.892   3.346  12.654  0.00  0.00    +0.000 A 
ATOM     20  C   UNL     1       6.794   3.902  11.745  0.00  0.00    +0.000 A 
ATOM     21  C   UNL     1       7.715   4.862  12.176  0.00  0.00    +0.000 A 
ATOM     22  C   UNL     1       7.738   5.266  13.517  0.00  0.00    +0.000 A 
ENDBRANCH  16  17
ENDBRANCH  15  16
ENDBRANCH  13  15
ENDBRANCH   1  13
TORSDOF 5
ENDMDL
MODEL 3
REMARK VINA RESULT:      -7.4      0.969      1.654
REMARK  Name = 
REMARK  6 active torsions:
REMARK  status: ('A' for Active; 'I' for Inactive)
REMARK    1  A    between atoms: C_1  and  N_2
REMARK    2  A    between atoms: N_2  and  C_3
REMARK    3  A    between atoms: N_2  and  C_10
REMARK    4  A    between atoms: C_3  and  C_4
REMARK    5  A    between atoms: C_10  and  C_11
REMARK    6  A    between atoms: C_14  and  C_15
REMARK                            x       y       z     vdW  Elec       q    Type
REMARK                         _______ _______ _______ _____ _____    ______ ____
ROOT
ATOM      1  C   UNL     1       5.645   4.206  17.893  0.00  0.00    +0.000 A 
ATOM      2  C   UNL     1       6.910   4.713  18.075  0.00  0.00    +0.000 A 
ATOM      3  N   UNL     1       7.477   4.864  16.867  0.00  0.00    +0.000 N 
ATOM      4  C   UNL     1       6.555   4.442  15.971  0.00  0.00    +0.000 A 
ATOM      5  N   UNL     1       5.419   4.024  16.576  0.00  0.00    +0.000 NA
ATOM      6  H   UNL     1       8.429   5.244  16.694  0.00  0.00    +0.000 HD
ENDROOT
BRANCH   4   7
ATOM      7  C   UNL     1       6.756   4.437  14.498  0.00  0.00    +0.000 A 
ATOM      8  C   UNL     1       6.072   3.519  13.677  0.00  0.00    +0.000 A 
ATOM      9  C   UNL     1       6.267   3.515  12.294  0.00  0.00    +0.000 A 
ATOM     10  C   UNL     1       7.150   4.421  11.707  0.00  0.00    +0.000 A 
ATOM     11  C   UNL     1       7.840   5.336  12.505  0.00  0.00    +0.000 A 
ATOM     12  C   UNL     1       7.645   5.348  13.892  0.00  0.00    +0.000 A 
ENDBRANCH   4   7
BRANCH   1  13
ATOM     13  C   UNL     1       4.649   3.881  18.973  0.00  0.00    +0.000 C 
BRANCH  13  15
ATOM     14  C   UNL     1       3.605   1.706  18.691  0.00  0.00    +0.000 C 
ATOM     15  N   UNL     1       3.451   3.160  18.471  0.00  0.00    +0.000 NA
BRANCH  15  16
ATOM     16  C   UNL     1       2.257   3.714  19.155  0.00  0.00    +0.000 C 
BRANCH  16  17
ATOM     17  C   UNL     1       2.181   5.228  19.209  0.00  0.00    +0.000 A 
ATOM     18  C   UNL     1       1.901   5.848  20.442  0.00  0.00    +0.000 A 
ATOM     19  C   UNL     1       1.830   7.238  20.543  0.00  0.00    +0.000 A 
ATOM     20  C   UNL     1       2.036   8.033  19.413  0.00  0.00    +0.000 A 
ATOM     21  C   UNL     1       2.327   7.433  18.184  0.00  0.00    +0.000 A 
ATOM     22  C   UNL     1       2.408   6.038  18.080  0.00  0.00    +0.000 A 
ENDBRANCH  16  17
ENDBRANCH  15  16
ENDBRANCH  13  15
ENDBRANCH   1  13
TORSDOF 5
ENDMDL
MODEL 4
REMARK VINA RESULT:      -7.3      0.903      1.822
REMARK  Name = 
REMARK  6 active torsions:
REMARK  status: ('A' for Active; 'I' for Inactive)
REMARK    1  A    between atoms: C_1  and  N_2
REMARK    2  A    between atoms: N_2  and  C_3
REMARK    3  A    between atoms: N_2  and  C_10
REMARK    4  A    between atoms: C_3  and  C_4
REMARK    5  A    between atoms: C_10  and  C_11
REMARK    6  A    between atoms: C_14  and  C_15
REMARK                            x       y       z     vdW  Elec       q    Type
REMARK                         _______ _______ _______ _____ _____    ______ ____
ROOT
ATOM      1  C   UNL     1       5.763   4.395  17.996  0.00  0.00    +0.000 A 
ATOM      2  C   UNL     1       6.819   5.274  18.062  0.00  0.00    +0.000 A 
ATOM      3  N   UNL     1       7.300   5.442  16.820  0.00  0.00    +0.000 N 
ATOM      4  C   UNL     1       6.538   4.661  16.020  0.00  0.00    +0.000 A 
ATOM      5  N   UNL     1       5.587   3.998  16.719  0.00  0.00    +0.000 NA
ATOM      6  H   UNL     1       8.090   6.065  16.561  0.00  0.00    +0.000 HD
ENDROOT
BRANCH   4   7
ATOM      7  C   UNL     1       6.715   4.541  14.548  0.00  0.00    +0.000 A 
ATOM      8  C   UNL     1       5.945   3.630  13.799  0.00  0.00    +0.000 A 
ATOM      9  C   UNL     1       6.117   3.517  12.417  0.00  0.00    +0.000 A 
ATOM     10  C   UNL     1       7.061   4.306  11.761  0.00  0.00    +0.000 A 
ATOM     11  C   UNL     1       7.836   5.213  12.488  0.00  0.00    +0.000 A 
ATOM     12  C   UNL     1       7.664   5.333  13.873  0.00  0.00    +0.000 A 
ENDBRANCH   4   7
BRANCH   1  13
ATOM     13  C   UNL     1       4.924   3.919  19.150  0.00  0.00    +0.000 C 
BRANCH  13  15
ATOM     14  C   UNL     1       3.474   2.012  18.749  0.00  0.00    +0.000 C 
ATOM     15  N   UNL     1       3.560   3.488  18.749  0.00  0.00    +0.000 NA
BRANCH  15  16
ATOM     16  C   UNL     1       2.585   4.113  19.675  0.00  0.00    +0.000 C 
BRANCH  16  17
ATOM     17  C   UNL     1       2.364   5.601  19.481  0.00  0.00    +0.000 A 
ATOM     18  C   UNL     1       2.586   6.158  18.208  0.00  0.00    +0.000 A 
ATOM     19  C   UNL     1       2.388   7.521  17.979  0.00  0.00    +0.000 A 
ATOM     20  C   UNL     1       1.965   8.350  19.019  0.00  0.00    +0.000 A 
ATOM     21  C   UNL     1       1.728   7.811  20.287  0.00  0.00    +0.000 A 
ATOM     22  C   UNL     1       1.917   6.442  20.519  0.00  0.00    +0.000 A 
ENDBRANCH  16  17
ENDBRANCH  15  16
ENDBRANCH  13  15
ENDBRANCH   1  13
TORSDOF 5
ENDMDL
MODEL 5
REMARK VINA RESULT:      -7.3      0.924      1.259
REMARK  Name = 
REMARK  6 active torsions:
REMARK  status: ('A' for Active; 'I' for Inactive)
REMARK    1  A    between atoms: C_1  and  N_2
REMARK    2  A    between atoms: N_2  and  C_3
REMARK    3  A    between atoms: N_2  and  C_10
REMARK    4  A    between atoms: C_3  and  C_4
REMARK    5  A    between atoms: C_10  and  C_11
REMARK    6  A    between atoms: C_14  and  C_15
REMARK                            x       y       z     vdW  Elec       q    Type
REMARK                         _______ _______ _______ _____ _____    ______ ____
ROOT
ATOM      1  C   UNL     1       5.834   4.499  17.955  0.00  0.00    +0.000 A 
ATOM      2  C   UNL     1       7.174   4.790  18.055  0.00  0.00    +0.000 A 
ATOM      3  N   UNL     1       7.690   4.807  16.816  0.00  0.00    +0.000 N 
ATOM      4  C   UNL     1       6.663   4.520  15.983  0.00  0.00    +0.000 A 
ATOM      5  N   UNL     1       5.508   4.318  16.659  0.00  0.00    +0.000 NA
ATOM      6  H   UNL     1       8.681   5.016  16.581  0.00  0.00    +0.000 HD
ENDROOT
BRANCH   4   7
ATOM      7  C   UNL     1       6.779   4.436  14.503  0.00  0.00    +0.000 A 
ATOM      8  C   UNL     1       7.677   5.263  13.799  0.00  0.00    +0.000 A 
ATOM      9  C   UNL     1       7.780   5.184  12.409  0.00  0.00    +0.000 A 
ATOM     10  C   UNL     1       6.988   4.283  11.697  0.00  0.00    +0.000 A 
ATOM     11  C   UNL     1       6.090   3.458  12.377  0.00  0.00    +0.000 A 
ATOM     12  C   UNL     1       5.985   3.531  13.772  0.00  0.00    +0.000 A 
ENDBRANCH   4   7
BRANCH   1  13
ATOM     13  C   UNL     1       4.859   4.379  19.094  0.00  0.00    +0.000 C 
BRANCH  13  15
ATOM     14  C   UNL     1       3.970   2.397  20.182  0.00  0.00    +0.000 C 
ATOM     15  N   UNL     1       3.932   3.226  18.958  0.00  0.00    +0.000 NA
BRANCH  15  16
ATOM     16  C   UNL     1       2.575   3.754  18.672  0.00  0.00    +0.000 C 
BRANCH  16  17
ATOM     17  C   UNL     1       2.352   5.209  19.039  0.00  0.00    +0.000 A 
ATOM     18  C   UNL     1       1.920   5.519  20.342  0.00  0.00    +0.000 A 
ATOM     19  C   UNL     1       1.710   6.844  20.729  0.00  0.00    +0.000 A 
ATOM     20  C   UNL     1       1.926   7.881  19.819  0.00  0.00    +0.000 A 
ATOM     21  C   UNL     1       2.366   7.590  18.524  0.00  0.00    +0.000 A 
ATOM     22  C   UNL     1       2.587   6.262  18.135  0.00  0.00    +0.000 A 
ENDBRANCH  16  17
ENDBRANCH  15  16
ENDBRANCH  13  15
ENDBRANCH   1  13
TORSDOF 5
ENDMDL
MODEL 6
REMARK VINA RESULT:      -7.2      4.264      6.030
REMARK  Name = 
REMARK  6 active torsions:
REMARK  status: ('A' for Active; 'I' for Inactive)
REMARK    1  A    between atoms: C_1  and  N_2
REMARK    2  A    between atoms: N_2  and  C_3
REMARK    3  A    between atoms: N_2  and  C_10
REMARK    4  A    between atoms: C_3  and  C_4
REMARK    5  A    between atoms: C_10  and  C_11
REMARK    6  A    between atoms: C_14  and  C_15
REMARK                            x       y       z     vdW  Elec       q    Type
REMARK                         _______ _______ _______ _____ _____    ______ ____
ROOT
ATOM      1  C   UNL     1       6.908   7.012  17.599  0.00  0.00    +0.000 A 
ATOM      2  C   UNL     1       7.797   6.516  18.524  0.00  0.00    +0.000 A 
ATOM      3  N   UNL     1       8.580   7.527  18.934  0.00  0.00    +0.000 N 
ATOM      4  C   UNL     1       8.163   8.618  18.251  0.00  0.00    +0.000 A 
ATOM      5  N   UNL     1       7.139   8.328  17.415  0.00  0.00    +0.000 NA
ATOM      6  H   UNL     1       9.335   7.452  19.644  0.00  0.00    +0.000 HD
ENDROOT
BRANCH   4   7
ATOM      7  C   UNL     1       8.753   9.975  18.395  0.00  0.00    +0.000 A 
ATOM      8  C   UNL     1       9.748  10.234  19.357  0.00  0.00    +0.000 A 
ATOM      9  C   UNL     1      10.296  11.512  19.492  0.00  0.00    +0.000 A 
ATOM     10  C   UNL     1       9.859  12.553  18.673  0.00  0.00    +0.000 A 
ATOM     11  C   UNL     1       8.870  12.316  17.715  0.00  0.00    +0.000 A 
ATOM     12  C   UNL     1       8.320  11.036  17.573  0.00  0.00    +0.000 A 
ENDBRANCH   4   7
BRANCH   1  13
ATOM     13  C   UNL     1       5.843   6.233  16.878  0.00  0.00    +0.000 C 
BRANCH  13  15
ATOM     14  C   UNL     1       3.732   7.293  17.447  0.00  0.00    +0.000 C 
ATOM     15  N   UNL     1       4.583   6.101  17.654  0.00  0.00    +0.000 NA
BRANCH  15  16
ATOM     16  C   UNL     1       3.911   4.845  17.236  0.00  0.00    +0.000 C 
BRANCH  16  17
ATOM     17  C   UNL     1       2.863   4.317  18.197  0.00  0.00    +0.000 A 
ATOM     18  C   UNL     1       2.048   3.246  17.787  0.00  0.00    +0.000 A 
ATOM     19  C   UNL     1       1.075   2.720  18.640  0.00  0.00    +0.000 A 
ATOM     20  C   UNL     1       0.900   3.258  19.916  0.00  0.00    +0.000 A 
ATOM     21  C   UNL     1       1.709   4.315  20.343  0.00  0.00    +0.000 A 
ATOM     22  C   UNL     1       2.693   4.840  19.494  0.00  0.00    +0.000 A 
ENDBRANCH  16  17
ENDBRANCH  15  16
ENDBRANCH  13  15
ENDBRANCH   1  13
TORSDOF 5
ENDMDL
MODEL 7
REMARK VINA RESULT:      -7.2      1.210      1.968
REMARK  Name = 
REMARK  6 active torsions:
REMARK  status: ('A' for Active; 'I' for Inactive)
REMARK    1  A    between atoms: C_1  and  N_2
REMARK    2  A    between atoms: N_2  and  C_3
REMARK    3  A    between atoms: N_2  and  C_10
REMARK    4  A    between atoms: C_3  and  C_4
REMARK    5  A    between atoms: C_10  and  C_11
REMARK    6  A    between atoms: C_14  and  C_15
REMARK                            x       y       z     vdW  Elec       q    Type
REMARK                         _______ _______ _______ _____ _____    ______ ____
ROOT
ATOM      1  C   UNL     1       4.808   5.307  17.618  0.00  0.00    +0.000 A 
ATOM      2  C   UNL     1       5.368   6.541  17.382  0.00  0.00    +0.000 A 
ATOM      3  N   UNL     1       5.938   6.514  16.167  0.00  0.00    +0.000 N 
ATOM      4  C   UNL     1       5.724   5.268  15.686  0.00  0.00    +0.000 A 
ATOM      5  N   UNL     1       5.036   4.500  16.563  0.00  0.00    +0.000 NA
ATOM      6  H   UNL     1       6.425   7.313  15.715  0.00  0.00    +0.000 HD
ENDROOT
BRANCH   4   7
ATOM      7  C   UNL     1       6.184   4.791  14.354  0.00  0.00    +0.000 A 
ATOM      8  C   UNL     1       5.463   3.807  13.649  0.00  0.00    +0.000 A 
ATOM      9  C   UNL     1       5.902   3.359  12.401  0.00  0.00    +0.000 A 
ATOM     10  C   UNL     1       7.066   3.880  11.837  0.00  0.00    +0.000 A 
ATOM     11  C   UNL     1       7.796   4.854  12.524  0.00  0.00    +0.000 A 
ATOM     12  C   UNL     1       7.359   5.309  13.774  0.00  0.00    +0.000 A 
ENDBRANCH   4   7
BRANCH   1  13
ATOM     13  C   UNL     1       4.063   4.887  18.856  0.00  0.00    +0.000 C 
BRANCH  13  15
ATOM     14  C   UNL     1       1.737   4.210  19.038  0.00  0.00    +0.000 C 
ATOM     15  N   UNL     1       2.654   5.360  18.884  0.00  0.00    +0.000 NA
BRANCH  15  16
ATOM     16  C   UNL     1       2.518   6.346  19.984  0.00  0.00    +0.000 C 
BRANCH  16  17
ATOM     17  C   UNL     1       2.000   7.711  19.573  0.00  0.00    +0.000 A 
ATOM     18  C   UNL     1       2.225   8.152  18.256  0.00  0.00    +0.000 A 
ATOM     19  C   UNL     1       1.760   9.397  17.829  0.00  0.00    +0.000 A 
ATOM     20  C   UNL     1       1.063  10.223  18.713  0.00  0.00    +0.000 A 
ATOM     21  C   UNL     1       0.820   9.795  20.021  0.00  0.00    +0.000 A 
ATOM     22  C   UNL     1       1.278   8.542  20.451  0.00  0.00    +0.000 A 
ENDBRANCH  16  17
ENDBRANCH  15  16
ENDBRANCH  13  15
ENDBRANCH   1  13
TORSDOF 5
ENDMDL
MODEL 8
REMARK VINA RESULT:      -7.2      1.779      7.293
REMARK  Name = 
REMARK  6 active torsions:
REMARK  status: ('A' for Active; 'I' for Inactive)
REMARK    1  A    between atoms: C_1  and  N_2
REMARK    2  A    between atoms: N_2  and  C_3
REMARK    3  A    between atoms: N_2  and  C_10
REMARK    4  A    between atoms: C_3  and  C_4
REMARK    5  A    between atoms: C_10  and  C_11
REMARK    6  A    between atoms: C_14  and  C_15
REMARK                            x       y       z     vdW  Elec       q    Type
REMARK                         _______ _______ _______ _____ _____    ______ ____
ROOT
ATOM      1  C   UNL     1       4.920   6.528  17.717  0.00  0.00    +0.000 A 
ATOM      2  C   UNL     1       3.787   7.273  17.489  0.00  0.00    +0.000 A 
ATOM      3  N   UNL     1       2.760   6.672  18.111  0.00  0.00    +0.000 N 
ATOM      4  C   UNL     1       3.279   5.571  18.701  0.00  0.00    +0.000 A 
ATOM      5  N   UNL     1       4.607   5.452  18.468  0.00  0.00    +0.000 NA
ATOM      6  H   UNL     1       1.781   7.019  18.126  0.00  0.00    +0.000 HD
ENDROOT
BRANCH   4   7
ATOM      7  C   UNL     1       2.493   4.602  19.511  0.00  0.00    +0.000 A 
ATOM      8  C   UNL     1       2.734   4.448  20.890  0.00  0.00    +0.000 A 
ATOM      9  C   UNL     1       1.996   3.534  21.646  0.00  0.00    +0.000 A 
ATOM     10  C   UNL     1       1.010   2.756  21.039  0.00  0.00    +0.000 A 
ATOM     11  C   UNL     1       0.760   2.892  19.672  0.00  0.00    +0.000 A 
ATOM     12  C   UNL     1       1.494   3.810  18.910  0.00  0.00    +0.000 A 
ENDBRANCH   4   7
BRANCH   1  13
ATOM     13  C   UNL     1       6.304   6.829  17.211  0.00  0.00    +0.000 C 
BRANCH  13  15
ATOM     14  C   UNL     1       7.595   4.822  17.665  0.00  0.00    +0.000 C 
ATOM     15  N   UNL     1       6.979   5.652  16.607  0.00  0.00    +0.000 NA
BRANCH  15  16
ATOM     16  C   UNL     1       5.978   4.902  15.809  0.00  0.00    +0.000 C 
BRANCH  16  17
ATOM     17  C   UNL     1       6.379   4.602  14.377  0.00  0.00    +0.000 A 
ATOM     18  C   UNL     1       5.621   3.671  13.643  0.00  0.00    +0.000 A 
ATOM     19  C   UNL     1       5.946   3.370  12.319  0.00  0.00    +0.000 A 
ATOM     20  C   UNL     1       7.035   3.994  11.707  0.00  0.00    +0.000 A 
ATOM     21  C   UNL     1       7.791   4.929  12.419  0.00  0.00    +0.000 A 
ATOM     22  C   UNL     1       7.463   5.242  13.745  0.00  0.00    +0.000 A 
ENDBRANCH  16  17
ENDBRANCH  15  16
ENDBRANCH  13  15
ENDBRANCH   1  13
TORSDOF 5
ENDMDL
MODEL 9
REMARK VINA RESULT:      -7.2      0.813      1.355
REMARK  Name = 
REMARK  6 active torsions:
REMARK  status: ('A' for Active; 'I' for Inactive)
REMARK    1  A    between atoms: C_1  and  N_2
REMARK    2  A    between atoms: N_2  and  C_3
REMARK    3  A    between atoms: N_2  and  C_10
REMARK    4  A    between atoms: C_3  and  C_4
REMARK    5  A    between atoms: C_10  and  C_11
REMARK    6  A    between atoms: C_14  and  C_15
REMARK                            x       y       z     vdW  Elec       q    Type
REMARK                         _______ _______ _______ _____ _____    ______ ____
ROOT
ATOM      1  C   UNL     1       5.251   4.763  17.977  0.00  0.00    +0.000 A 
ATOM      2  C   UNL     1       6.481   5.354  18.142  0.00  0.00    +0.000 A 
ATOM      3  N   UNL     1       7.101   5.366  16.952  0.00  0.00    +0.000 N 
ATOM      4  C   UNL     1       6.247   4.779  16.083  0.00  0.00    +0.000 A 
ATOM      5  N   UNL     1       5.101   4.389  16.689  0.00  0.00    +0.000 NA
ATOM      6  H   UNL     1       8.043   5.768  16.769  0.00  0.00    +0.000 HD
ENDROOT
BRANCH   4   7
ATOM      7  C   UNL     1       6.524   4.581  14.636  0.00  0.00    +0.000 A 
ATOM      8  C   UNL     1       5.775   3.661  13.875  0.00  0.00    +0.000 A 
ATOM      9  C   UNL     1       6.042   3.475  12.516  0.00  0.00    +0.000 A 
ATOM     10  C   UNL     1       7.059   4.199  11.895  0.00  0.00    +0.000 A 
ATOM     11  C   UNL     1       7.814   5.113  12.635  0.00  0.00    +0.000 A 
ATOM     12  C   UNL     1       7.548   5.307  13.996  0.00  0.00    +0.000 A 
ENDBRANCH   4   7
BRANCH   1  13
ATOM     13  C   UNL     1       4.216   4.538  19.046  0.00  0.00    +0.000 C 
BRANCH  13  15
ATOM     14  C   UNL     1       1.880   4.124  18.523  0.00  0.00    +0.000 C 
ATOM     15  N   UNL     1       2.906   5.168  18.738  0.00  0.00    +0.000 NA
BRANCH  15  16
ATOM     16  C   UNL     1       2.558   6.083  19.853  0.00  0.00    +0.000 C 
BRANCH  16  17
ATOM     17  C   UNL     1       2.099   7.468  19.438  0.00  0.00    +0.000 A 
ATOM     18  C   UNL     1       1.420   8.265  20.378  0.00  0.00    +0.000 A 
ATOM     19  C   UNL     1       0.985   9.550  20.045  0.00  0.00    +0.000 A 
ATOM     20  C   UNL     1       1.221  10.058  18.767  0.00  0.00    +0.000 A 
ATOM     21  C   UNL     1       1.904   9.283  17.825  0.00  0.00    +0.000 A 
ATOM     22  C   UNL     1       2.350   7.997  18.157  0.00  0.00    +0.000 A 
ENDBRANCH  16  17
ENDBRANCH  15  16
ENDBRANCH  13  15
ENDBRANCH   1  13
TORSDOF 5
ENDMDL
