MODEL 1
REMARK VINA RESULT:      -9.3      0.000      0.000
REMARK  Name = 
REMARK  10 active torsions:
REMARK  status: ('A' for Active; 'I' for Inactive)
REMARK    1  A    between atoms: C_1  and  C_2
REMARK    2  A    between atoms: C_2  and  C_3
REMARK    3  A    between atoms: C_6  and  C_7
REMARK    4  A    between atoms: C_9  and  N_10
REMARK    5  A    between atoms: N_10  and  C_11
REMARK    6  A    between atoms: C_11  and  C_12
REMARK    7  A    between atoms: C_11  and  C_13
REMARK    8  A    between atoms: C_17  and  C_18
REMARK    9  A    between atoms: N_21  and  C_22
REMARK   10  A    between atoms: C_26  and  C_27
REMARK                            x       y       z     vdW  Elec       q    Type
REMARK                         _______ _______ _______ _____ _____    ______ ____
ROOT
ATOM      1  N   UNL     1       1.652   8.581  19.853  0.00  0.00    +0.000 N 
ATOM      2  H   UNL     1       2.347   9.302  19.755  0.00  0.00    +0.000 HD
ENDROOT
BRANCH   1   5
ATOM      3  C   UNL     1       3.407   5.736  18.392  0.00  0.00    +0.000 A 
ATOM      4  C   UNL     1       2.949   7.032  18.576  0.00  0.00    +0.000 A 
ATOM      5  C   UNL     1       2.155   7.284  19.670  0.00  0.00    +0.000 A 
ATOM      6  N   UNL     1       1.802   6.308  20.514  0.00  0.00    +0.000 NA
ATOM      7  C   UNL     1       2.300   5.073  20.276  0.00  0.00    +0.000 A 
ATOM      8  C   UNL     1       2.000   4.002  21.280  0.00  0.00    +0.000 C 
ATOM      9  N   UNL     1       3.099   4.752  19.259  0.00  0.00    +0.000 NA
BRANCH   3  13
ATOM     10  C   UNL     1       5.847   4.606  15.038  0.00  0.00    +0.000 A 
ATOM     11  C   UNL     1       5.503   5.948  15.255  0.00  0.00    +0.000 A 
ATOM     12  C   UNL     1       4.722   6.303  16.352  0.00  0.00    +0.000 A 
ATOM     13  C   UNL     1       4.255   5.340  17.264  0.00  0.00    +0.000 A 
ATOM     14  C   UNL     1       4.630   4.001  17.047  0.00  0.00    +0.000 A 
ATOM     15  C   UNL     1       5.422   3.644  15.956  0.00  0.00    +0.000 A 
BRANCH  10  17
ATOM     16  C   UNL     1       5.810   3.569  12.744  0.00  0.00    +0.000 C 
ATOM     17  C   UNL     1       6.657   4.214  13.830  0.00  0.00    +0.000 C 
ENDBRANCH  10  17
ENDBRANCH   3  13
ENDBRANCH   1   5
BRANCH   1  18
ATOM     18  C   UNL     1       0.683   8.836  20.926  0.00  0.00    +0.000 C 
ATOM     19  C   UNL     1       1.390   9.124  22.269  0.00  0.00    +0.000 C 
BRANCH  18  20
ATOM     20  C   UNL     1      -0.190  10.018  20.489  0.00  0.00    +0.000 A 
ATOM     21  C   UNL     1      -0.250  11.173  21.286  0.00  0.00    +0.000 A 
ATOM     22  C   UNL     1      -1.084  12.244  20.937  0.00  0.00    +0.000 A 
ATOM     23  C   UNL     1      -1.873  12.180  19.789  0.00  0.00    +0.000 A 
ATOM     24  C   UNL     1      -1.814  11.054  18.969  0.00  0.00    +0.000 A 
ATOM     25  C   UNL     1      -0.977   9.987  19.327  0.00  0.00    +0.000 A 
BRANCH  24  26
ATOM     26  C   UNL     1      -2.601  10.954  17.759  0.00  0.00    +0.000 A 
ATOM     27  C   UNL     1      -3.864  11.505  17.437  0.00  0.00    +0.000 A 
ATOM     28  N   UNL     1      -4.232  11.248  16.183  0.00  0.00    +0.000 NA
ATOM     29  N   UNL     1      -3.195  10.543  15.688  0.00  0.00    +0.000 N 
ATOM     30  C   UNL     1      -3.193  10.125  14.310  0.00  0.00    +0.000 C 
ATOM     31  C   UNL     1      -2.201  10.334  16.598  0.00  0.00    +0.000 A 
ENDBRANCH  24  26
ENDBRANCH  18  20
ENDBRANCH   1  18
TORSDOF 6
ENDMDL
MODEL 2
REMARK VINA RESULT:      -8.9      2.533      4.314
REMARK  Name = 
REMARK  10 active torsions:
REMARK  status: ('A' for Active; 'I' for Inactive)
REMARK    1  A    between atoms: C_1  and  C_2
REMARK    2  A    between atoms: C_2  and  C_3
REMARK    3  A    between atoms: C_6  and  C_7
REMARK    4  A    between atoms: C_9  and  N_10
REMARK    5  A    between atoms: N_10  and  C_11
REMARK    6  A    between atoms: C_11  and  C_12
REMARK    7  A    between atoms: C_11  and  C_13
REMARK    8  A    between atoms: C_17  and  C_18
REMARK    9  A    between atoms: N_21  and  C_22
REMARK   10  A    between atoms: C_26  and  C_27
REMARK                            x       y       z     vdW  Elec       q    Type
REMARK                         _______ _______ _______ _____ _____    ______ ____
ROOT
ATOM      1  N   UNL     1       0.203  11.146  18.015  0.00  0.00    +0.000 N 
ATOM      2  H   UNL     1       0.828  11.588  17.362  0.00  0.00    +0.000 HD
ENDROOT
BRANCH   1   5
ATOM      3  C   UNL     1       2.056   8.086  18.728  0.00  0.00    +0.000 A 
ATOM      4  C   UNL     1       1.519   9.151  18.021  0.00  0.00    +0.000 A 
ATOM      5  C   UNL     1       0.785  10.081  18.719  0.00  0.00    +0.000 A 
ATOM      6  N   UNL     1       0.562   9.950  20.032  0.00  0.00    +0.000 NA
ATOM      7  C   UNL     1       1.131   8.891  20.654  0.00  0.00    +0.000 A 
ATOM      8  C   UNL     1       0.979   8.802  22.142  0.00  0.00    +0.000 C 
ATOM      9  N   UNL     1       1.880   7.965  20.058  0.00  0.00    +0.000 NA
BRANCH   3  13
ATOM     10  C   UNL     1       4.392   4.947  16.946  0.00  0.00    +0.000 A 
ATOM     11  C   UNL     1       3.195   4.658  17.617  0.00  0.00    +0.000 A 
ATOM     12  C   UNL     1       2.442   5.685  18.180  0.00  0.00    +0.000 A 
ATOM     13  C   UNL     1       2.852   7.028  18.099  0.00  0.00    +0.000 A 
ATOM     14  C   UNL     1       4.041   7.305  17.399  0.00  0.00    +0.000 A 
ATOM     15  C   UNL     1       4.793   6.279  16.825  0.00  0.00    +0.000 A 
BRANCH  10  17
ATOM     16  C   UNL     1       5.755   4.159  14.981  0.00  0.00    +0.000 C 
ATOM     17  C   UNL     1       5.231   3.835  16.372  0.00  0.00    +0.000 C 
ENDBRANCH  10  17
ENDBRANCH   3  13
ENDBRANCH   1   5
BRANCH   1  18
ATOM     18  C   UNL     1      -0.675  12.086  18.722  0.00  0.00    +0.000 C 
ATOM     19  C   UNL     1      -0.294  13.553  18.419  0.00  0.00    +0.000 C 
BRANCH  18  20
ATOM     20  C   UNL     1      -2.115  11.784  18.296  0.00  0.00    +0.000 A 
ATOM     21  C   UNL     1      -2.373  11.288  17.008  0.00  0.00    +0.000 A 
ATOM     22  C   UNL     1      -3.686  11.056  16.576  0.00  0.00    +0.000 A 
ATOM     23  C   UNL     1      -4.764  11.316  17.421  0.00  0.00    +0.000 A 
ATOM     24  C   UNL     1      -4.534  11.787  18.713  0.00  0.00    +0.000 A 
ATOM     25  C   UNL     1      -3.216  12.017  19.135  0.00  0.00    +0.000 A 
BRANCH  24  26
ATOM     26  C   UNL     1      -5.622  12.053  19.629  0.00  0.00    +0.000 A 
ATOM     27  C   UNL     1      -7.022  11.966  19.442  0.00  0.00    +0.000 A 
ATOM     28  N   UNL     1      -7.705  12.222  20.556  0.00  0.00    +0.000 NA
ATOM     29  N   UNL     1      -6.743  12.459  21.469  0.00  0.00    +0.000 N 
ATOM     30  C   UNL     1      -7.093  12.721  22.842  0.00  0.00    +0.000 C 
ATOM     31  C   UNL     1      -5.482  12.379  20.958  0.00  0.00    +0.000 A 
ENDBRANCH  24  26
ENDBRANCH  18  20
ENDBRANCH   1  18
TORSDOF 6
ENDMDL
MODEL 3
REMARK VINA RESULT:      -8.8      3.377      6.563
REMARK  Name = 
REMARK  10 active torsions:
REMARK  status: ('A' for Active; 'I' for Inactive)
REMARK    1  A    between atoms: C_1  and  C_2
REMARK    2  A    between atoms: C_2  and  C_3
REMARK    3  A    between atoms: C_6  and  C_7
REMARK    4  A    between atoms: C_9  and  N_10
REMARK    5  A    between atoms: N_10  and  C_11
REMARK    6  A    between atoms: C_11  and  C_12
REMARK    7  A    between atoms: C_11  and  C_13
REMARK    8  A    between atoms: C_17  and  C_18
REMARK    9  A    between atoms: N_21  and  C_22
REMARK   10  A    between atoms: C_26  and  C_27
REMARK                            x       y       z     vdW  Elec       q    Type
REMARK                         _______ _______ _______ _____ _____    ______ ____
ROOT
ATOM      1  N   UNL     1       4.768   3.115  17.969  0.00  0.00    +0.000 N 
ATOM      2  H   UNL     1       5.116   2.172  18.011  0.00  0.00    +0.000 HD
ENDROOT
BRANCH   1   5
ATOM      3  C   UNL     1       6.875   5.957  17.080  0.00  0.00    +0.000 A 
ATOM      4  C   UNL     1       6.105   5.092  17.843  0.00  0.00    +0.000 A 
ATOM      5  C   UNL     1       5.581   3.982  17.223  0.00  0.00    +0.000 A 
ATOM      6  N   UNL     1       5.774   3.756  15.918  0.00  0.00    +0.000 NA
ATOM      7  C   UNL     1       6.549   4.638  15.245  0.00  0.00    +0.000 A 
ATOM      8  C   UNL     1       6.861   4.328  13.813  0.00  0.00    +0.000 C 
ATOM      9  N   UNL     1       7.118   5.719  15.777  0.00  0.00    +0.000 NA
BRANCH   3  13
ATOM     10  C   UNL     1       8.690   9.545  18.604  0.00  0.00    +0.000 A 
ATOM     11  C   UNL     1       7.836   9.589  17.492  0.00  0.00    +0.000 A 
ATOM     12  C   UNL     1       7.245   8.421  17.015  0.00  0.00    +0.000 A 
ATOM     13  C   UNL     1       7.484   7.175  17.622  0.00  0.00    +0.000 A 
ATOM     14  C   UNL     1       8.323   7.151  18.752  0.00  0.00    +0.000 A 
ATOM     15  C   UNL     1       8.907   8.320  19.239  0.00  0.00    +0.000 A 
BRANCH  10  17
ATOM     16  C   UNL     1       9.537  10.811  20.608  0.00  0.00    +0.000 C 
ATOM     17  C   UNL     1       9.363  10.799  19.097  0.00  0.00    +0.000 C 
ENDBRANCH  10  17
ENDBRANCH   3  13
ENDBRANCH   1   5
BRANCH   1  18
ATOM     18  C   UNL     1       3.309   3.202  17.841  0.00  0.00    +0.000 C 
ATOM     19  C   UNL     1       2.635   1.838  18.107  0.00  0.00    +0.000 C 
BRANCH  18  20
ATOM     20  C   UNL     1       2.820   4.269  18.827  0.00  0.00    +0.000 A 
ATOM     21  C   UNL     1       2.486   3.904  20.141  0.00  0.00    +0.000 A 
ATOM     22  C   UNL     1       1.985   4.850  21.045  0.00  0.00    +0.000 A 
ATOM     23  C   UNL     1       1.807   6.176  20.653  0.00  0.00    +0.000 A 
ATOM     24  C   UNL     1       2.153   6.570  19.360  0.00  0.00    +0.000 A 
ATOM     25  C   UNL     1       2.653   5.614  18.463  0.00  0.00    +0.000 A 
BRANCH  24  26
ATOM     26  C   UNL     1       2.001   7.939  18.917  0.00  0.00    +0.000 A 
ATOM     27  C   UNL     1       2.473   8.584  17.749  0.00  0.00    +0.000 A 
ATOM     28  N   UNL     1       2.062   9.847  17.659  0.00  0.00    +0.000 NA
ATOM     29  N   UNL     1       1.309  10.014  18.764  0.00  0.00    +0.000 N 
ATOM     30  C   UNL     1       0.626  11.260  18.997  0.00  0.00    +0.000 C 
ATOM     31  C   UNL     1       1.252   8.902  19.551  0.00  0.00    +0.000 A 
ENDBRANCH  24  26
ENDBRANCH  18  20
ENDBRANCH   1  18
TORSDOF 6
ENDMDL
MODEL 4
REMARK VINA RESULT:      -8.6      2.621      3.470
REMARK  Name = 
REMARK  10 active torsions:
REMARK  status: ('A' for Active; 'I' for Inactive)
REMARK    1  A    between atoms: C_1  and  C_2
REMARK    2  A    between atoms: C_2  and  C_3
REMARK    3  A    between atoms: C_6  and  C_7
REMARK    4  A    between atoms: C_9  and  N_10
REMARK    5  A    between atoms: N_10  and  C_11
REMARK    6  A    between atoms: C_11  and  C_12
REMARK    7  A    between atoms: C_11  and  C_13
REMARK    8  A    between atoms: C_17  and  C_18
REMARK    9  A    between atoms: N_21  and  C_22
REMARK   10  A    between atoms: C_26  and  C_27
REMARK                            x       y       z     vdW  Elec       q    Type
REMARK                         _______ _______ _______ _____ _____    ______ ____
ROOT
ATOM      1  N   UNL     1       1.672   8.613  20.287  0.00  0.00    +0.000 N 
ATOM      2  H   UNL     1       2.324   9.066  20.905  0.00  0.00    +0.000 HD
ENDROOT
BRANCH   1   5
ATOM      3  C   UNL     1       3.219   5.822  18.519  0.00  0.00    +0.000 A 
ATOM      4  C   UNL     1       2.892   7.123  18.872  0.00  0.00    +0.000 A 
ATOM      5  C   UNL     1       2.042   7.305  19.938  0.00  0.00    +0.000 A 
ATOM      6  N   UNL     1       1.514   6.266  20.594  0.00  0.00    +0.000 NA
ATOM      7  C   UNL     1       1.892   5.028  20.199  0.00  0.00    +0.000 A 
ATOM      8  C   UNL     1       1.393   3.866  21.003  0.00  0.00    +0.000 C 
ATOM      9  N   UNL     1       2.733   4.766  19.200  0.00  0.00    +0.000 NA
BRANCH   3  13
ATOM     10  C   UNL     1       5.790   4.908  15.197  0.00  0.00    +0.000 A 
ATOM     11  C   UNL     1       5.567   6.237  15.588  0.00  0.00    +0.000 A 
ATOM     12  C   UNL     1       4.741   6.519  16.673  0.00  0.00    +0.000 A 
ATOM     13  C   UNL     1       4.109   5.496  17.401  0.00  0.00    +0.000 A 
ATOM     14  C   UNL     1       4.363   4.167  17.013  0.00  0.00    +0.000 A 
ATOM     15  C   UNL     1       5.198   3.880  15.933  0.00  0.00    +0.000 A 
BRANCH  10  17
ATOM     16  C   UNL     1       5.997   3.604  13.053  0.00  0.00    +0.000 C 
ATOM     17  C   UNL     1       6.649   4.601  13.998  0.00  0.00    +0.000 C 
ENDBRANCH  10  17
ENDBRANCH   3  13
ENDBRANCH   1   5
BRANCH   1  18
ATOM     18  C   UNL     1       0.266   8.910  20.589  0.00  0.00    +0.000 C 
ATOM     19  C   UNL     1       0.042   9.099  22.106  0.00  0.00    +0.000 C 
BRANCH  18  20
ATOM     20  C   UNL     1      -0.119  10.169  19.806  0.00  0.00    +0.000 A 
ATOM     21  C   UNL     1      -1.394  10.266  19.224  0.00  0.00    +0.000 A 
ATOM     22  C   UNL     1      -1.751  11.382  18.456  0.00  0.00    +0.000 A 
ATOM     23  C   UNL     1      -0.842  12.421  18.255  0.00  0.00    +0.000 A 
ATOM     24  C   UNL     1       0.422  12.360  18.841  0.00  0.00    +0.000 A 
ATOM     25  C   UNL     1       0.769  11.237  19.606  0.00  0.00    +0.000 A 
BRANCH  24  26
ATOM     26  C   UNL     1       1.389  13.423  18.672  0.00  0.00    +0.000 A 
ATOM     27  C   UNL     1       1.300  14.802  18.975  0.00  0.00    +0.000 A 
ATOM     28  N   UNL     1       2.438  15.453  18.744  0.00  0.00    +0.000 NA
ATOM     29  N   UNL     1       3.270  14.488  18.305  0.00  0.00    +0.000 N 
ATOM     30  C   UNL     1       4.644  14.796  18.002  0.00  0.00    +0.000 C 
ATOM     31  C   UNL     1       2.683  13.259  18.237  0.00  0.00    +0.000 A 
ENDBRANCH  24  26
ENDBRANCH  18  20
ENDBRANCH   1  18
TORSDOF 6
ENDMDL
MODEL 5
REMARK VINA RESULT:      -8.6      2.587      4.053
REMARK  Name = 
REMARK  10 active torsions:
REMARK  status: ('A' for Active; 'I' for Inactive)
REMARK    1  A    between atoms: C_1  and  C_2
REMARK    2  A    between atoms: C_2  and  C_3
REMARK    3  A    between atoms: C_6  and  C_7
REMARK    4  A    between atoms: C_9  and  N_10
REMARK    5  A    between atoms: N_10  and  C_11
REMARK    6  A    between atoms: C_11  and  C_12
REMARK    7  A    between atoms: C_11  and  C_13
REMARK    8  A    between atoms: C_17  and  C_18
REMARK    9  A    between atoms: N_21  and  C_22
REMARK   10  A    between atoms: C_26  and  C_27
REMARK                            x       y       z     vdW  Elec       q    Type
REMARK                         _______ _______ _______ _____ _____    ______ ____
ROOT
ATOM      1  N   UNL     1       1.637   8.356  20.874  0.00  0.00    +0.000 N 
ATOM      2  H   UNL     1       2.155   8.609  21.699  0.00  0.00    +0.000 HD
ENDROOT
BRANCH   1   5
ATOM      3  C   UNL     1       3.084   5.759  18.760  0.00  0.00    +0.000 A 
ATOM      4  C   UNL     1       2.795   7.016  19.270  0.00  0.00    +0.000 A 
ATOM      5  C   UNL     1       1.970   7.091  20.367  0.00  0.00    +0.000 A 
ATOM      6  N   UNL     1       1.429   5.993  20.908  0.00  0.00    +0.000 NA
ATOM      7  C   UNL     1       1.769   4.802  20.363  0.00  0.00    +0.000 A 
ATOM      8  C   UNL     1       1.257   3.565  21.036  0.00  0.00    +0.000 C 
ATOM      9  N   UNL     1       2.585   4.641  19.322  0.00  0.00    +0.000 NA
BRANCH   3  13
ATOM     10  C   UNL     1       5.650   5.090  15.376  0.00  0.00    +0.000 A 
ATOM     11  C   UNL     1       4.988   4.020  15.998  0.00  0.00    +0.000 A 
ATOM     12  C   UNL     1       4.150   4.252  17.086  0.00  0.00    +0.000 A 
ATOM     13  C   UNL     1       3.945   5.547  17.593  0.00  0.00    +0.000 A 
ATOM     14  C   UNL     1       4.595   6.613  16.943  0.00  0.00    +0.000 A 
ATOM     15  C   UNL     1       5.427   6.385  15.846  0.00  0.00    +0.000 A 
BRANCH  10  17
ATOM     16  C   UNL     1       6.105   3.722  13.312  0.00  0.00    +0.000 C 
ATOM     17  C   UNL     1       6.589   4.838  14.225  0.00  0.00    +0.000 C 
ENDBRANCH  10  17
ENDBRANCH   3  13
ENDBRANCH   1   5
BRANCH   1  18
ATOM     18  C   UNL     1       0.230   8.774  20.908  0.00  0.00    +0.000 C 
ATOM     19  C   UNL     1      -0.271   8.955  22.358  0.00  0.00    +0.000 C 
BRANCH  18  20
ATOM     20  C   UNL     1       0.116  10.078  20.111  0.00  0.00    +0.000 A 
ATOM     21  C   UNL     1      -0.991  10.289  19.274  0.00  0.00    +0.000 A 
ATOM     22  C   UNL     1      -1.091  11.448  18.492  0.00  0.00    +0.000 A 
ATOM     23  C   UNL     1      -0.088  12.416  18.532  0.00  0.00    +0.000 A 
ATOM     24  C   UNL     1       1.011  12.241  19.373  0.00  0.00    +0.000 A 
ATOM     25  C   UNL     1       1.102  11.077  20.150  0.00  0.00    +0.000 A 
BRANCH  24  26
ATOM     26  C   UNL     1       2.067  13.228  19.459  0.00  0.00    +0.000 A 
ATOM     27  C   UNL     1       2.604  14.086  18.470  0.00  0.00    +0.000 A 
ATOM     28  N   UNL     1       3.525  14.915  18.957  0.00  0.00    +0.000 NA
ATOM     29  N   UNL     1       3.572  14.602  20.267  0.00  0.00    +0.000 N 
ATOM     30  C   UNL     1       4.427  15.340  21.160  0.00  0.00    +0.000 C 
ATOM     31  C   UNL     1       2.723  13.592  20.611  0.00  0.00    +0.000 A 
ENDBRANCH  24  26
ENDBRANCH  18  20
ENDBRANCH   1  18
TORSDOF 6
ENDMDL
MODEL 6
REMARK VINA RESULT:      -8.6      0.801      1.560
REMARK  Name = 
REMARK  10 active torsions:
REMARK  status: ('A' for Active; 'I' for Inactive)
REMARK    1  A    between atoms: C_1  and  C_2
REMARK    2  A    between atoms: C_2  and  C_3
REMARK    3  A    between atoms: C_6  and  C_7
REMARK    4  A    between atoms: C_9  and  N_10
REMARK    5  A    between atoms: N_10  and  C_11
REMARK    6  A    between atoms: C_11  and  C_12
REMARK    7  A    between atoms: C_11  and  C_13
REMARK    8  A    between atoms: C_17  and  C_18
REMARK    9  A    between atoms: N_21  and  C_22
REMARK   10  A    between atoms: C_26  and  C_27
REMARK                            x       y       z     vdW  Elec       q    Type
REMARK                         _______ _______ _______ _____ _____    ______ ____
ROOT
ATOM      1  N   UNL     1       1.876   8.638  20.041  0.00  0.00    +0.000 N 
ATOM      2  H   UNL     1       2.667   9.209  20.286  0.00  0.00    +0.000 HD
ENDROOT
BRANCH   1   5
ATOM      3  C   UNL     1       3.302   5.743  18.341  0.00  0.00    +0.000 A 
ATOM      4  C   UNL     1       3.010   7.064  18.646  0.00  0.00    +0.000 A 
ATOM      5  C   UNL     1       2.211   7.310  19.737  0.00  0.00    +0.000 A 
ATOM      6  N   UNL     1       1.696   6.311  20.464  0.00  0.00    +0.000 NA
ATOM      7  C   UNL     1       2.037   5.050  20.112  0.00  0.00    +0.000 A 
ATOM      8  C   UNL     1       1.556   3.935  20.989  0.00  0.00    +0.000 C 
ATOM      9  N   UNL     1       2.830   4.728  19.090  0.00  0.00    +0.000 NA
BRANCH   3  13
ATOM     10  C   UNL     1       5.795   4.554  15.047  0.00  0.00    +0.000 A 
ATOM     11  C   UNL     1       5.219   3.595  15.893  0.00  0.00    +0.000 A 
ATOM     12  C   UNL     1       4.404   3.993  16.950  0.00  0.00    +0.000 A 
ATOM     13  C   UNL     1       4.137   5.350  17.202  0.00  0.00    +0.000 A 
ATOM     14  C   UNL     1       4.701   6.299  16.329  0.00  0.00    +0.000 A 
ATOM     15  C   UNL     1       5.510   5.903  15.263  0.00  0.00    +0.000 A 
BRANCH  10  17
ATOM     16  C   UNL     1       5.952   3.570  12.735  0.00  0.00    +0.000 C 
ATOM     17  C   UNL     1       6.711   4.130  13.928  0.00  0.00    +0.000 C 
ENDBRANCH  10  17
ENDBRANCH   3  13
ENDBRANCH   1   5
BRANCH   1  18
ATOM     18  C   UNL     1       0.676   8.917  20.840  0.00  0.00    +0.000 C 
ATOM     19  C   UNL     1       1.004   8.984  22.348  0.00  0.00    +0.000 C 
BRANCH  18  20
ATOM     20  C   UNL     1       0.082  10.237  20.338  0.00  0.00    +0.000 A 
ATOM     21  C   UNL     1       0.670  11.455  20.715  0.00  0.00    +0.000 A 
ATOM     22  C   UNL     1       0.113  12.677  20.315  0.00  0.00    +0.000 A 
ATOM     23  C   UNL     1      -1.041  12.705  19.532  0.00  0.00    +0.000 A 
ATOM     24  C   UNL     1      -1.631  11.509  19.124  0.00  0.00    +0.000 A 
ATOM     25  C   UNL     1      -1.066  10.291  19.532  0.00  0.00    +0.000 A 
BRANCH  24  26
ATOM     26  C   UNL     1      -2.818  11.491  18.297  0.00  0.00    +0.000 A 
ATOM     27  C   UNL     1      -3.011  11.021  16.976  0.00  0.00    +0.000 A 
ATOM     28  N   UNL     1      -4.279  11.109  16.580  0.00  0.00    +0.000 NA
ATOM     29  N   UNL     1      -4.910  11.623  17.654  0.00  0.00    +0.000 N 
ATOM     30  C   UNL     1      -6.338  11.813  17.635  0.00  0.00    +0.000 C 
ATOM     31  C   UNL     1      -4.075  11.876  18.701  0.00  0.00    +0.000 A 
ENDBRANCH  24  26
ENDBRANCH  18  20
ENDBRANCH   1  18
TORSDOF 6
ENDMDL
MODEL 7
REMARK VINA RESULT:      -8.6      0.792      1.053
REMARK  Name = 
REMARK  10 active torsions:
REMARK  status: ('A' for Active; 'I' for Inactive)
REMARK    1  A    between atoms: C_1  and  C_2
REMARK    2  A    between atoms: C_2  and  C_3
REMARK    3  A    between atoms: C_6  and  C_7
REMARK    4  A    between atoms: C_9  and  N_10
REMARK    5  A    between atoms: N_10  and  C_11
REMARK    6  A    between atoms: C_11  and  C_12
REMARK    7  A    between atoms: C_11  and  C_13
REMARK    8  A    between atoms: C_17  and  C_18
REMARK    9  A    between atoms: N_21  and  C_22
REMARK   10  A    between atoms: C_26  and  C_27
REMARK                            x       y       z     vdW  Elec       q    Type
REMARK                         _______ _______ _______ _____ _____    ______ ____
ROOT
ATOM      1  N   UNL     1       1.616   8.058  20.208  0.00  0.00    +0.000 N 
ATOM      2  H   UNL     1       0.704   8.015  20.631  0.00  0.00    +0.000 HD
ENDROOT
BRANCH   1   5
ATOM      3  C   UNL     1       3.455   5.408  18.504  0.00  0.00    +0.000 A 
ATOM      4  C   UNL     1       2.956   6.667  18.800  0.00  0.00    +0.000 A 
ATOM      5  C   UNL     1       2.159   6.798  19.913  0.00  0.00    +0.000 A 
ATOM      6  N   UNL     1       1.841   5.742  20.670  0.00  0.00    +0.000 NA
ATOM      7  C   UNL     1       2.378   4.549  20.326  0.00  0.00    +0.000 A 
ATOM      8  C   UNL     1       2.117   3.386  21.235  0.00  0.00    +0.000 C 
ATOM      9  N   UNL     1       3.183   4.343  19.283  0.00  0.00    +0.000 NA
BRANCH   3  13
ATOM     10  C   UNL     1       5.915   4.650  15.061  0.00  0.00    +0.000 A 
ATOM     11  C   UNL     1       5.543   5.959  15.403  0.00  0.00    +0.000 A 
ATOM     12  C   UNL     1       4.755   6.192  16.528  0.00  0.00    +0.000 A 
ATOM     13  C   UNL     1       4.310   5.137  17.345  0.00  0.00    +0.000 A 
ATOM     14  C   UNL     1       4.713   3.833  17.003  0.00  0.00    +0.000 A 
ATOM     15  C   UNL     1       5.511   3.597  15.883  0.00  0.00    +0.000 A 
BRANCH  10  17
ATOM     16  C   UNL     1       5.997   3.526  12.810  0.00  0.00    +0.000 C 
ATOM     17  C   UNL     1       6.732   4.391  13.822  0.00  0.00    +0.000 C 
ENDBRANCH  10  17
ENDBRANCH   3  13
ENDBRANCH   1   5
BRANCH   1  18
ATOM     18  C   UNL     1       1.770   9.155  19.245  0.00  0.00    +0.000 C 
ATOM     19  C   UNL     1       1.948   8.623  17.805  0.00  0.00    +0.000 C 
BRANCH  18  20
ATOM     20  C   UNL     1       0.532  10.050  19.361  0.00  0.00    +0.000 A 
ATOM     21  C   UNL     1       0.353  10.849  20.501  0.00  0.00    +0.000 A 
ATOM     22  C   UNL     1      -0.798  11.634  20.656  0.00  0.00    +0.000 A 
ATOM     23  C   UNL     1      -1.790  11.633  19.677  0.00  0.00    +0.000 A 
ATOM     24  C   UNL     1      -1.626  10.866  18.524  0.00  0.00    +0.000 A 
ATOM     25  C   UNL     1      -0.471  10.083  18.379  0.00  0.00    +0.000 A 
BRANCH  24  26
ATOM     26  C   UNL     1      -2.623  10.849  17.474  0.00  0.00    +0.000 A 
ATOM     27  C   UNL     1      -3.877  11.499  17.388  0.00  0.00    +0.000 A 
ATOM     28  N   UNL     1      -4.481  11.296  16.219  0.00  0.00    +0.000 NA
ATOM     29  N   UNL     1      -3.606  10.527  15.541  0.00  0.00    +0.000 N 
ATOM     30  C   UNL     1      -3.881  10.139  14.182  0.00  0.00    +0.000 C 
ATOM     31  C   UNL     1      -2.485  10.226  16.256  0.00  0.00    +0.000 A 
ENDBRANCH  24  26
ENDBRANCH  18  20
ENDBRANCH   1  18
TORSDOF 6
ENDMDL
MODEL 8
REMARK VINA RESULT:      -8.5      3.071      4.209
REMARK  Name = 
REMARK  10 active torsions:
REMARK  status: ('A' for Active; 'I' for Inactive)
REMARK    1  A    between atoms: C_1  and  C_2
REMARK    2  A    between atoms: C_2  and  C_3
REMARK    3  A    between atoms: C_6  and  C_7
REMARK    4  A    between atoms: C_9  and  N_10
REMARK    5  A    between atoms: N_10  and  C_11
REMARK    6  A    between atoms: C_11  and  C_12
REMARK    7  A    between atoms: C_11  and  C_13
REMARK    8  A    between atoms: C_17  and  C_18
REMARK    9  A    between atoms: N_21  and  C_22
REMARK   10  A    between atoms: C_26  and  C_27
REMARK                            x       y       z     vdW  Elec       q    Type
REMARK                         _______ _______ _______ _____ _____    ______ ____
ROOT
ATOM      1  N   UNL     1       1.707   7.884  21.178  0.00  0.00    +0.000 N 
ATOM      2  H   UNL     1       1.963   7.897  22.151  0.00  0.00    +0.000 HD
ENDROOT
BRANCH   1   5
ATOM      3  C   UNL     1       3.056   5.467  18.802  0.00  0.00    +0.000 A 
ATOM      4  C   UNL     1       2.819   6.674  19.443  0.00  0.00    +0.000 A 
ATOM      5  C   UNL     1       1.988   6.667  20.538  0.00  0.00    +0.000 A 
ATOM      6  N   UNL     1       1.394   5.543  20.956  0.00  0.00    +0.000 NA
ATOM      7  C   UNL     1       1.686   4.403  20.287  0.00  0.00    +0.000 A 
ATOM      8  C   UNL     1       1.113   3.125  20.819  0.00  0.00    +0.000 C 
ATOM      9  N   UNL     1       2.503   4.319  19.238  0.00  0.00    +0.000 NA
BRANCH   3  13
ATOM     10  C   UNL     1       5.625   5.056  15.379  0.00  0.00    +0.000 A 
ATOM     11  C   UNL     1       5.008   3.934  15.953  0.00  0.00    +0.000 A 
ATOM     12  C   UNL     1       4.169   4.082  17.054  0.00  0.00    +0.000 A 
ATOM     13  C   UNL     1       3.918   5.343  17.623  0.00  0.00    +0.000 A 
ATOM     14  C   UNL     1       4.523   6.463  17.020  0.00  0.00    +0.000 A 
ATOM     15  C   UNL     1       5.355   6.319  15.910  0.00  0.00    +0.000 A 
BRANCH  10  17
ATOM     16  C   UNL     1       6.187   3.727  13.316  0.00  0.00    +0.000 C 
ATOM     17  C   UNL     1       6.566   4.895  14.214  0.00  0.00    +0.000 C 
ENDBRANCH  10  17
ENDBRANCH   3  13
ENDBRANCH   1   5
BRANCH   1  18
ATOM     18  C   UNL     1       0.447   8.579  20.889  0.00  0.00    +0.000 C 
ATOM     19  C   UNL     1      -0.424   8.722  22.157  0.00  0.00    +0.000 C 
BRANCH  18  20
ATOM     20  C   UNL     1       0.799   9.947  20.295  0.00  0.00    +0.000 A 
ATOM     21  C   UNL     1       1.219  10.040  18.958  0.00  0.00    +0.000 A 
ATOM     22  C   UNL     1       1.599  11.272  18.409  0.00  0.00    +0.000 A 
ATOM     23  C   UNL     1       1.567  12.431  19.183  0.00  0.00    +0.000 A 
ATOM     24  C   UNL     1       1.132  12.369  20.506  0.00  0.00    +0.000 A 
ATOM     25  C   UNL     1       0.755  11.131  21.048  0.00  0.00    +0.000 A 
BRANCH  24  26
ATOM     26  C   UNL     1       1.067  13.550  21.341  0.00  0.00    +0.000 A 
ATOM     27  C   UNL     1       2.043  14.540  21.610  0.00  0.00    +0.000 A 
ATOM     28  N   UNL     1       1.578  15.523  22.377  0.00  0.00    +0.000 NA
ATOM     29  N   UNL     1       0.294  15.176  22.592  0.00  0.00    +0.000 N 
ATOM     30  C   UNL     1      -0.576  16.041  23.346  0.00  0.00    +0.000 C 
ATOM     31  C   UNL     1      -0.054  13.998  21.999  0.00  0.00    +0.000 A 
ENDBRANCH  24  26
ENDBRANCH  18  20
ENDBRANCH   1  18
TORSDOF 6
ENDMDL
MODEL 9
REMARK VINA RESULT:      -8.5      2.351      3.480
REMARK  Name = 
REMARK  10 active torsions:
REMARK  status: ('A' for Active; 'I' for Inactive)
REMARK    1  A    between atoms: C_1  and  C_2
REMARK    2  A    between atoms: C_2  and  C_3
REMARK    3  A    between atoms: C_6  and  C_7
REMARK    4  A    between atoms: C_9  and  N_10
REMARK    5  A    between atoms: N_10  and  C_11
REMARK    6  A    between atoms: C_11  and  C_12
REMARK    7  A    between atoms: C_11  and  C_13
REMARK    8  A    between atoms: C_17  and  C_18
REMARK    9  A    between atoms: N_21  and  C_22
REMARK   10  A    between atoms: C_26  and  C_27
REMARK                            x       y       z     vdW  Elec       q    Type
REMARK                         _______ _______ _______ _____ _____    ______ ____
ROOT
ATOM      1  N   UNL     1       1.691   8.568  20.007  0.00  0.00    +0.000 N 
ATOM      2  H   UNL     1       2.426   9.255  20.018  0.00  0.00    +0.000 HD
ENDROOT
BRANCH   1   5
ATOM      3  C   UNL     1       3.356   5.735  18.423  0.00  0.00    +0.000 A 
ATOM      4  C   UNL     1       2.948   7.038  18.670  0.00  0.00    +0.000 A 
ATOM      5  C   UNL     1       2.144   7.263  19.762  0.00  0.00    +0.000 A 
ATOM      6  N   UNL     1       1.733   6.258  20.544  0.00  0.00    +0.000 NA
ATOM      7  C   UNL     1       2.185   5.017  20.247  0.00  0.00    +0.000 A 
ATOM      8  C   UNL     1       1.821   3.907  21.185  0.00  0.00    +0.000 C 
ATOM      9  N   UNL     1       2.990   4.719  19.228  0.00  0.00    +0.000 NA
BRANCH   3  13
ATOM     10  C   UNL     1       5.815   4.688  15.055  0.00  0.00    +0.000 A 
ATOM     11  C   UNL     1       5.544   6.031  15.356  0.00  0.00    +0.000 A 
ATOM     12  C   UNL     1       4.756   6.357  16.457  0.00  0.00    +0.000 A 
ATOM     13  C   UNL     1       4.209   5.365  17.290  0.00  0.00    +0.000 A 
ATOM     14  C   UNL     1       4.511   4.023  16.990  0.00  0.00    +0.000 A 
ATOM     15  C   UNL     1       5.310   3.694  15.895  0.00  0.00    +0.000 A 
BRANCH  10  17
ATOM     16  C   UNL     1       5.834   3.548  12.811  0.00  0.00    +0.000 C 
ATOM     17  C   UNL     1       6.633   4.330  13.842  0.00  0.00    +0.000 C 
ENDBRANCH  10  17
ENDBRANCH   3  13
ENDBRANCH   1   5
BRANCH   1  18
ATOM     18  C   UNL     1       0.655   8.795  21.021  0.00  0.00    +0.000 C 
ATOM     19  C   UNL     1       1.273   9.116  22.400  0.00  0.00    +0.000 C 
BRANCH  18  20
ATOM     20  C   UNL     1      -0.233   9.942  20.527  0.00  0.00    +0.000 A 
ATOM     21  C   UNL     1      -0.453  10.111  19.150  0.00  0.00    +0.000 A 
ATOM     22  C   UNL     1      -1.215  11.184  18.670  0.00  0.00    +0.000 A 
ATOM     23  C   UNL     1      -1.770  12.108  19.554  0.00  0.00    +0.000 A 
ATOM     24  C   UNL     1      -1.587  11.949  20.928  0.00  0.00    +0.000 A 
ATOM     25  C   UNL     1      -0.821  10.873  21.398  0.00  0.00    +0.000 A 
BRANCH  24  26
ATOM     26  C   UNL     1      -2.160  12.874  21.882  0.00  0.00    +0.000 A 
ATOM     27  C   UNL     1      -1.594  14.002  22.522  0.00  0.00    +0.000 A 
ATOM     28  N   UNL     1      -2.469  14.652  23.286  0.00  0.00    +0.000 NA
ATOM     29  N   UNL     1      -3.609  13.951  23.127  0.00  0.00    +0.000 N 
ATOM     30  C   UNL     1      -4.826  14.388  23.761  0.00  0.00    +0.000 C 
ATOM     31  C   UNL     1      -3.469  12.873  22.303  0.00  0.00    +0.000 A 
ENDBRANCH  24  26
ENDBRANCH  18  20
ENDBRANCH   1  18
TORSDOF 6
ENDMDL
