MODEL 1
REMARK VINA RESULT:      -7.8      0.000      0.000
REMARK  Name = 
REMARK  3 active torsions:
REMARK  status: ('A' for Active; 'I' for Inactive)
REMARK    1  A    between atoms: N_4  and  C_5
REMARK    2  A    between atoms: C_5  and  C_6
REMARK    3  A    between atoms: C_8  and  O_9
REMARK                            x       y       z     vdW  Elec       q    Type
REMARK                         _______ _______ _______ _____ _____    ______ ____
ROOT
ATOM      1  C   UNL     1       4.946   3.939  18.553  0.00  0.00    +0.000 A 
ATOM      2  N   UNL     1       5.992   4.704  18.911  0.00  0.00    +0.000 NA
ATOM      3  C   UNL     1       6.789   5.076  17.907  0.00  0.00    +0.000 A 
ATOM      4  C   UNL     1       6.617   4.757  16.570  0.00  0.00    +0.000 A 
ATOM      5  C   UNL     1       7.475   5.170  15.526  0.00  0.00    +0.000 A 
ATOM      6  C   UNL     1       7.209   4.790  14.216  0.00  0.00    +0.000 A 
ATOM      7  C   UNL     1       6.091   4.004  13.954  0.00  0.00    +0.000 A 
ATOM      8 CL   UNL     1       5.751   3.524  12.338  0.00  0.00    +0.000 Cl
ATOM      9  C   UNL     1       5.244   3.604  14.991  0.00  0.00    +0.000 A 
ATOM     10  C   UNL     1       5.495   3.967  16.308  0.00  0.00    +0.000 A 
ATOM     11  N   UNL     1       4.668   3.563  17.285  0.00  0.00    +0.000 NA
ENDROOT
BRANCH   3  12
ATOM     12  O   UNL     1       7.837   5.837  18.324  0.00  0.00    +0.000 OA
ATOM     13  H   UNL     1       7.684   6.642  17.795  0.00  0.00    +0.000 HD
ENDBRANCH   3  12
BRANCH   1  14
ATOM     14  C   UNL     1       3.984   3.483  19.644  0.00  0.00    +0.000 C 
BRANCH  14  18
ATOM     15  O   UNL     1       1.175   2.324  22.416  0.00  0.00    +0.000 OA
ATOM     16  C   UNL     1       1.399   2.988  21.404  0.00  0.00    +0.000 C 
ATOM     17  C   UNL     1       2.386   4.163  21.394  0.00  0.00    +0.000 C 
ATOM     18  N   UNL     1       2.962   4.473  20.062  0.00  0.00    +0.000 NA
ATOM     19  C   UNL     1       1.870   4.572  19.075  0.00  0.00    +0.000 C 
ATOM     20  C   UNL     1       1.033   3.290  18.973  0.00  0.00    +0.000 C 
ATOM     21  N   UNL     1       0.668   2.757  20.267  0.00  0.00    +0.000 N 
ATOM     22  H   UNL     1       0.051   1.955  20.325  0.00  0.00    +0.000 HD
ENDBRANCH  14  18
ENDBRANCH   1  14
TORSDOF 3
ENDMDL
MODEL 2
REMARK VINA RESULT:      -7.8      1.597      1.839
REMARK  Name = 
REMARK  3 active torsions:
REMARK  status: ('A' for Active; 'I' for Inactive)
REMARK    1  A    between atoms: N_4  and  C_5
REMARK    2  A    between atoms: C_5  and  C_6
REMARK    3  A    between atoms: C_8  and  O_9
REMARK                            x       y       z     vdW  Elec       q    Type
REMARK                         _______ _______ _______ _____ _____    ______ ____
ROOT
ATOM      1  C   UNL     1       3.991   4.894  19.060  0.00  0.00    +0.000 A 
ATOM      2  N   UNL     1       5.145   5.210  19.675  0.00  0.00    +0.000 NA
ATOM      3  C   UNL     1       6.227   5.182  18.893  0.00  0.00    +0.000 A 
ATOM      4  C   UNL     1       6.247   4.878  17.542  0.00  0.00    +0.000 A 
ATOM      5  C   UNL     1       7.409   4.860  16.738  0.00  0.00    +0.000 A 
ATOM      6  C   UNL     1       7.316   4.538  15.389  0.00  0.00    +0.000 A 
ATOM      7  C   UNL     1       6.068   4.237  14.850  0.00  0.00    +0.000 A 
ATOM      8 CL   UNL     1       5.938   3.833  13.184  0.00  0.00    +0.000 Cl
ATOM      9  C   UNL     1       4.924   4.261  15.651  0.00  0.00    +0.000 A 
ATOM     10  C   UNL     1       4.995   4.574  17.003  0.00  0.00    +0.000 A 
ATOM     11  N   UNL     1       3.879   4.583  17.750  0.00  0.00    +0.000 NA
ENDROOT
BRANCH   3  12
ATOM     12  O   UNL     1       7.368   5.496  19.565  0.00  0.00    +0.000 OA
ATOM     13  H   UNL     1       7.966   4.811  19.214  0.00  0.00    +0.000 HD
ENDBRANCH   3  12
BRANCH   1  14
ATOM     14  C   UNL     1       2.710   4.915  19.886  0.00  0.00    +0.000 C 
BRANCH  14  18
ATOM     15  O   UNL     1       3.690   1.194  18.433  0.00  0.00    +0.000 OA
ATOM     16  C   UNL     1       2.906   1.849  19.119  0.00  0.00    +0.000 C 
ATOM     17  C   UNL     1       3.344   2.586  20.391  0.00  0.00    +0.000 C 
ATOM     18  N   UNL     1       2.486   3.739  20.762  0.00  0.00    +0.000 NA
ATOM     19  C   UNL     1       1.073   3.315  20.747  0.00  0.00    +0.000 C 
ATOM     20  C   UNL     1       0.622   2.773  19.383  0.00  0.00    +0.000 C 
ATOM     21  N   UNL     1       1.568   1.839  18.813  0.00  0.00    +0.000 N 
ATOM     22  H   UNL     1       1.343   1.359  17.950  0.00  0.00    +0.000 HD
ENDBRANCH  14  18
ENDBRANCH   1  14
TORSDOF 3
ENDMDL
MODEL 3
REMARK VINA RESULT:      -7.6      5.240      7.208
REMARK  Name = 
REMARK  3 active torsions:
REMARK  status: ('A' for Active; 'I' for Inactive)
REMARK    1  A    between atoms: N_4  and  C_5
REMARK    2  A    between atoms: C_5  and  C_6
REMARK    3  A    between atoms: C_8  and  O_9
REMARK                            x       y       z     vdW  Elec       q    Type
REMARK                         _______ _______ _______ _____ _____    ______ ____
ROOT
ATOM      1  C   UNL     1       2.459   7.058  19.426  0.00  0.00    +0.000 A 
ATOM      2  N   UNL     1       2.506   7.836  18.330  0.00  0.00    +0.000 NA
ATOM      3  C   UNL     1       1.822   8.979  18.418  0.00  0.00    +0.000 A 
ATOM      4  C   UNL     1       1.106   9.415  19.520  0.00  0.00    +0.000 A 
ATOM      5  C   UNL     1       0.394  10.634  19.587  0.00  0.00    +0.000 A 
ATOM      6  C   UNL     1      -0.295  10.974  20.745  0.00  0.00    +0.000 A 
ATOM      7  C   UNL     1      -0.269  10.101  21.828  0.00  0.00    +0.000 A 
ATOM      8 CL   UNL     1      -1.120  10.507  23.267  0.00  0.00    +0.000 Cl
ATOM      9  C   UNL     1       0.441   8.900  21.756  0.00  0.00    +0.000 A 
ATOM     10  C   UNL     1       1.131   8.537  20.606  0.00  0.00    +0.000 A 
ATOM     11  N   UNL     1       1.799   7.373  20.563  0.00  0.00    +0.000 NA
ENDROOT
BRANCH   3  12
ATOM     12  O   UNL     1       1.892   9.721  17.280  0.00  0.00    +0.000 OA
ATOM     13  H   UNL     1       0.952   9.953  17.170  0.00  0.00    +0.000 HD
ENDBRANCH   3  12
BRANCH   1  14
ATOM     14  C   UNL     1       3.225   5.741  19.405  0.00  0.00    +0.000 C 
BRANCH  14  18
ATOM     15  O   UNL     1       4.937   2.104  20.277  0.00  0.00    +0.000 OA
ATOM     16  C   UNL     1       4.174   2.723  19.536  0.00  0.00    +0.000 C 
ATOM     17  C   UNL     1       2.887   3.385  20.048  0.00  0.00    +0.000 C 
ATOM     18  N   UNL     1       2.406   4.518  19.220  0.00  0.00    +0.000 NA
ATOM     19  C   UNL     1       2.368   4.102  17.805  0.00  0.00    +0.000 C 
ATOM     20  C   UNL     1       3.733   3.640  17.277  0.00  0.00    +0.000 C 
ATOM     21  N   UNL     1       4.406   2.736  18.184  0.00  0.00    +0.000 N 
ATOM     22  H   UNL     1       5.282   2.306  17.909  0.00  0.00    +0.000 HD
ENDBRANCH  14  18
ENDBRANCH   1  14
TORSDOF 3
ENDMDL
MODEL 4
REMARK VINA RESULT:      -7.6      1.210      1.639
REMARK  Name = 
REMARK  3 active torsions:
REMARK  status: ('A' for Active; 'I' for Inactive)
REMARK    1  A    between atoms: N_4  and  C_5
REMARK    2  A    between atoms: C_5  and  C_6
REMARK    3  A    between atoms: C_8  and  O_9
REMARK                            x       y       z     vdW  Elec       q    Type
REMARK                         _______ _______ _______ _____ _____    ______ ____
ROOT
ATOM      1  C   UNL     1       4.684   4.500  18.456  0.00  0.00    +0.000 A 
ATOM      2  N   UNL     1       5.779   5.186  18.828  0.00  0.00    +0.000 NA
ATOM      3  C   UNL     1       6.673   5.394  17.858  0.00  0.00    +0.000 A 
ATOM      4  C   UNL     1       6.554   4.984  16.541  0.00  0.00    +0.000 A 
ATOM      5  C   UNL     1       7.515   5.222  15.533  0.00  0.00    +0.000 A 
ATOM      6  C   UNL     1       7.295   4.762  14.240  0.00  0.00    +0.000 A 
ATOM      7  C   UNL     1       6.120   4.071  13.959  0.00  0.00    +0.000 A 
ATOM      8 CL   UNL     1       5.836   3.494  12.363  0.00  0.00    +0.000 Cl
ATOM      9  C   UNL     1       5.173   3.844  14.960  0.00  0.00    +0.000 A 
ATOM     10  C   UNL     1       5.375   4.288  16.260  0.00  0.00    +0.000 A 
ATOM     11  N   UNL     1       4.450   4.049  17.203  0.00  0.00    +0.000 NA
ENDROOT
BRANCH   3  12
ATOM     12  O   UNL     1       7.765   6.080  18.290  0.00  0.00    +0.000 OA
ATOM     13  H   UNL     1       7.333   6.755  18.845  0.00  0.00    +0.000 HD
ENDBRANCH   3  12
BRANCH   1  14
ATOM     14  C   UNL     1       3.613   4.233  19.507  0.00  0.00    +0.000 C 
BRANCH  14  18
ATOM     15  O   UNL     1       0.164   2.273  18.421  0.00  0.00    +0.000 OA
ATOM     16  C   UNL     1       1.023   2.424  19.289  0.00  0.00    +0.000 C 
ATOM     17  C   UNL     1       2.500   2.080  19.053  0.00  0.00    +0.000 C 
ATOM     18  N   UNL     1       3.451   2.817  19.921  0.00  0.00    +0.000 NA
ATOM     19  C   UNL     1       3.007   2.712  21.324  0.00  0.00    +0.000 C 
ATOM     20  C   UNL     1       1.592   3.262  21.550  0.00  0.00    +0.000 C 
ATOM     21  N   UNL     1       0.649   2.806  20.552  0.00  0.00    +0.000 N 
ATOM     22  H   UNL     1      -0.332   3.043  20.641  0.00  0.00    +0.000 HD
ENDBRANCH  14  18
ENDBRANCH   1  14
TORSDOF 3
ENDMDL
MODEL 5
REMARK VINA RESULT:      -7.5      5.322      7.245
REMARK  Name = 
REMARK  3 active torsions:
REMARK  status: ('A' for Active; 'I' for Inactive)
REMARK    1  A    between atoms: N_4  and  C_5
REMARK    2  A    between atoms: C_5  and  C_6
REMARK    3  A    between atoms: C_8  and  O_9
REMARK                            x       y       z     vdW  Elec       q    Type
REMARK                         _______ _______ _______ _____ _____    ______ ____
ROOT
ATOM      1  C   UNL     1       2.251   7.219  19.595  0.00  0.00    +0.000 A 
ATOM      2  N   UNL     1       2.352   7.955  18.474  0.00  0.00    +0.000 NA
ATOM      3  C   UNL     1       1.707   9.123  18.504  0.00  0.00    +0.000 A 
ATOM      4  C   UNL     1       0.981   9.623  19.572  0.00  0.00    +0.000 A 
ATOM      5  C   UNL     1       0.311  10.867  19.578  0.00  0.00    +0.000 A 
ATOM      6  C   UNL     1      -0.394  11.272  20.706  0.00  0.00    +0.000 A 
ATOM      7  C   UNL     1      -0.425  10.438  21.819  0.00  0.00    +0.000 A 
ATOM      8 CL   UNL     1      -1.295  10.925  23.220  0.00  0.00    +0.000 Cl
ATOM      9  C   UNL     1       0.244   9.211  21.807  0.00  0.00    +0.000 A 
ATOM     10  C   UNL     1       0.948   8.784  20.688  0.00  0.00    +0.000 A 
ATOM     11  N   UNL     1       1.575   7.597  20.703  0.00  0.00    +0.000 NA
ENDROOT
BRANCH   3  12
ATOM     12  O   UNL     1       1.831   9.821  17.343  0.00  0.00    +0.000 OA
ATOM     13  H   UNL     1       1.957   9.086  16.715  0.00  0.00    +0.000 HD
ENDBRANCH   3  12
BRANCH   1  14
ATOM     14  C   UNL     1       2.970   5.876  19.639  0.00  0.00    +0.000 C 
BRANCH  14  18
ATOM     15  O   UNL     1       1.925   2.861  22.234  0.00  0.00    +0.000 OA
ATOM     16  C   UNL     1       2.290   3.147  21.094  0.00  0.00    +0.000 C 
ATOM     17  C   UNL     1       1.441   4.011  20.151  0.00  0.00    +0.000 C 
ATOM     18  N   UNL     1       2.214   4.718  19.100  0.00  0.00    +0.000 NA
ATOM     19  C   UNL     1       3.106   3.756  18.425  0.00  0.00    +0.000 C 
ATOM     20  C   UNL     1       4.083   3.065  19.386  0.00  0.00    +0.000 C 
ATOM     21  N   UNL     1       3.439   2.592  20.592  0.00  0.00    +0.000 N 
ATOM     22  H   UNL     1       3.970   2.053  21.267  0.00  0.00    +0.000 HD
ENDBRANCH  14  18
ENDBRANCH   1  14
TORSDOF 3
ENDMDL
MODEL 6
REMARK VINA RESULT:      -7.5      5.442      7.551
REMARK  Name = 
REMARK  3 active torsions:
REMARK  status: ('A' for Active; 'I' for Inactive)
REMARK    1  A    between atoms: N_4  and  C_5
REMARK    2  A    between atoms: C_5  and  C_6
REMARK    3  A    between atoms: C_8  and  O_9
REMARK                            x       y       z     vdW  Elec       q    Type
REMARK                         _______ _______ _______ _____ _____    ______ ____
ROOT
ATOM      1  C   UNL     1       2.287   7.282  19.514  0.00  0.00    +0.000 A 
ATOM      2  N   UNL     1       2.365   8.046  18.410  0.00  0.00    +0.000 NA
ATOM      3  C   UNL     1       1.697   9.200  18.474  0.00  0.00    +0.000 A 
ATOM      4  C   UNL     1       0.968   9.659  19.558  0.00  0.00    +0.000 A 
ATOM      5  C   UNL     1       0.273  10.889  19.599  0.00  0.00    +0.000 A 
ATOM      6  C   UNL     1      -0.431  11.252  20.741  0.00  0.00    +0.000 A 
ATOM      7  C   UNL     1      -0.437  10.391  21.834  0.00  0.00    +0.000 A 
ATOM      8 CL   UNL     1      -1.307  10.826  23.252  0.00  0.00    +0.000 Cl
ATOM      9  C   UNL     1       0.256   9.179  21.787  0.00  0.00    +0.000 A 
ATOM     10  C   UNL     1       0.961   8.793  20.654  0.00  0.00    +0.000 A 
ATOM     11  N   UNL     1       1.612   7.619  20.636  0.00  0.00    +0.000 NA
ENDROOT
BRANCH   3  12
ATOM     12  O   UNL     1       1.798   9.928  17.329  0.00  0.00    +0.000 OA
ATOM     13  H   UNL     1       2.245  10.723  17.672  0.00  0.00    +0.000 HD
ENDBRANCH   3  12
BRANCH   1  14
ATOM     14  C   UNL     1       3.034   5.953  19.521  0.00  0.00    +0.000 C 
BRANCH  14  18
ATOM     15  O   UNL     1       3.837   1.950  19.026  0.00  0.00    +0.000 OA
ATOM     16  C   UNL     1       4.183   3.101  18.764  0.00  0.00    +0.000 C 
ATOM     17  C   UNL     1       3.297   4.063  17.960  0.00  0.00    +0.000 C 
ATOM     18  N   UNL     1       3.563   5.501  18.210  0.00  0.00    +0.000 NA
ATOM     19  C   UNL     1       5.012   5.752  18.097  0.00  0.00    +0.000 C 
ATOM     20  C   UNL     1       5.847   4.911  19.073  0.00  0.00    +0.000 C 
ATOM     21  N   UNL     1       5.446   3.521  19.096  0.00  0.00    +0.000 N 
ATOM     22  H   UNL     1       5.974   2.854  19.646  0.00  0.00    +0.000 HD
ENDBRANCH  14  18
ENDBRANCH   1  14
TORSDOF 3
ENDMDL
MODEL 7
REMARK VINA RESULT:      -7.4      4.977      6.925
REMARK  Name = 
REMARK  3 active torsions:
REMARK  status: ('A' for Active; 'I' for Inactive)
REMARK    1  A    between atoms: N_4  and  C_5
REMARK    2  A    between atoms: C_5  and  C_6
REMARK    3  A    between atoms: C_8  and  O_9
REMARK                            x       y       z     vdW  Elec       q    Type
REMARK                         _______ _______ _______ _____ _____    ______ ____
ROOT
ATOM      1  C   UNL     1       2.488   6.518  19.377  0.00  0.00    +0.000 A 
ATOM      2  N   UNL     1       2.626   7.300  18.291  0.00  0.00    +0.000 NA
ATOM      3  C   UNL     1       2.060   8.505  18.388  0.00  0.00    +0.000 A 
ATOM      4  C   UNL     1       1.381   8.999  19.489  0.00  0.00    +0.000 A 
ATOM      5  C   UNL     1       0.795  10.283  19.565  0.00  0.00    +0.000 A 
ATOM      6  C   UNL     1       0.132  10.677  20.721  0.00  0.00    +0.000 A 
ATOM      7  C   UNL     1       0.057   9.793  21.793  0.00  0.00    +0.000 A 
ATOM      8 CL   UNL     1      -0.763  10.266  23.228  0.00  0.00    +0.000 Cl
ATOM      9  C   UNL     1       0.642   8.527  21.711  0.00  0.00    +0.000 A 
ATOM     10  C   UNL     1       1.304   8.109  20.563  0.00  0.00    +0.000 A 
ATOM     11  N   UNL     1       1.851   6.885  20.512  0.00  0.00    +0.000 NA
ENDROOT
BRANCH   3  12
ATOM     12  O   UNL     1       2.218   9.250  17.261  0.00  0.00    +0.000 OA
ATOM     13  H   UNL     1       3.033   9.734  17.489  0.00  0.00    +0.000 HD
ENDBRANCH   3  12
BRANCH   1  14
ATOM     14  C   UNL     1       3.116   5.130  19.345  0.00  0.00    +0.000 C 
BRANCH  14  18
ATOM     15  O   UNL     1       0.253   2.280  18.571  0.00  0.00    +0.000 OA
ATOM     16  C   UNL     1       1.424   2.622  18.410  0.00  0.00    +0.000 C 
ATOM     17  C   UNL     1       1.811   3.900  17.653  0.00  0.00    +0.000 C 
ATOM     18  N   UNL     1       3.136   4.458  18.022  0.00  0.00    +0.000 NA
ATOM     19  C   UNL     1       4.143   3.381  17.978  0.00  0.00    +0.000 C 
ATOM     20  C   UNL     1       3.814   2.210  18.913  0.00  0.00    +0.000 C 
ATOM     21  N   UNL     1       2.434   1.788  18.815  0.00  0.00    +0.000 N 
ATOM     22  H   UNL     1       2.119   0.974  19.330  0.00  0.00    +0.000 HD
ENDBRANCH  14  18
ENDBRANCH   1  14
TORSDOF 3
ENDMDL
MODEL 8
REMARK VINA RESULT:      -7.3      1.009      1.060
REMARK  Name = 
REMARK  3 active torsions:
REMARK  status: ('A' for Active; 'I' for Inactive)
REMARK    1  A    between atoms: N_4  and  C_5
REMARK    2  A    between atoms: C_5  and  C_6
REMARK    3  A    between atoms: C_8  and  O_9
REMARK                            x       y       z     vdW  Elec       q    Type
REMARK                         _______ _______ _______ _____ _____    ______ ____
ROOT
ATOM      1  C   UNL     1       5.235   4.576  17.830  0.00  0.00    +0.000 A 
ATOM      2  N   UNL     1       6.138   5.570  17.896  0.00  0.00    +0.000 NA
ATOM      3  C   UNL     1       6.797   5.810  16.760  0.00  0.00    +0.000 A 
ATOM      4  C   UNL     1       6.617   5.146  15.558  0.00  0.00    +0.000 A 
ATOM      5  C   UNL     1       7.327   5.425  14.369  0.00  0.00    +0.000 A 
ATOM      6  C   UNL     1       7.067   4.694  13.216  0.00  0.00    +0.000 A 
ATOM      7  C   UNL     1       6.103   3.692  13.254  0.00  0.00    +0.000 A 
ATOM      8 CL   UNL     1       5.774   2.776  11.836  0.00  0.00    +0.000 Cl
ATOM      9  C   UNL     1       5.402   3.425  14.433  0.00  0.00    +0.000 A 
ATOM     10  C   UNL     1       5.649   4.139  15.598  0.00  0.00    +0.000 A 
ATOM     11  N   UNL     1       4.965   3.856  16.718  0.00  0.00    +0.000 NA
ENDROOT
BRANCH   3  12
ATOM     12  O   UNL     1       7.706   6.816  16.884  0.00  0.00    +0.000 OA
ATOM     13  H   UNL     1       7.391   7.417  16.184  0.00  0.00    +0.000 HD
ENDBRANCH   3  12
BRANCH   1  14
ATOM     14  C   UNL     1       4.435   4.250  19.085  0.00  0.00    +0.000 C 
BRANCH  14  18
ATOM     15  O   UNL     1       2.003   3.160  22.219  0.00  0.00    +0.000 OA
ATOM     16  C   UNL     1       2.061   3.463  21.027  0.00  0.00    +0.000 C 
ATOM     17  C   UNL     1       2.542   4.840  20.551  0.00  0.00    +0.000 C 
ATOM     18  N   UNL     1       3.085   4.859  19.170  0.00  0.00    +0.000 NA
ATOM     19  C   UNL     1       2.131   4.189  18.265  0.00  0.00    +0.000 C 
ATOM     20  C   UNL     1       1.838   2.738  18.669  0.00  0.00    +0.000 C 
ATOM     21  N   UNL     1       1.576   2.593  20.084  0.00  0.00    +0.000 N 
ATOM     22  H   UNL     1       1.296   1.692  20.454  0.00  0.00    +0.000 HD
ENDBRANCH  14  18
ENDBRANCH   1  14
TORSDOF 3
ENDMDL
MODEL 9
REMARK VINA RESULT:      -7.3      3.844      6.920
REMARK  Name = 
REMARK  3 active torsions:
REMARK  status: ('A' for Active; 'I' for Inactive)
REMARK    1  A    between atoms: N_4  and  C_5
REMARK    2  A    between atoms: C_5  and  C_6
REMARK    3  A    between atoms: C_8  and  O_9
REMARK                            x       y       z     vdW  Elec       q    Type
REMARK                         _______ _______ _______ _____ _____    ______ ____
ROOT
ATOM      1  C   UNL     1       3.552   5.804  17.989  0.00  0.00    +0.000 A 
ATOM      2  N   UNL     1       3.285   5.208  19.165  0.00  0.00    +0.000 NA
ATOM      3  C   UNL     1       2.576   5.945  20.023  0.00  0.00    +0.000 A 
ATOM      4  C   UNL     1       2.099   7.225  19.796  0.00  0.00    +0.000 A 
ATOM      5  C   UNL     1       1.347   7.980  20.723  0.00  0.00    +0.000 A 
ATOM      6  C   UNL     1       0.919   9.261  20.392  0.00  0.00    +0.000 A 
ATOM      7  C   UNL     1       1.241   9.779  19.142  0.00  0.00    +0.000 A 
ATOM      8 CL   UNL     1       0.721  11.363  18.720  0.00  0.00    +0.000 Cl
ATOM      9  C   UNL     1       1.982   9.024  18.229  0.00  0.00    +0.000 A 
ATOM     10  C   UNL     1       2.425   7.745  18.541  0.00  0.00    +0.000 A 
ATOM     11  N   UNL     1       3.141   7.046  17.647  0.00  0.00    +0.000 NA
ENDROOT
BRANCH   3  12
ATOM     12  O   UNL     1       2.345   5.301  21.200  0.00  0.00    +0.000 OA
ATOM     13  H   UNL     1       1.588   4.743  20.942  0.00  0.00    +0.000 HD
ENDBRANCH   3  12
BRANCH   1  14
ATOM     14  C   UNL     1       4.349   5.020  16.953  0.00  0.00    +0.000 C 
BRANCH  14  18
ATOM     15  O   UNL     1       7.532   7.611  17.210  0.00  0.00    +0.000 OA
ATOM     16  C   UNL     1       7.164   6.470  16.936  0.00  0.00    +0.000 C 
ATOM     17  C   UNL     1       6.530   5.537  17.977  0.00  0.00    +0.000 C 
ATOM     18  N   UNL     1       5.654   4.483  17.409  0.00  0.00    +0.000 NA
ATOM     19  C   UNL     1       6.369   3.797  16.316  0.00  0.00    +0.000 C 
ATOM     20  C   UNL     1       6.803   4.747  15.192  0.00  0.00    +0.000 C 
ATOM     21  N   UNL     1       7.422   5.956  15.690  0.00  0.00    +0.000 N 
ATOM     22  H   UNL     1       7.817   6.624  15.039  0.00  0.00    +0.000 HD
ENDBRANCH  14  18
ENDBRANCH   1  14
TORSDOF 3
ENDMDL
