MODEL 1
REMARK VINA RESULT:      -5.5      0.000      0.000
REMARK  Name = 
REMARK  5 active torsions:
REMARK  status: ('A' for Active; 'I' for Inactive)
REMARK    1  A    between atoms: C_1  and  N_2
REMARK    2  A    between atoms: N_2  and  C_3
REMARK    3  A    between atoms: N_2  and  C_11
REMARK    4  A    between atoms: C_11  and  C_12
REMARK    5  A    between atoms: C_12  and  O_13
REMARK                            x       y       z     vdW  Elec       q    Type
REMARK                         _______ _______ _______ _____ _____    ______ ____
ROOT
ATOM      1  C   UNL     1       5.095   4.572  18.781  0.00  0.00    +0.000 C 
ATOM      2  C   UNL     1       6.063   5.303  18.209  0.00  0.00    +0.000 C 
ATOM      3  C   UNL     1       7.218   5.776  19.019  0.00  0.00    +0.000 C 
ATOM      4  O   UNL     1       7.525   5.373  20.131  0.00  0.00    +0.000 OA
ATOM      5  C   UNL     1       7.895   6.906  18.281  0.00  0.00    +0.000 C 
ATOM      6  N   UNL     1       7.238   6.839  16.993  0.00  0.00    +0.000 N 
ATOM      7  C   UNL     1       6.201   5.936  16.881  0.00  0.00    +0.000 C 
ATOM      8  O   UNL     1       5.573   5.727  15.864  0.00  0.00    +0.000 OA
ATOM      9  H   UNL     1       7.496   7.399  16.190  0.00  0.00    +0.000 HD
ENDROOT
BRANCH   1  11
ATOM     10  C   UNL     1       2.746   5.124  18.218  0.00  0.00    +0.000 C 
ATOM     11  N   UNL     1       3.827   4.137  18.387  0.00  0.00    +0.000 N 
BRANCH  11  12
ATOM     12  C   UNL     1       3.607   2.885  17.620  0.00  0.00    +0.000 C 
BRANCH  12  13
ATOM     13  C   UNL     1       3.306   1.708  18.556  0.00  0.00    +0.000 C 
BRANCH  13  14
ATOM     14  O   UNL     1       4.351   0.735  18.487  0.00  0.00    +0.000 OA
ATOM     15  H   UNL     1       3.898  -0.114  18.651  0.00  0.00    +0.000 HD
ENDBRANCH  13  14
ENDBRANCH  12  13
ENDBRANCH  11  12
ENDBRANCH   1  11
TORSDOF 4
ENDMDL
MODEL 2
REMARK VINA RESULT:      -5.5      2.040      5.490
REMARK  Name = 
REMARK  5 active torsions:
REMARK  status: ('A' for Active; 'I' for Inactive)
REMARK    1  A    between atoms: C_1  and  N_2
REMARK    2  A    between atoms: N_2  and  C_3
REMARK    3  A    between atoms: N_2  and  C_11
REMARK    4  A    between atoms: C_11  and  C_12
REMARK    5  A    between atoms: C_12  and  O_13
REMARK                            x       y       z     vdW  Elec       q    Type
REMARK                         _______ _______ _______ _____ _____    ______ ____
ROOT
ATOM      1  C   UNL     1       3.922   4.292  17.819  0.00  0.00    +0.000 C 
ATOM      2  C   UNL     1       3.061   3.302  18.102  0.00  0.00    +0.000 C 
ATOM      3  C   UNL     1       1.601   3.503  17.896  0.00  0.00    +0.000 C 
ATOM      4  O   UNL     1       1.086   4.412  17.260  0.00  0.00    +0.000 OA
ATOM      5  C   UNL     1       0.854   2.454  18.683  0.00  0.00    +0.000 C 
ATOM      6  N   UNL     1       1.933   1.577  19.084  0.00  0.00    +0.000 N 
ATOM      7  C   UNL     1       3.209   1.992  18.768  0.00  0.00    +0.000 C 
ATOM      8  O   UNL     1       4.219   1.359  18.995  0.00  0.00    +0.000 OA
ATOM      9  H   UNL     1       1.804   0.694  19.565  0.00  0.00    +0.000 HD
ENDROOT
BRANCH   1  11
ATOM     10  C   UNL     1       6.199   4.653  16.912  0.00  0.00    +0.000 C 
ATOM     11  N   UNL     1       5.281   4.511  18.056  0.00  0.00    +0.000 N 
BRANCH  11  12
ATOM     12  C   UNL     1       5.792   5.137  19.302  0.00  0.00    +0.000 C 
BRANCH  12  13
ATOM     13  C   UNL     1       7.252   5.576  19.142  0.00  0.00    +0.000 C 
BRANCH  13  14
ATOM     14  O   UNL     1       7.930   5.525  20.399  0.00  0.00    +0.000 OA
ATOM     15  H   UNL     1       7.249   5.217  21.026  0.00  0.00    +0.000 HD
ENDBRANCH  13  14
ENDBRANCH  12  13
ENDBRANCH  11  12
ENDBRANCH   1  11
TORSDOF 4
ENDMDL
MODEL 3
REMARK VINA RESULT:      -5.5      2.301      4.919
REMARK  Name = 
REMARK  5 active torsions:
REMARK  status: ('A' for Active; 'I' for Inactive)
REMARK    1  A    between atoms: C_1  and  N_2
REMARK    2  A    between atoms: N_2  and  C_3
REMARK    3  A    between atoms: N_2  and  C_11
REMARK    4  A    between atoms: C_11  and  C_12
REMARK    5  A    between atoms: C_12  and  O_13
REMARK                            x       y       z     vdW  Elec       q    Type
REMARK                         _______ _______ _______ _____ _____    ______ ____
ROOT
ATOM      1  C   UNL     1       3.558   4.158  17.177  0.00  0.00    +0.000 C 
ATOM      2  C   UNL     1       3.303   3.524  18.331  0.00  0.00    +0.000 C 
ATOM      3  C   UNL     1       1.909   3.137  18.676  0.00  0.00    +0.000 C 
ATOM      4  O   UNL     1       0.960   3.118  17.906  0.00  0.00    +0.000 OA
ATOM      5  C   UNL     1       1.837   2.862  20.159  0.00  0.00    +0.000 C 
ATOM      6  N   UNL     1       3.239   2.868  20.517  0.00  0.00    +0.000 N 
ATOM      7  C   UNL     1       4.125   3.218  19.520  0.00  0.00    +0.000 C 
ATOM      8  O   UNL     1       5.333   3.235  19.641  0.00  0.00    +0.000 OA
ATOM      9  H   UNL     1       3.596   2.630  21.435  0.00  0.00    +0.000 HD
ENDROOT
BRANCH   1  11
ATOM     10  C   UNL     1       4.875   6.241  16.918  0.00  0.00    +0.000 C 
ATOM     11  N   UNL     1       4.670   4.809  16.636  0.00  0.00    +0.000 N 
BRANCH  11  12
ATOM     12  C   UNL     1       5.920   4.098  16.265  0.00  0.00    +0.000 C 
BRANCH  12  13
ATOM     13  C   UNL     1       7.153   4.812  16.831  0.00  0.00    +0.000 C 
BRANCH  13  14
ATOM     14  O   UNL     1       7.579   4.186  18.044  0.00  0.00    +0.000 OA
ATOM     15  H   UNL     1       7.174   4.727  18.747  0.00  0.00    +0.000 HD
ENDBRANCH  13  14
ENDBRANCH  12  13
ENDBRANCH  11  12
ENDBRANCH   1  11
TORSDOF 4
ENDMDL
MODEL 4
REMARK VINA RESULT:      -5.5      2.425      3.503
REMARK  Name = 
REMARK  5 active torsions:
REMARK  status: ('A' for Active; 'I' for Inactive)
REMARK    1  A    between atoms: C_1  and  N_2
REMARK    2  A    between atoms: N_2  and  C_3
REMARK    3  A    between atoms: N_2  and  C_11
REMARK    4  A    between atoms: C_11  and  C_12
REMARK    5  A    between atoms: C_12  and  O_13
REMARK                            x       y       z     vdW  Elec       q    Type
REMARK                         _______ _______ _______ _____ _____    ______ ____
ROOT
ATOM      1  C   UNL     1       2.639   4.742  18.508  0.00  0.00    +0.000 C 
ATOM      2  C   UNL     1       3.980   4.712  18.471  0.00  0.00    +0.000 C 
ATOM      3  C   UNL     1       4.725   5.701  17.646  0.00  0.00    +0.000 C 
ATOM      4  O   UNL     1       4.261   6.722  17.159  0.00  0.00    +0.000 OA
ATOM      5  C   UNL     1       6.127   5.187  17.427  0.00  0.00    +0.000 C 
ATOM      6  N   UNL     1       6.166   4.067  18.343  0.00  0.00    +0.000 N 
ATOM      7  C   UNL     1       4.984   3.756  18.982  0.00  0.00    +0.000 C 
ATOM      8  O   UNL     1       4.854   2.876  19.806  0.00  0.00    +0.000 OA
ATOM      9  H   UNL     1       6.994   3.517  18.540  0.00  0.00    +0.000 HD
ENDROOT
BRANCH   1  11
ATOM     10  C   UNL     1       1.554   2.515  18.482  0.00  0.00    +0.000 C 
ATOM     11  N   UNL     1       1.649   3.890  19.003  0.00  0.00    +0.000 N 
BRANCH  11  12
ATOM     12  C   UNL     1       1.044   4.053  20.349  0.00  0.00    +0.000 C 
BRANCH  12  13
ATOM     13  C   UNL     1       2.039   3.672  21.452  0.00  0.00    +0.000 C 
BRANCH  13  14
ATOM     14  O   UNL     1       1.590   2.508  22.151  0.00  0.00    +0.000 OA
ATOM     15  H   UNL     1       1.403   2.828  23.053  0.00  0.00    +0.000 HD
ENDBRANCH  13  14
ENDBRANCH  12  13
ENDBRANCH  11  12
ENDBRANCH   1  11
TORSDOF 4
ENDMDL
MODEL 5
REMARK VINA RESULT:      -5.4      2.270      4.940
REMARK  Name = 
REMARK  5 active torsions:
REMARK  status: ('A' for Active; 'I' for Inactive)
REMARK    1  A    between atoms: C_1  and  N_2
REMARK    2  A    between atoms: N_2  and  C_3
REMARK    3  A    between atoms: N_2  and  C_11
REMARK    4  A    between atoms: C_11  and  C_12
REMARK    5  A    between atoms: C_12  and  O_13
REMARK                            x       y       z     vdW  Elec       q    Type
REMARK                         _______ _______ _______ _____ _____    ______ ____
ROOT
ATOM      1  C   UNL     1       4.052   4.725  17.046  0.00  0.00    +0.000 C 
ATOM      2  C   UNL     1       3.517   4.034  18.064  0.00  0.00    +0.000 C 
ATOM      3  C   UNL     1       2.041   3.871  18.161  0.00  0.00    +0.000 C 
ATOM      4  O   UNL     1       1.236   4.100  17.270  0.00  0.00    +0.000 OA
ATOM      5  C   UNL     1       1.692   3.467  19.573  0.00  0.00    +0.000 C 
ATOM      6  N   UNL     1       3.002   3.186  20.121  0.00  0.00    +0.000 N 
ATOM      7  C   UNL     1       4.080   3.469  19.308  0.00  0.00    +0.000 C 
ATOM      8  O   UNL     1       5.239   3.257  19.598  0.00  0.00    +0.000 OA
ATOM      9  H   UNL     1       3.165   2.797  21.042  0.00  0.00    +0.000 HD
ENDROOT
BRANCH   1  11
ATOM     10  C   UNL     1       5.767   5.282  15.347  0.00  0.00    +0.000 C 
ATOM     11  N   UNL     1       5.326   5.217  16.752  0.00  0.00    +0.000 N 
BRANCH  11  12
ATOM     12  C   UNL     1       6.052   6.158  17.641  0.00  0.00    +0.000 C 
BRANCH  12  13
ATOM     13  C   UNL     1       7.452   5.632  17.979  0.00  0.00    +0.000 C 
BRANCH  13  14
ATOM     14  O   UNL     1       7.440   4.205  18.075  0.00  0.00    +0.000 OA
ATOM     15  H   UNL     1       8.258   3.928  17.621  0.00  0.00    +0.000 HD
ENDBRANCH  13  14
ENDBRANCH  12  13
ENDBRANCH  11  12
ENDBRANCH   1  11
TORSDOF 4
ENDMDL
MODEL 6
REMARK VINA RESULT:      -5.4      2.221      3.316
REMARK  Name = 
REMARK  5 active torsions:
REMARK  status: ('A' for Active; 'I' for Inactive)
REMARK    1  A    between atoms: C_1  and  N_2
REMARK    2  A    between atoms: N_2  and  C_3
REMARK    3  A    between atoms: N_2  and  C_11
REMARK    4  A    between atoms: C_11  and  C_12
REMARK    5  A    between atoms: C_12  and  O_13
REMARK                            x       y       z     vdW  Elec       q    Type
REMARK                         _______ _______ _______ _____ _____    ______ ____
ROOT
ATOM      1  C   UNL     1       3.757   3.708  16.898  0.00  0.00    +0.000 C 
ATOM      2  C   UNL     1       4.994   4.159  17.152  0.00  0.00    +0.000 C 
ATOM      3  C   UNL     1       5.858   4.635  16.037  0.00  0.00    +0.000 C 
ATOM      4  O   UNL     1       5.484   4.892  14.902  0.00  0.00    +0.000 OA
ATOM      5  C   UNL     1       7.290   4.657  16.513  0.00  0.00    +0.000 C 
ATOM      6  N   UNL     1       7.123   4.432  17.932  0.00  0.00    +0.000 N 
ATOM      7  C   UNL     1       5.841   4.162  18.363  0.00  0.00    +0.000 C 
ATOM      8  O   UNL     1       5.522   3.989  19.521  0.00  0.00    +0.000 OA
ATOM      9  H   UNL     1       7.875   4.468  18.610  0.00  0.00    +0.000 HD
ENDROOT
BRANCH   1  11
ATOM     10  C   UNL     1       3.106   1.738  18.252  0.00  0.00    +0.000 C 
ATOM     11  N   UNL     1       2.781   3.039  17.641  0.00  0.00    +0.000 N 
BRANCH  11  12
ATOM     12  C   UNL     1       1.656   3.740  18.311  0.00  0.00    +0.000 C 
BRANCH  12  13
ATOM     13  C   UNL     1       0.767   2.753  19.077  0.00  0.00    +0.000 C 
BRANCH  13  14
ATOM     14  O   UNL     1       0.455   3.266  20.375  0.00  0.00    +0.000 OA
ATOM     15  H   UNL     1      -0.324   3.835  20.226  0.00  0.00    +0.000 HD
ENDBRANCH  13  14
ENDBRANCH  12  13
ENDBRANCH  11  12
ENDBRANCH   1  11
TORSDOF 4
ENDMDL
MODEL 7
REMARK VINA RESULT:      -5.4      1.799      2.764
REMARK  Name = 
REMARK  5 active torsions:
REMARK  status: ('A' for Active; 'I' for Inactive)
REMARK    1  A    between atoms: C_1  and  N_2
REMARK    2  A    between atoms: N_2  and  C_3
REMARK    3  A    between atoms: N_2  and  C_11
REMARK    4  A    between atoms: C_11  and  C_12
REMARK    5  A    between atoms: C_12  and  O_13
REMARK                            x       y       z     vdW  Elec       q    Type
REMARK                         _______ _______ _______ _____ _____    ______ ____
ROOT
ATOM      1  C   UNL     1       3.715   5.559  17.511  0.00  0.00    +0.000 C 
ATOM      2  C   UNL     1       5.016   5.302  17.310  0.00  0.00    +0.000 C 
ATOM      3  C   UNL     1       5.681   5.754  16.058  0.00  0.00    +0.000 C 
ATOM      4  O   UNL     1       5.229   6.562  15.259  0.00  0.00    +0.000 OA
ATOM      5  C   UNL     1       6.964   4.978  15.885  0.00  0.00    +0.000 C 
ATOM      6  N   UNL     1       7.072   4.318  17.168  0.00  0.00    +0.000 N 
ATOM      7  C   UNL     1       6.007   4.476  18.031  0.00  0.00    +0.000 C 
ATOM      8  O   UNL     1       5.954   4.024  19.155  0.00  0.00    +0.000 OA
ATOM      9  H   UNL     1       7.868   3.765  17.462  0.00  0.00    +0.000 HD
ENDROOT
BRANCH   1  11
ATOM     10  C   UNL     1       2.408   6.030  19.562  0.00  0.00    +0.000 C 
ATOM     11  N   UNL     1       2.762   5.140  18.442  0.00  0.00    +0.000 N 
BRANCH  11  12
ATOM     12  C   UNL     1       1.705   4.147  18.124  0.00  0.00    +0.000 C 
BRANCH  12  13
ATOM     13  C   UNL     1       2.303   2.751  17.911  0.00  0.00    +0.000 C 
BRANCH  13  14
ATOM     14  O   UNL     1       3.234   2.442  18.951  0.00  0.00    +0.000 OA
ATOM     15  H   UNL     1       3.003   3.058  19.671  0.00  0.00    +0.000 HD
ENDBRANCH  13  14
ENDBRANCH  12  13
ENDBRANCH  11  12
ENDBRANCH   1  11
TORSDOF 4
ENDMDL
MODEL 8
REMARK VINA RESULT:      -5.3      2.116      3.375
REMARK  Name = 
REMARK  5 active torsions:
REMARK  status: ('A' for Active; 'I' for Inactive)
REMARK    1  A    between atoms: C_1  and  N_2
REMARK    2  A    between atoms: N_2  and  C_3
REMARK    3  A    between atoms: N_2  and  C_11
REMARK    4  A    between atoms: C_11  and  C_12
REMARK    5  A    between atoms: C_12  and  O_13
REMARK                            x       y       z     vdW  Elec       q    Type
REMARK                         _______ _______ _______ _____ _____    ______ ____
ROOT
ATOM      1  C   UNL     1       3.594   3.961  16.960  0.00  0.00    +0.000 C 
ATOM      2  C   UNL     1       4.884   4.271  17.158  0.00  0.00    +0.000 C 
ATOM      3  C   UNL     1       5.765   4.569  15.996  0.00  0.00    +0.000 C 
ATOM      4  O   UNL     1       5.392   4.802  14.856  0.00  0.00    +0.000 OA
ATOM      5  C   UNL     1       7.203   4.442  16.437  0.00  0.00    +0.000 C 
ATOM      6  N   UNL     1       7.053   4.325  17.871  0.00  0.00    +0.000 N 
ATOM      7  C   UNL     1       5.761   4.241  18.347  0.00  0.00    +0.000 C 
ATOM      8  O   UNL     1       5.458   4.179  19.520  0.00  0.00    +0.000 OA
ATOM      9  H   UNL     1       7.824   4.308  18.529  0.00  0.00    +0.000 HD
ENDROOT
BRANCH   1  11
ATOM     10  C   UNL     1       2.618   2.061  18.216  0.00  0.00    +0.000 C 
ATOM     11  N   UNL     1       2.567   3.464  17.766  0.00  0.00    +0.000 N 
BRANCH  11  12
ATOM     12  C   UNL     1       1.731   4.331  18.635  0.00  0.00    +0.000 C 
BRANCH  12  13
ATOM     13  C   UNL     1       2.088   4.140  20.114  0.00  0.00    +0.000 C 
BRANCH  13  14
ATOM     14  O   UNL     1       2.882   5.233  20.582  0.00  0.00    +0.000 OA
ATOM     15  H   UNL     1       2.368   6.025  20.337  0.00  0.00    +0.000 HD
ENDBRANCH  13  14
ENDBRANCH  12  13
ENDBRANCH  11  12
ENDBRANCH   1  11
TORSDOF 4
ENDMDL
MODEL 9
REMARK VINA RESULT:      -5.3      2.201      3.266
REMARK  Name = 
REMARK  5 active torsions:
REMARK  status: ('A' for Active; 'I' for Inactive)
REMARK    1  A    between atoms: C_1  and  N_2
REMARK    2  A    between atoms: N_2  and  C_3
REMARK    3  A    between atoms: N_2  and  C_11
REMARK    4  A    between atoms: C_11  and  C_12
REMARK    5  A    between atoms: C_12  and  O_13
REMARK                            x       y       z     vdW  Elec       q    Type
REMARK                         _______ _______ _______ _____ _____    ______ ____
ROOT
ATOM      1  C   UNL     1       3.951   6.016  17.810  0.00  0.00    +0.000 C 
ATOM      2  C   UNL     1       5.155   5.559  17.436  0.00  0.00    +0.000 C 
ATOM      3  C   UNL     1       5.668   5.842  16.068  0.00  0.00    +0.000 C 
ATOM      4  O   UNL     1       5.212   6.666  15.289  0.00  0.00    +0.000 OA
ATOM      5  C   UNL     1       6.786   4.875  15.763  0.00  0.00    +0.000 C 
ATOM      6  N   UNL     1       7.004   4.272  17.060  0.00  0.00    +0.000 N 
ATOM      7  C   UNL     1       6.123   4.632  18.059  0.00  0.00    +0.000 C 
ATOM      8  O   UNL     1       6.187   4.250  19.209  0.00  0.00    +0.000 OA
ATOM      9  H   UNL     1       7.752   3.622  17.271  0.00  0.00    +0.000 HD
ENDROOT
BRANCH   1  11
ATOM     10  C   UNL     1       2.412   6.935  19.521  0.00  0.00    +0.000 C 
ATOM     11  N   UNL     1       3.110   5.793  18.903  0.00  0.00    +0.000 N 
BRANCH  11  12
ATOM     12  C   UNL     1       2.445   4.490  19.156  0.00  0.00    +0.000 C 
BRANCH  12  13
ATOM     13  C   UNL     1       1.553   4.556  20.402  0.00  0.00    +0.000 C 
BRANCH  13  14
ATOM     14  O   UNL     1       0.481   3.615  20.300  0.00  0.00    +0.000 OA
ATOM     15  H   UNL     1       0.850   2.791  20.671  0.00  0.00    +0.000 HD
ENDBRANCH  13  14
ENDBRANCH  12  13
ENDBRANCH  11  12
ENDBRANCH   1  11
TORSDOF 4
ENDMDL
