MODEL 1
REMARK VINA RESULT:      -7.8      0.000      0.000
REMARK  Name = 
REMARK  9 active torsions:
REMARK  status: ('A' for Active; 'I' for Inactive)
REMARK    1  A    between atoms: C_1  and  C_2
REMARK    2  A    between atoms: C_7  and  O_8
REMARK    3  A    between atoms: O_8  and  C_9
REMARK    4  A    between atoms: C_14  and  C_15
REMARK    5  A    between atoms: C_15  and  N_16
REMARK    6  A    between atoms: N_16  and  S_17
REMARK    7  A    between atoms: S_17  and  N_20
REMARK    8  A    between atoms: N_20  and  C_21
REMARK    9  A    between atoms: N_20  and  C_22
REMARK                            x       y       z     vdW  Elec       q    Type
REMARK                         _______ _______ _______ _____ _____    ______ ____
ROOT
ATOM      1  C   UNL     1       2.570   4.766  19.594  0.00  0.00    +0.000 A 
ATOM      2  N   UNL     1       1.325   4.279  19.343  0.00  0.00    +0.000 NA
ATOM      3  C   UNL     1       1.200   3.280  18.449  0.00  0.00    +0.000 A 
ATOM      4  C   UNL     1       2.273   2.678  17.828  0.00  0.00    +0.000 A 
ATOM      5  C   UNL     1       3.549   3.112  18.172  0.00  0.00    +0.000 A 
ATOM      6  C   UNL     1       3.727   4.179  19.075  0.00  0.00    +0.000 A 
ENDROOT
BRANCH   1   7
ATOM      7  O   UNL     1       2.660   5.971  20.308  0.00  0.00    +0.000 OA
BRANCH   7  14
ATOM      8  C   UNL     1       1.118   8.147  21.578  0.00  0.00    +0.000 C 
ATOM      9  C   UNL     1       1.597   8.155  20.152  0.00  0.00    +0.000 A 
ATOM     10  C   UNL     1       1.199   9.232  19.337  0.00  0.00    +0.000 A 
ATOM     11  C   UNL     1       1.605   9.316  18.000  0.00  0.00    +0.000 A 
ATOM     12  C   UNL     1       2.461   8.357  17.479  0.00  0.00    +0.000 A 
ATOM     13  C   UNL     1       2.870   7.294  18.279  0.00  0.00    +0.000 A 
ATOM     14  C   UNL     1       2.378   7.129  19.585  0.00  0.00    +0.000 A 
ENDBRANCH   7  14
ENDBRANCH   1   7
BRANCH   6  15
ATOM     15  C   UNL     1       5.119   4.668  19.366  0.00  0.00    +0.000 C 
BRANCH  15  16
ATOM     16  N   UNL     1       6.147   3.965  18.586  0.00  0.00    +0.000 NA
ATOM     17  H   UNL     1       5.762   3.508  17.760  0.00  0.00    +0.000 HD
BRANCH  16  18
ATOM     18  S   UNL     1       7.448   4.904  18.107  0.00  0.00    +0.000 S 
ATOM     19  O   UNL     1       8.184   5.261  19.288  0.00  0.00    +0.000 OA
ATOM     20  O   UNL     1       8.083   4.226  17.000  0.00  0.00    +0.000 OA
BRANCH  18  21
ATOM     21  N   UNL     1       6.655   6.276  17.521  0.00  0.00    +0.000 NA
ATOM     22  C   UNL     1       7.478   7.505  17.492  0.00  0.00    +0.000 C 
ATOM     23  C   UNL     1       5.985   6.050  16.221  0.00  0.00    +0.000 C 
ENDBRANCH  18  21
ENDBRANCH  16  18
ENDBRANCH  15  16
ENDBRANCH   6  15
TORSDOF 6
ENDMDL
MODEL 2
REMARK VINA RESULT:      -7.6      0.835      1.117
REMARK  Name = 
REMARK  9 active torsions:
REMARK  status: ('A' for Active; 'I' for Inactive)
REMARK    1  A    between atoms: C_1  and  C_2
REMARK    2  A    between atoms: C_7  and  O_8
REMARK    3  A    between atoms: O_8  and  C_9
REMARK    4  A    between atoms: C_14  and  C_15
REMARK    5  A    between atoms: C_15  and  N_16
REMARK    6  A    between atoms: N_16  and  S_17
REMARK    7  A    between atoms: S_17  and  N_20
REMARK    8  A    between atoms: N_20  and  C_21
REMARK    9  A    between atoms: N_20  and  C_22
REMARK                            x       y       z     vdW  Elec       q    Type
REMARK                         _______ _______ _______ _____ _____    ______ ____
ROOT
ATOM      1  C   UNL     1       2.537   4.673  19.663  0.00  0.00    +0.000 A 
ATOM      2  N   UNL     1       1.266   4.223  19.473  0.00  0.00    +0.000 NA
ATOM      3  C   UNL     1       1.073   3.208  18.610  0.00  0.00    +0.000 A 
ATOM      4  C   UNL     1       2.100   2.554  17.964  0.00  0.00    +0.000 A 
ATOM      5  C   UNL     1       3.402   2.952  18.247  0.00  0.00    +0.000 A 
ATOM      6  C   UNL     1       3.652   4.034  19.116  0.00  0.00    +0.000 A 
ENDROOT
BRANCH   1   7
ATOM      7  O   UNL     1       2.694   5.891  20.342  0.00  0.00    +0.000 OA
BRANCH   7  14
ATOM      8  C   UNL     1       1.128   8.066  21.583  0.00  0.00    +0.000 C 
ATOM      9  C   UNL     1       1.614   8.065  20.160  0.00  0.00    +0.000 A 
ATOM     10  C   UNL     1       1.212   9.130  19.332  0.00  0.00    +0.000 A 
ATOM     11  C   UNL     1       1.624   9.204  17.997  0.00  0.00    +0.000 A 
ATOM     12  C   UNL     1       2.491   8.247  17.489  0.00  0.00    +0.000 A 
ATOM     13  C   UNL     1       2.905   7.197  18.302  0.00  0.00    +0.000 A 
ATOM     14  C   UNL     1       2.407   7.040  19.607  0.00  0.00    +0.000 A 
ENDBRANCH   7  14
ENDBRANCH   1   7
BRANCH   6  15
ATOM     15  C   UNL     1       5.070   4.482  19.341  0.00  0.00    +0.000 C 
BRANCH  15  16
ATOM     16  N   UNL     1       6.026   3.831  18.434  0.00  0.00    +0.000 NA
ATOM     17  H   UNL     1       5.561   3.326  17.679  0.00  0.00    +0.000 HD
BRANCH  16  18
ATOM     18  S   UNL     1       7.173   4.845  17.758  0.00  0.00    +0.000 S 
ATOM     19  O   UNL     1       7.068   6.119  18.414  0.00  0.00    +0.000 OA
ATOM     20  O   UNL     1       8.422   4.118  17.721  0.00  0.00    +0.000 OA
BRANCH  18  21
ATOM     21  N   UNL     1       6.583   4.991  16.181  0.00  0.00    +0.000 NA
ATOM     22  C   UNL     1       6.085   3.732  15.585  0.00  0.00    +0.000 C 
ATOM     23  C   UNL     1       5.596   6.083  16.028  0.00  0.00    +0.000 C 
ENDBRANCH  18  21
ENDBRANCH  16  18
ENDBRANCH  15  16
ENDBRANCH   6  15
TORSDOF 6
ENDMDL
MODEL 3
REMARK VINA RESULT:      -7.4      1.173      2.120
REMARK  Name = 
REMARK  9 active torsions:
REMARK  status: ('A' for Active; 'I' for Inactive)
REMARK    1  A    between atoms: C_1  and  C_2
REMARK    2  A    between atoms: C_7  and  O_8
REMARK    3  A    between atoms: O_8  and  C_9
REMARK    4  A    between atoms: C_14  and  C_15
REMARK    5  A    between atoms: C_15  and  N_16
REMARK    6  A    between atoms: N_16  and  S_17
REMARK    7  A    between atoms: S_17  and  N_20
REMARK    8  A    between atoms: N_20  and  C_21
REMARK    9  A    between atoms: N_20  and  C_22
REMARK                            x       y       z     vdW  Elec       q    Type
REMARK                         _______ _______ _______ _____ _____    ______ ____
ROOT
ATOM      1  C   UNL     1       2.883   4.341  19.280  0.00  0.00    +0.000 A 
ATOM      2  N   UNL     1       1.895   3.989  20.148  0.00  0.00    +0.000 NA
ATOM      3  C   UNL     1       1.099   2.955  19.820  0.00  0.00    +0.000 A 
ATOM      4  C   UNL     1       1.275   2.190  18.686  0.00  0.00    +0.000 A 
ATOM      5  C   UNL     1       2.353   2.492  17.861  0.00  0.00    +0.000 A 
ATOM      6  C   UNL     1       3.192   3.589  18.145  0.00  0.00    +0.000 A 
ENDROOT
BRANCH   1   7
ATOM      7  O   UNL     1       3.522   5.572  19.496  0.00  0.00    +0.000 OA
BRANCH   7  14
ATOM      8  C   UNL     1       3.428   7.361  17.148  0.00  0.00    +0.000 C 
ATOM      9  C   UNL     1       2.675   7.590  18.430  0.00  0.00    +0.000 A 
ATOM     10  C   UNL     1       1.951   8.791  18.556  0.00  0.00    +0.000 A 
ATOM     11  C   UNL     1       1.222   9.078  19.716  0.00  0.00    +0.000 A 
ATOM     12  C   UNL     1       1.158   8.142  20.738  0.00  0.00    +0.000 A 
ATOM     13  C   UNL     1       1.860   6.946  20.619  0.00  0.00    +0.000 A 
ATOM     14  C   UNL     1       2.693   6.693  19.516  0.00  0.00    +0.000 A 
ENDBRANCH   7  14
ENDBRANCH   1   7
BRANCH   6  15
ATOM     15  C   UNL     1       4.302   3.929  17.189  0.00  0.00    +0.000 C 
BRANCH  15  16
ATOM     16  N   UNL     1       5.614   4.018  17.845  0.00  0.00    +0.000 NA
ATOM     17  H   UNL     1       6.021   3.100  18.024  0.00  0.00    +0.000 HD
BRANCH  16  18
ATOM     18  S   UNL     1       6.752   4.949  17.044  0.00  0.00    +0.000 S 
ATOM     19  O   UNL     1       7.965   4.183  16.969  0.00  0.00    +0.000 OA
ATOM     20  O   UNL     1       6.118   5.473  15.854  0.00  0.00    +0.000 OA
BRANCH  18  21
ATOM     21  N   UNL     1       6.967   6.211  18.146  0.00  0.00    +0.000 NA
ATOM     22  C   UNL     1       7.689   5.840  19.383  0.00  0.00    +0.000 C 
ATOM     23  C   UNL     1       7.546   7.427  17.532  0.00  0.00    +0.000 C 
ENDBRANCH  18  21
ENDBRANCH  16  18
ENDBRANCH  15  16
ENDBRANCH   6  15
TORSDOF 6
ENDMDL
MODEL 4
REMARK VINA RESULT:      -7.4      1.929      4.439
REMARK  Name = 
REMARK  9 active torsions:
REMARK  status: ('A' for Active; 'I' for Inactive)
REMARK    1  A    between atoms: C_1  and  C_2
REMARK    2  A    between atoms: C_7  and  O_8
REMARK    3  A    between atoms: O_8  and  C_9
REMARK    4  A    between atoms: C_14  and  C_15
REMARK    5  A    between atoms: C_15  and  N_16
REMARK    6  A    between atoms: N_16  and  S_17
REMARK    7  A    between atoms: S_17  and  N_20
REMARK    8  A    between atoms: N_20  and  C_21
REMARK    9  A    between atoms: N_20  and  C_22
REMARK                            x       y       z     vdW  Elec       q    Type
REMARK                         _______ _______ _______ _____ _____    ______ ____
ROOT
ATOM      1  C   UNL     1       2.533   7.038  19.309  0.00  0.00    +0.000 A 
ATOM      2  N   UNL     1       1.726   7.438  20.329  0.00  0.00    +0.000 NA
ATOM      3  C   UNL     1       1.172   8.663  20.260  0.00  0.00    +0.000 A 
ATOM      4  C   UNL     1       1.322   9.504  19.179  0.00  0.00    +0.000 A 
ATOM      5  C   UNL     1       2.061   9.043  18.095  0.00  0.00    +0.000 A 
ATOM      6  C   UNL     1       2.690   7.782  18.137  0.00  0.00    +0.000 A 
ENDROOT
BRANCH   1   7
ATOM      7  O   UNL     1       3.313   5.890  19.516  0.00  0.00    +0.000 OA
BRANCH   7  14
ATOM      8  C   UNL     1       1.659   4.377  17.593  0.00  0.00    +0.000 C 
ATOM      9  C   UNL     1       1.787   4.051  19.056  0.00  0.00    +0.000 A 
ATOM     10  C   UNL     1       0.986   3.011  19.565  0.00  0.00    +0.000 A 
ATOM     11  C   UNL     1       1.047   2.644  20.914  0.00  0.00    +0.000 A 
ATOM     12  C   UNL     1       1.953   3.271  21.757  0.00  0.00    +0.000 A 
ATOM     13  C   UNL     1       2.759   4.292  21.262  0.00  0.00    +0.000 A 
ATOM     14  C   UNL     1       2.626   4.755  19.942  0.00  0.00    +0.000 A 
ENDBRANCH   7  14
ENDBRANCH   1   7
BRANCH   6  15
ATOM     15  C   UNL     1       3.542   7.349  16.975  0.00  0.00    +0.000 C 
BRANCH  15  16
ATOM     16  N   UNL     1       4.885   6.914  17.381  0.00  0.00    +0.000 NA
ATOM     17  H   UNL     1       4.907   6.568  18.340  0.00  0.00    +0.000 HD
BRANCH  16  18
ATOM     18  S   UNL     1       5.594   5.765  16.392  0.00  0.00    +0.000 S 
ATOM     19  O   UNL     1       5.051   4.485  16.754  0.00  0.00    +0.000 OA
ATOM     20  O   UNL     1       5.516   6.258  15.035  0.00  0.00    +0.000 OA
BRANCH  18  21
ATOM     21  N   UNL     1       7.201   5.845  16.907  0.00  0.00    +0.000 NA
ATOM     22  C   UNL     1       7.579   7.114  17.568  0.00  0.00    +0.000 C 
ATOM     23  C   UNL     1       7.610   4.677  17.718  0.00  0.00    +0.000 C 
ENDBRANCH  18  21
ENDBRANCH  16  18
ENDBRANCH  15  16
ENDBRANCH   6  15
TORSDOF 6
ENDMDL
MODEL 5
REMARK VINA RESULT:      -7.3      2.729      4.928
REMARK  Name = 
REMARK  9 active torsions:
REMARK  status: ('A' for Active; 'I' for Inactive)
REMARK    1  A    between atoms: C_1  and  C_2
REMARK    2  A    between atoms: C_7  and  O_8
REMARK    3  A    between atoms: O_8  and  C_9
REMARK    4  A    between atoms: C_14  and  C_15
REMARK    5  A    between atoms: C_15  and  N_16
REMARK    6  A    between atoms: N_16  and  S_17
REMARK    7  A    between atoms: S_17  and  N_20
REMARK    8  A    between atoms: N_20  and  C_21
REMARK    9  A    between atoms: N_20  and  C_22
REMARK                            x       y       z     vdW  Elec       q    Type
REMARK                         _______ _______ _______ _____ _____    ______ ____
ROOT
ATOM      1  C   UNL     1       5.429   5.167  18.102  0.00  0.00    +0.000 A 
ATOM      2  N   UNL     1       6.008   4.918  19.308  0.00  0.00    +0.000 NA
ATOM      3  C   UNL     1       7.204   5.478  19.568  0.00  0.00    +0.000 A 
ATOM      4  C   UNL     1       7.840   6.345  18.706  0.00  0.00    +0.000 A 
ATOM      5  C   UNL     1       7.191   6.676  17.522  0.00  0.00    +0.000 A 
ATOM      6  C   UNL     1       5.953   6.087  17.191  0.00  0.00    +0.000 A 
ENDROOT
BRANCH   1   7
ATOM      7  O   UNL     1       4.332   4.372  17.737  0.00  0.00    +0.000 OA
BRANCH   7  14
ATOM      8  C   UNL     1       3.510   1.642  18.508  0.00  0.00    +0.000 C 
ATOM      9  C   UNL     1       2.909   2.905  19.059  0.00  0.00    +0.000 A 
ATOM     10  C   UNL     1       1.811   2.778  19.931  0.00  0.00    +0.000 A 
ATOM     11  C   UNL     1       1.196   3.904  20.490  0.00  0.00    +0.000 A 
ATOM     12  C   UNL     1       1.708   5.168  20.231  0.00  0.00    +0.000 A 
ATOM     13  C   UNL     1       2.801   5.304  19.381  0.00  0.00    +0.000 A 
ATOM     14  C   UNL     1       3.355   4.196  18.717  0.00  0.00    +0.000 A 
ENDBRANCH   7  14
ENDBRANCH   1   7
BRANCH   6  15
ATOM     15  C   UNL     1       5.317   6.414  15.868  0.00  0.00    +0.000 C 
BRANCH  15  16
ATOM     16  N   UNL     1       5.249   5.258  14.964  0.00  0.00    +0.000 NA
ATOM     17  H   UNL     1       4.777   5.479  14.087  0.00  0.00    +0.000 HD
BRANCH  16  18
ATOM     18  S   UNL     1       6.720   4.545  14.603  0.00  0.00    +0.000 S 
ATOM     19  O   UNL     1       7.645   5.597  14.283  0.00  0.00    +0.000 OA
ATOM     20  O   UNL     1       7.002   3.587  15.648  0.00  0.00    +0.000 OA
BRANCH  18  21
ATOM     21  N   UNL     1       6.332   3.708  13.188  0.00  0.00    +0.000 NA
ATOM     22  C   UNL     1       4.894   3.713  12.837  0.00  0.00    +0.000 C 
ATOM     23  C   UNL     1       7.166   4.101  12.031  0.00  0.00    +0.000 C 
ENDBRANCH  18  21
ENDBRANCH  16  18
ENDBRANCH  15  16
ENDBRANCH   6  15
TORSDOF 6
ENDMDL
MODEL 6
REMARK VINA RESULT:      -7.3      1.851      4.460
REMARK  Name = 
REMARK  9 active torsions:
REMARK  status: ('A' for Active; 'I' for Inactive)
REMARK    1  A    between atoms: C_1  and  C_2
REMARK    2  A    between atoms: C_7  and  O_8
REMARK    3  A    between atoms: O_8  and  C_9
REMARK    4  A    between atoms: C_14  and  C_15
REMARK    5  A    between atoms: C_15  and  N_16
REMARK    6  A    between atoms: N_16  and  S_17
REMARK    7  A    between atoms: S_17  and  N_20
REMARK    8  A    between atoms: N_20  and  C_21
REMARK    9  A    between atoms: N_20  and  C_22
REMARK                            x       y       z     vdW  Elec       q    Type
REMARK                         _______ _______ _______ _____ _____    ______ ____
ROOT
ATOM      1  C   UNL     1       2.399   6.716  19.765  0.00  0.00    +0.000 A 
ATOM      2  N   UNL     1       1.688   7.488  20.632  0.00  0.00    +0.000 NA
ATOM      3  C   UNL     1       1.278   8.701  20.216  0.00  0.00    +0.000 A 
ATOM      4  C   UNL     1       1.480   9.173  18.937  0.00  0.00    +0.000 A 
ATOM      5  C   UNL     1       2.114   8.333  18.028  0.00  0.00    +0.000 A 
ATOM      6  C   UNL     1       2.593   7.069  18.428  0.00  0.00    +0.000 A 
ENDROOT
BRANCH   1   7
ATOM      7  O   UNL     1       3.048   5.588  20.290  0.00  0.00    +0.000 OA
BRANCH   7  14
ATOM      8  C   UNL     1       4.781   3.356  19.429  0.00  0.00    +0.000 C 
ATOM      9  C   UNL     1       3.280   3.295  19.506  0.00  0.00    +0.000 A 
ATOM     10  C   UNL     1       2.650   2.124  19.042  0.00  0.00    +0.000 A 
ATOM     11  C   UNL     1       1.258   1.987  19.083  0.00  0.00    +0.000 A 
ATOM     12  C   UNL     1       0.483   2.993  19.641  0.00  0.00    +0.000 A 
ATOM     13  C   UNL     1       1.095   4.149  20.114  0.00  0.00    +0.000 A 
ATOM     14  C   UNL     1       2.479   4.355  19.972  0.00  0.00    +0.000 A 
ENDBRANCH   7  14
ENDBRANCH   1   7
BRANCH   6  15
ATOM     15  C   UNL     1       3.338   6.220  17.435  0.00  0.00    +0.000 C 
BRANCH  15  16
ATOM     16  N   UNL     1       4.797   6.343  17.558  0.00  0.00    +0.000 NA
ATOM     17  H   UNL     1       5.153   5.903  18.407  0.00  0.00    +0.000 HD
BRANCH  16  18
ATOM     18  S   UNL     1       5.676   5.762  16.257  0.00  0.00    +0.000 S 
ATOM     19  O   UNL     1       5.334   4.377  16.086  0.00  0.00    +0.000 OA
ATOM     20  O   UNL     1       5.527   6.713  15.178  0.00  0.00    +0.000 OA
BRANCH  18  21
ATOM     21  N   UNL     1       7.250   5.867  16.861  0.00  0.00    +0.000 NA
ATOM     22  C   UNL     1       7.550   7.114  17.600  0.00  0.00    +0.000 C 
ATOM     23  C   UNL     1       7.657   4.674  17.637  0.00  0.00    +0.000 C 
ENDBRANCH  18  21
ENDBRANCH  16  18
ENDBRANCH  15  16
ENDBRANCH   6  15
TORSDOF 6
ENDMDL
MODEL 7
REMARK VINA RESULT:      -7.2      1.826      2.582
REMARK  Name = 
REMARK  9 active torsions:
REMARK  status: ('A' for Active; 'I' for Inactive)
REMARK    1  A    between atoms: C_1  and  C_2
REMARK    2  A    between atoms: C_7  and  O_8
REMARK    3  A    between atoms: O_8  and  C_9
REMARK    4  A    between atoms: C_14  and  C_15
REMARK    5  A    between atoms: C_15  and  N_16
REMARK    6  A    between atoms: N_16  and  S_17
REMARK    7  A    between atoms: S_17  and  N_20
REMARK    8  A    between atoms: N_20  and  C_21
REMARK    9  A    between atoms: N_20  and  C_22
REMARK                            x       y       z     vdW  Elec       q    Type
REMARK                         _______ _______ _______ _____ _____    ______ ____
ROOT
ATOM      1  C   UNL     1       2.429   5.335  19.596  0.00  0.00    +0.000 A 
ATOM      2  N   UNL     1       1.649   4.764  20.554  0.00  0.00    +0.000 NA
ATOM      3  C   UNL     1       0.950   3.660  20.232  0.00  0.00    +0.000 A 
ATOM      4  C   UNL     1       1.038   3.037  19.006  0.00  0.00    +0.000 A 
ATOM      5  C   UNL     1       1.919   3.567  18.070  0.00  0.00    +0.000 A 
ATOM      6  C   UNL     1       2.645   4.743  18.350  0.00  0.00    +0.000 A 
ENDROOT
BRANCH   1   7
ATOM      7  O   UNL     1       2.930   6.620  19.854  0.00  0.00    +0.000 OA
BRANCH   7  14
ATOM      8  C   UNL     1       2.462   8.568  17.683  0.00  0.00    +0.000 C 
ATOM      9  C   UNL     1       1.777   8.596  19.021  0.00  0.00    +0.000 A 
ATOM     10  C   UNL     1       0.924   9.682  19.295  0.00  0.00    +0.000 A 
ATOM     11  C   UNL     1       0.247   9.781  20.516  0.00  0.00    +0.000 A 
ATOM     12  C   UNL     1       0.365   8.765  21.453  0.00  0.00    +0.000 A 
ATOM     13  C   UNL     1       1.195   7.680  21.188  0.00  0.00    +0.000 A 
ATOM     14  C   UNL     1       1.976   7.623  20.021  0.00  0.00    +0.000 A 
ENDBRANCH   7  14
ENDBRANCH   1   7
BRANCH   6  15
ATOM     15  C   UNL     1       3.532   5.327  17.285  0.00  0.00    +0.000 C 
BRANCH  15  16
ATOM     16  N   UNL     1       4.935   5.441  17.708  0.00  0.00    +0.000 NA
ATOM     17  H   UNL     1       5.394   4.533  17.777  0.00  0.00    +0.000 HD
BRANCH  16  18
ATOM     18  S   UNL     1       5.888   6.442  16.763  0.00  0.00    +0.000 S 
ATOM     19  O   UNL     1       5.175   6.692  15.541  0.00  0.00    +0.000 OA
ATOM     20  O   UNL     1       6.341   7.526  17.606  0.00  0.00    +0.000 OA
BRANCH  18  21
ATOM     21  N   UNL     1       7.196   5.424  16.437  0.00  0.00    +0.000 NA
ATOM     22  C   UNL     1       7.595   4.546  17.559  0.00  0.00    +0.000 C 
ATOM     23  C   UNL     1       7.034   4.651  15.185  0.00  0.00    +0.000 C 
ENDBRANCH  18  21
ENDBRANCH  16  18
ENDBRANCH  15  16
ENDBRANCH   6  15
TORSDOF 6
ENDMDL
MODEL 8
REMARK VINA RESULT:      -7.2      1.125      1.345
REMARK  Name = 
REMARK  9 active torsions:
REMARK  status: ('A' for Active; 'I' for Inactive)
REMARK    1  A    between atoms: C_1  and  C_2
REMARK    2  A    between atoms: C_7  and  O_8
REMARK    3  A    between atoms: O_8  and  C_9
REMARK    4  A    between atoms: C_14  and  C_15
REMARK    5  A    between atoms: C_15  and  N_16
REMARK    6  A    between atoms: N_16  and  S_17
REMARK    7  A    between atoms: S_17  and  N_20
REMARK    8  A    between atoms: N_20  and  C_21
REMARK    9  A    between atoms: N_20  and  C_22
REMARK                            x       y       z     vdW  Elec       q    Type
REMARK                         _______ _______ _______ _____ _____    ______ ____
ROOT
ATOM      1  C   UNL     1       2.742   5.086  19.367  0.00  0.00    +0.000 A 
ATOM      2  N   UNL     1       1.520   4.562  19.079  0.00  0.00    +0.000 NA
ATOM      3  C   UNL     1       1.445   3.601  18.140  0.00  0.00    +0.000 A 
ATOM      4  C   UNL     1       2.547   3.071  17.505  0.00  0.00    +0.000 A 
ATOM      5  C   UNL     1       3.801   3.539  17.884  0.00  0.00    +0.000 A 
ATOM      6  C   UNL     1       3.927   4.570  18.837  0.00  0.00    +0.000 A 
ENDROOT
BRANCH   1   7
ATOM      7  O   UNL     1       2.775   6.259  20.137  0.00  0.00    +0.000 OA
BRANCH   7  14
ATOM      8  C   UNL     1       1.150   8.211  21.643  0.00  0.00    +0.000 C 
ATOM      9  C   UNL     1       1.501   8.333  20.186  0.00  0.00    +0.000 A 
ATOM     10  C   UNL     1       0.934   9.401  19.465  0.00  0.00    +0.000 A 
ATOM     11  C   UNL     1       1.213   9.585  18.106  0.00  0.00    +0.000 A 
ATOM     12  C   UNL     1       2.108   8.740  17.466  0.00  0.00    +0.000 A 
ATOM     13  C   UNL     1       2.684   7.689  18.172  0.00  0.00    +0.000 A 
ATOM     14  C   UNL     1       2.324   7.416  19.503  0.00  0.00    +0.000 A 
ENDBRANCH   7  14
ENDBRANCH   1   7
BRANCH   6  15
ATOM     15  C   UNL     1       5.295   5.100  19.167  0.00  0.00    +0.000 C 
BRANCH  15  16
ATOM     16  N   UNL     1       5.770   6.099  18.201  0.00  0.00    +0.000 NA
ATOM     17  H   UNL     1       6.023   6.981  18.647  0.00  0.00    +0.000 HD
BRANCH  16  18
ATOM     18  S   UNL     1       7.050   5.612  17.239  0.00  0.00    +0.000 S 
ATOM     19  O   UNL     1       7.825   6.780  16.922  0.00  0.00    +0.000 OA
ATOM     20  O   UNL     1       7.650   4.460  17.872  0.00  0.00    +0.000 OA
BRANCH  18  21
ATOM     21  N   UNL     1       6.233   5.104  15.850  0.00  0.00    +0.000 NA
ATOM     22  C   UNL     1       5.135   5.996  15.414  0.00  0.00    +0.000 C 
ATOM     23  C   UNL     1       7.139   4.782  14.726  0.00  0.00    +0.000 C 
ENDBRANCH  18  21
ENDBRANCH  16  18
ENDBRANCH  15  16
ENDBRANCH   6  15
TORSDOF 6
ENDMDL
MODEL 9
REMARK VINA RESULT:      -7.2      2.791      4.910
REMARK  Name = 
REMARK  9 active torsions:
REMARK  status: ('A' for Active; 'I' for Inactive)
REMARK    1  A    between atoms: C_1  and  C_2
REMARK    2  A    between atoms: C_7  and  O_8
REMARK    3  A    between atoms: O_8  and  C_9
REMARK    4  A    between atoms: C_14  and  C_15
REMARK    5  A    between atoms: C_15  and  N_16
REMARK    6  A    between atoms: N_16  and  S_17
REMARK    7  A    between atoms: S_17  and  N_20
REMARK    8  A    between atoms: N_20  and  C_21
REMARK    9  A    between atoms: N_20  and  C_22
REMARK                            x       y       z     vdW  Elec       q    Type
REMARK                         _______ _______ _______ _____ _____    ______ ____
ROOT
ATOM      1  C   UNL     1       5.661   5.161  18.409  0.00  0.00    +0.000 A 
ATOM      2  N   UNL     1       6.421   4.950  19.518  0.00  0.00    +0.000 NA
ATOM      3  C   UNL     1       7.557   5.659  19.656  0.00  0.00    +0.000 A 
ATOM      4  C   UNL     1       7.954   6.637  18.770  0.00  0.00    +0.000 A 
ATOM      5  C   UNL     1       7.117   6.919  17.696  0.00  0.00    +0.000 A 
ATOM      6  C   UNL     1       5.935   6.178  17.491  0.00  0.00    +0.000 A 
ENDROOT
BRANCH   1   7
ATOM      7  O   UNL     1       4.640   4.237  18.141  0.00  0.00    +0.000 OA
BRANCH   7  14
ATOM      8  C   UNL     1       3.539   1.584  18.830  0.00  0.00    +0.000 C 
ATOM      9  C   UNL     1       3.064   2.886  19.413  0.00  0.00    +0.000 A 
ATOM     10  C   UNL     1       1.951   2.847  20.275  0.00  0.00    +0.000 A 
ATOM     11  C   UNL     1       1.450   4.015  20.862  0.00  0.00    +0.000 A 
ATOM     12  C   UNL     1       2.090   5.226  20.642  0.00  0.00    +0.000 A 
ATOM     13  C   UNL     1       3.198   5.274  19.802  0.00  0.00    +0.000 A 
ATOM     14  C   UNL     1       3.642   4.134  19.110  0.00  0.00    +0.000 A 
ENDBRANCH   7  14
ENDBRANCH   1   7
BRANCH   6  15
ATOM     15  C   UNL     1       5.093   6.463  16.278  0.00  0.00    +0.000 C 
BRANCH  15  16
ATOM     16  N   UNL     1       5.813   6.241  15.016  0.00  0.00    +0.000 NA
ATOM     17  H   UNL     1       6.606   6.873  14.906  0.00  0.00    +0.000 HD
BRANCH  16  18
ATOM     18  S   UNL     1       6.350   4.676  14.766  0.00  0.00    +0.000 S 
ATOM     19  O   UNL     1       7.616   4.540  15.432  0.00  0.00    +0.000 OA
ATOM     20  O   UNL     1       5.246   3.790  15.059  0.00  0.00    +0.000 OA
BRANCH  18  21
ATOM     21  N   UNL     1       6.609   4.689  13.096  0.00  0.00    +0.000 NA
ATOM     22  C   UNL     1       7.943   5.173  12.677  0.00  0.00    +0.000 C 
ATOM     23  C   UNL     1       6.279   3.401  12.446  0.00  0.00    +0.000 C 
ENDBRANCH  18  21
ENDBRANCH  16  18
ENDBRANCH  15  16
ENDBRANCH   6  15
TORSDOF 6
ENDMDL
