MODEL 1
REMARK VINA RESULT:      -9.1      0.000      0.000
REMARK  Name = 
REMARK  5 active torsions:
REMARK  status: ('A' for Active; 'I' for Inactive)
REMARK    1  A    between atoms: C_2  and  C_4
REMARK    2  A    between atoms: N_7  and  C_8
REMARK    3  A    between atoms: C_8  and  C_9
REMARK    4  A    between atoms: C_8  and  C_19
REMARK    5  A    between atoms: C_12  and  C_13
REMARK                            x       y       z     vdW  Elec       q    Type
REMARK                         _______ _______ _______ _____ _____    ______ ____
ROOT
ATOM      1  C   UNL     1       3.146   6.044  19.163  0.00  0.00    +0.000 C 
ENDROOT
BRANCH   1   5
ATOM      2  C   UNL     1       5.846   5.264  15.812  0.00  0.00    +0.000 C 
ATOM      3  C   UNL     1       4.995   6.531  15.826  0.00  0.00    +0.000 C 
ATOM      4  C   UNL     1       4.486   6.843  17.234  0.00  0.00    +0.000 C 
ATOM      5  N   UNL     1       3.711   5.734  17.801  0.00  0.00    +0.000 NA
ATOM      6  C   UNL     1       4.450   4.465  17.786  0.00  0.00    +0.000 C 
ATOM      7  C   UNL     1       5.038   4.114  16.415  0.00  0.00    +0.000 C 
BRANCH   2   9
ATOM      8  N   UNL     1       7.773   4.327  16.992  0.00  0.00    +0.000 N 
ATOM      9  C   UNL     1       7.186   5.464  16.524  0.00  0.00    +0.000 C 
ATOM     10  O   UNL     1       7.721   6.551  16.707  0.00  0.00    +0.000 OA
ATOM     11  H   UNL     1       8.622   4.439  17.531  0.00  0.00    +0.000 HD
ATOM     12  H   UNL     1       7.281   3.447  17.054  0.00  0.00    +0.000 HD
ENDBRANCH   2   9
ENDBRANCH   1   5
BRANCH   1  13
ATOM     13  C   UNL     1       2.354   7.367  19.205  0.00  0.00    +0.000 A 
ATOM     14  C   UNL     1       1.777   7.842  20.394  0.00  0.00    +0.000 A 
ATOM     15  C   UNL     1       0.962   8.976  20.394  0.00  0.00    +0.000 A 
ATOM     16  C   UNL     1       0.702   9.666  19.204  0.00  0.00    +0.000 A 
ATOM     17  C   UNL     1       1.302   9.218  18.018  0.00  0.00    +0.000 A 
ATOM     18  C   UNL     1       2.127   8.090  18.021  0.00  0.00    +0.000 A 
BRANCH  16  19
ATOM     19  C   UNL     1      -0.221  10.858  19.180  0.00  0.00    +0.000 C 
ATOM     20  F   UNL     1      -1.026  10.947  20.277  0.00  0.00    +0.000 F 
ATOM     21  F   UNL     1       0.455  12.039  19.119  0.00  0.00    +0.000 F 
ATOM     22  F   UNL     1      -1.058  10.852  18.106  0.00  0.00    +0.000 F 
ENDBRANCH  16  19
ENDBRANCH   1  13
BRANCH   1  23
ATOM     23  C   UNL     1       2.403   4.866  19.842  0.00  0.00    +0.000 A 
ATOM     24  C   UNL     1       2.765   4.472  21.132  0.00  0.00    +0.000 A 
ATOM     25  N   UNL     1       2.164   3.458  21.805  0.00  0.00    +0.000 NA
ATOM     26  C   UNL     1       1.181   2.826  21.131  0.00  0.00    +0.000 A 
ATOM     27  C   UNL     1       0.816   3.186  19.847  0.00  0.00    +0.000 A 
ATOM     28  N   UNL     1       1.411   4.201  19.182  0.00  0.00    +0.000 NA
ENDBRANCH   1  23
TORSDOF 5
ENDMDL
MODEL 2
REMARK VINA RESULT:      -9.0      0.397      1.301
REMARK  Name = 
REMARK  5 active torsions:
REMARK  status: ('A' for Active; 'I' for Inactive)
REMARK    1  A    between atoms: C_2  and  C_4
REMARK    2  A    between atoms: N_7  and  C_8
REMARK    3  A    between atoms: C_8  and  C_9
REMARK    4  A    between atoms: C_8  and  C_19
REMARK    5  A    between atoms: C_12  and  C_13
REMARK                            x       y       z     vdW  Elec       q    Type
REMARK                         _______ _______ _______ _____ _____    ______ ____
ROOT
ATOM      1  C   UNL     1       3.088   6.024  19.151  0.00  0.00    +0.000 C 
ENDROOT
BRANCH   1   5
ATOM      2  C   UNL     1       5.843   5.277  15.837  0.00  0.00    +0.000 C 
ATOM      3  C   UNL     1       4.988   6.542  15.847  0.00  0.00    +0.000 C 
ATOM      4  C   UNL     1       4.456   6.841  17.249  0.00  0.00    +0.000 C 
ATOM      5  N   UNL     1       3.675   5.726  17.796  0.00  0.00    +0.000 NA
ATOM      6  C   UNL     1       4.419   4.460  17.784  0.00  0.00    +0.000 C 
ATOM      7  C   UNL     1       5.029   4.120  16.419  0.00  0.00    +0.000 C 
BRANCH   2   9
ATOM      8  N   UNL     1       7.766   4.336  17.020  0.00  0.00    +0.000 N 
ATOM      9  C   UNL     1       7.171   5.476  16.572  0.00  0.00    +0.000 C 
ATOM     10  O   UNL     1       7.690   6.565  16.789  0.00  0.00    +0.000 OA
ATOM     11  H   UNL     1       8.607   4.445  17.572  0.00  0.00    +0.000 HD
ATOM     12  H   UNL     1       7.285   3.448  17.054  0.00  0.00    +0.000 HD
ENDBRANCH   2   9
ENDBRANCH   1   5
BRANCH   1  13
ATOM     13  C   UNL     1       2.244   7.316  19.177  0.00  0.00    +0.000 A 
ATOM     14  C   UNL     1       2.048   8.090  18.022  0.00  0.00    +0.000 A 
ATOM     15  C   UNL     1       1.385   9.318  18.085  0.00  0.00    +0.000 A 
ATOM     16  C   UNL     1       0.902   9.805  19.305  0.00  0.00    +0.000 A 
ATOM     17  C   UNL     1       1.065   9.022  20.457  0.00  0.00    +0.000 A 
ATOM     18  C   UNL     1       1.717   7.788  20.392  0.00  0.00    +0.000 A 
BRANCH  16  19
ATOM     19  C   UNL     1       0.236  11.154  19.397  0.00  0.00    +0.000 C 
ATOM     20  F   UNL     1       0.593  12.009  18.397  0.00  0.00    +0.000 F 
ATOM     21  F   UNL     1      -1.123  11.069  19.343  0.00  0.00    +0.000 F 
ATOM     22  F   UNL     1       0.522  11.804  20.559  0.00  0.00    +0.000 F 
ENDBRANCH  16  19
ENDBRANCH   1  13
BRANCH   1  23
ATOM     23  C   UNL     1       2.386   4.824  19.834  0.00  0.00    +0.000 A 
ATOM     24  C   UNL     1       2.766   4.444  21.123  0.00  0.00    +0.000 A 
ATOM     25  N   UNL     1       2.200   3.411  21.799  0.00  0.00    +0.000 NA
ATOM     26  C   UNL     1       1.236   2.747  21.130  0.00  0.00    +0.000 A 
ATOM     27  C   UNL     1       0.854   3.093  19.847  0.00  0.00    +0.000 A 
ATOM     28  N   UNL     1       1.414   4.126  19.178  0.00  0.00    +0.000 NA
ENDBRANCH   1  23
TORSDOF 5
ENDMDL
MODEL 3
REMARK VINA RESULT:      -9.0      0.552      1.238
REMARK  Name = 
REMARK  5 active torsions:
REMARK  status: ('A' for Active; 'I' for Inactive)
REMARK    1  A    between atoms: C_2  and  C_4
REMARK    2  A    between atoms: N_7  and  C_8
REMARK    3  A    between atoms: C_8  and  C_9
REMARK    4  A    between atoms: C_8  and  C_19
REMARK    5  A    between atoms: C_12  and  C_13
REMARK                            x       y       z     vdW  Elec       q    Type
REMARK                         _______ _______ _______ _____ _____    ______ ____
ROOT
ATOM      1  C   UNL     1       3.184   6.071  19.106  0.00  0.00    +0.000 C 
ENDROOT
BRANCH   1   5
ATOM      2  C   UNL     1       5.869   5.265  15.750  0.00  0.00    +0.000 C 
ATOM      3  C   UNL     1       5.023   6.537  15.761  0.00  0.00    +0.000 C 
ATOM      4  C   UNL     1       4.521   6.856  17.169  0.00  0.00    +0.000 C 
ATOM      5  N   UNL     1       3.743   5.753  17.744  0.00  0.00    +0.000 NA
ATOM      6  C   UNL     1       4.477   4.481  17.732  0.00  0.00    +0.000 C 
ATOM      7  C   UNL     1       5.058   4.121  16.361  0.00  0.00    +0.000 C 
BRANCH   2   9
ATOM      8  N   UNL     1       7.792   4.327  16.936  0.00  0.00    +0.000 N 
ATOM      9  C   UNL     1       7.213   5.463  16.457  0.00  0.00    +0.000 C 
ATOM     10  O   UNL     1       7.757   6.548  16.626  0.00  0.00    +0.000 OA
ATOM     11  H   UNL     1       8.643   4.438  17.471  0.00  0.00    +0.000 HD
ATOM     12  H   UNL     1       7.293   3.451  17.009  0.00  0.00    +0.000 HD
ENDBRANCH   2   9
ENDBRANCH   1   5
BRANCH   1  13
ATOM     13  C   UNL     1       2.379   7.387  19.141  0.00  0.00    +0.000 A 
ATOM     14  C   UNL     1       1.807   7.870  20.329  0.00  0.00    +0.000 A 
ATOM     15  C   UNL     1       0.981   8.996  20.323  0.00  0.00    +0.000 A 
ATOM     16  C   UNL     1       0.704   9.669  19.127  0.00  0.00    +0.000 A 
ATOM     17  C   UNL     1       1.299   9.214  17.942  0.00  0.00    +0.000 A 
ATOM     18  C   UNL     1       2.135   8.095  17.950  0.00  0.00    +0.000 A 
BRANCH  16  19
ATOM     19  C   UNL     1      -0.231  10.852  19.097  0.00  0.00    +0.000 C 
ATOM     20  F   UNL     1       0.342  11.989  18.612  0.00  0.00    +0.000 F 
ATOM     21  F   UNL     1      -1.328  10.629  18.320  0.00  0.00    +0.000 F 
ATOM     22  F   UNL     1      -0.708  11.175  20.331  0.00  0.00    +0.000 F 
ENDBRANCH  16  19
ENDBRANCH   1  13
BRANCH   1  23
ATOM     23  C   UNL     1       2.457   4.894  19.802  0.00  0.00    +0.000 A 
ATOM     24  C   UNL     1       1.444   4.210  19.125  0.00  0.00    +0.000 A 
ATOM     25  N   UNL     1       0.761   3.163  19.654  0.00  0.00    +0.000 NA
ATOM     26  C   UNL     1       1.114   2.823  20.911  0.00  0.00    +0.000 A 
ATOM     27  C   UNL     1       2.101   3.497  21.608  0.00  0.00    +0.000 A 
ATOM     28  N   UNL     1       2.785   4.534  21.076  0.00  0.00    +0.000 NA
ENDBRANCH   1  23
TORSDOF 5
ENDMDL
MODEL 4
REMARK VINA RESULT:      -8.9      0.602      1.363
REMARK  Name = 
REMARK  5 active torsions:
REMARK  status: ('A' for Active; 'I' for Inactive)
REMARK    1  A    between atoms: C_2  and  C_4
REMARK    2  A    between atoms: N_7  and  C_8
REMARK    3  A    between atoms: C_8  and  C_9
REMARK    4  A    between atoms: C_8  and  C_19
REMARK    5  A    between atoms: C_12  and  C_13
REMARK                            x       y       z     vdW  Elec       q    Type
REMARK                         _______ _______ _______ _____ _____    ______ ____
ROOT
ATOM      1  C   UNL     1       3.123   6.057  19.101  0.00  0.00    +0.000 C 
ENDROOT
BRANCH   1   5
ATOM      2  C   UNL     1       5.844   5.297  15.763  0.00  0.00    +0.000 C 
ATOM      3  C   UNL     1       5.004   6.572  15.786  0.00  0.00    +0.000 C 
ATOM      4  C   UNL     1       4.486   6.869  17.194  0.00  0.00    +0.000 C 
ATOM      5  N   UNL     1       3.697   5.760  17.740  0.00  0.00    +0.000 NA
ATOM      6  C   UNL     1       4.425   4.485  17.715  0.00  0.00    +0.000 C 
ATOM      7  C   UNL     1       5.021   4.146  16.344  0.00  0.00    +0.000 C 
BRANCH   2   9
ATOM      8  N   UNL     1       7.757   4.328  16.939  0.00  0.00    +0.000 N 
ATOM      9  C   UNL     1       7.180   5.476  16.489  0.00  0.00    +0.000 C 
ATOM     10  O   UNL     1       7.719   6.556  16.696  0.00  0.00    +0.000 OA
ATOM     11  H   UNL     1       8.603   4.424  17.486  0.00  0.00    +0.000 HD
ATOM     12  H   UNL     1       7.260   3.449  16.981  0.00  0.00    +0.000 HD
ENDBRANCH   2   9
ENDBRANCH   1   5
BRANCH   1  13
ATOM     13  C   UNL     1       2.259   7.335  19.131  0.00  0.00    +0.000 A 
ATOM     14  C   UNL     1       2.040   8.102  17.975  0.00  0.00    +0.000 A 
ATOM     15  C   UNL     1       1.358   9.320  18.041  0.00  0.00    +0.000 A 
ATOM     16  C   UNL     1       0.879   9.803  19.264  0.00  0.00    +0.000 A 
ATOM     17  C   UNL     1       1.065   9.026  20.417  0.00  0.00    +0.000 A 
ATOM     18  C   UNL     1       1.735   7.802  20.349  0.00  0.00    +0.000 A 
BRANCH  16  19
ATOM     19  C   UNL     1       0.192  11.142  19.358  0.00  0.00    +0.000 C 
ATOM     20  F   UNL     1      -0.774  11.193  20.319  0.00  0.00    +0.000 F 
ATOM     21  F   UNL     1       1.058  12.153  19.649  0.00  0.00    +0.000 F 
ATOM     22  F   UNL     1      -0.422  11.500  18.197  0.00  0.00    +0.000 F 
ENDBRANCH  16  19
ENDBRANCH   1  13
BRANCH   1  23
ATOM     23  C   UNL     1       2.449   4.850  19.800  0.00  0.00    +0.000 A 
ATOM     24  C   UNL     1       1.421   4.161  19.151  0.00  0.00    +0.000 A 
ATOM     25  N   UNL     1       0.781   3.089  19.685  0.00  0.00    +0.000 NA
ATOM     26  C   UNL     1       1.195   2.729  20.917  0.00  0.00    +0.000 A 
ATOM     27  C   UNL     1       2.198   3.406  21.587  0.00  0.00    +0.000 A 
ATOM     28  N   UNL     1       2.839   4.468  21.050  0.00  0.00    +0.000 NA
ENDBRANCH   1  23
TORSDOF 5
ENDMDL
MODEL 5
REMARK VINA RESULT:      -8.6      2.372      4.880
REMARK  Name = 
REMARK  5 active torsions:
REMARK  status: ('A' for Active; 'I' for Inactive)
REMARK    1  A    between atoms: C_2  and  C_4
REMARK    2  A    between atoms: N_7  and  C_8
REMARK    3  A    between atoms: C_8  and  C_9
REMARK    4  A    between atoms: C_8  and  C_19
REMARK    5  A    between atoms: C_12  and  C_13
REMARK                            x       y       z     vdW  Elec       q    Type
REMARK                         _______ _______ _______ _____ _____    ______ ____
ROOT
ATOM      1  C   UNL     1       3.907   5.781  17.701  0.00  0.00    +0.000 C 
ENDROOT
BRANCH   1   5
ATOM      2  C   UNL     1       2.162   2.245  19.592  0.00  0.00    +0.000 C 
ATOM      3  C   UNL     1       3.661   2.510  19.708  0.00  0.00    +0.000 C 
ATOM      4  C   UNL     1       3.993   3.969  19.393  0.00  0.00    +0.000 C 
ATOM      5  N   UNL     1       3.534   4.366  18.058  0.00  0.00    +0.000 NA
ATOM      6  C   UNL     1       2.104   4.104  17.854  0.00  0.00    +0.000 C 
ATOM      7  C   UNL     1       1.686   2.671  18.203  0.00  0.00    +0.000 C 
BRANCH   2   9
ATOM      8  N   UNL     1       1.633   2.482  21.969  0.00  0.00    +0.000 N 
ATOM      9  C   UNL     1       1.370   2.929  20.710  0.00  0.00    +0.000 C 
ATOM     10  O   UNL     1       0.530   3.803  20.532  0.00  0.00    +0.000 OA
ATOM     11  H   UNL     1       1.071   2.865  22.717  0.00  0.00    +0.000 HD
ATOM     12  H   UNL     1       2.150   1.633  22.148  0.00  0.00    +0.000 HD
ENDBRANCH   2   9
ENDBRANCH   1   5
BRANCH   1  13
ATOM     13  C   UNL     1       2.939   6.831  18.287  0.00  0.00    +0.000 A 
ATOM     14  C   UNL     1       2.478   7.914  17.522  0.00  0.00    +0.000 A 
ATOM     15  C   UNL     1       1.700   8.921  18.100  0.00  0.00    +0.000 A 
ATOM     16  C   UNL     1       1.365   8.871  19.458  0.00  0.00    +0.000 A 
ATOM     17  C   UNL     1       1.793   7.775  20.220  0.00  0.00    +0.000 A 
ATOM     18  C   UNL     1       2.560   6.761  19.639  0.00  0.00    +0.000 A 
BRANCH  16  19
ATOM     19  C   UNL     1       0.574   9.979  20.107  0.00  0.00    +0.000 C 
ATOM     20  F   UNL     1       1.294  11.120  20.303  0.00  0.00    +0.000 F 
ATOM     21  F   UNL     1      -0.510  10.348  19.368  0.00  0.00    +0.000 F 
ATOM     22  F   UNL     1       0.090   9.632  21.331  0.00  0.00    +0.000 F 
ENDBRANCH  16  19
ENDBRANCH   1  13
BRANCH   1  23
ATOM     23  C   UNL     1       5.398   6.137  17.922  0.00  0.00    +0.000 A 
ATOM     24  C   UNL     1       6.014   7.078  17.094  0.00  0.00    +0.000 A 
ATOM     25  N   UNL     1       7.312   7.455  17.220  0.00  0.00    +0.000 NA
ATOM     26  C   UNL     1       7.995   6.840  18.208  0.00  0.00    +0.000 A 
ATOM     27  C   UNL     1       7.411   5.893  19.030  0.00  0.00    +0.000 A 
ATOM     28  N   UNL     1       6.117   5.525  18.907  0.00  0.00    +0.000 NA
ENDBRANCH   1  23
TORSDOF 5
ENDMDL
MODEL 6
REMARK VINA RESULT:      -8.6      1.365      2.093
REMARK  Name = 
REMARK  5 active torsions:
REMARK  status: ('A' for Active; 'I' for Inactive)
REMARK    1  A    between atoms: C_2  and  C_4
REMARK    2  A    between atoms: N_7  and  C_8
REMARK    3  A    between atoms: C_8  and  C_9
REMARK    4  A    between atoms: C_8  and  C_19
REMARK    5  A    between atoms: C_12  and  C_13
REMARK                            x       y       z     vdW  Elec       q    Type
REMARK                         _______ _______ _______ _____ _____    ______ ____
ROOT
ATOM      1  C   UNL     1       3.492   6.144  19.020  0.00  0.00    +0.000 C 
ENDROOT
BRANCH   1   5
ATOM      2  C   UNL     1       6.786   5.889  16.154  0.00  0.00    +0.000 C 
ATOM      3  C   UNL     1       6.927   6.758  17.402  0.00  0.00    +0.000 C 
ATOM      4  C   UNL     1       5.900   6.370  18.467  0.00  0.00    +0.000 C 
ATOM      5  N   UNL     1       4.523   6.460  17.968  0.00  0.00    +0.000 NA
ATOM      6  C   UNL     1       4.318   5.679  16.741  0.00  0.00    +0.000 C 
ATOM      7  C   UNL     1       5.347   5.976  15.645  0.00  0.00    +0.000 C 
BRANCH   2   9
ATOM      8  N   UNL     1       6.488   3.492  15.769  0.00  0.00    +0.000 N 
ATOM      9  C   UNL     1       7.223   4.444  16.408  0.00  0.00    +0.000 C 
ATOM     10  O   UNL     1       8.145   4.115  17.146  0.00  0.00    +0.000 OA
ATOM     11  H   UNL     1       6.709   2.527  15.978  0.00  0.00    +0.000 HD
ATOM     12  H   UNL     1       5.602   3.694  15.327  0.00  0.00    +0.000 HD
ENDBRANCH   2   9
ENDBRANCH   1   5
BRANCH   1  13
ATOM     13  C   UNL     1       2.460   7.273  19.217  0.00  0.00    +0.000 A 
ATOM     14  C   UNL     1       2.179   8.200  18.201  0.00  0.00    +0.000 A 
ATOM     15  C   UNL     1       1.333   9.287  18.434  0.00  0.00    +0.000 A 
ATOM     16  C   UNL     1       0.748   9.477  19.691  0.00  0.00    +0.000 A 
ATOM     17  C   UNL     1       0.997   8.537  20.701  0.00  0.00    +0.000 A 
ATOM     18  C   UNL     1       1.832   7.442  20.464  0.00  0.00    +0.000 A 
BRANCH  16  19
ATOM     19  C   UNL     1      -0.121  10.677  19.973  0.00  0.00    +0.000 C 
ATOM     20  F   UNL     1      -1.176  10.799  19.120  0.00  0.00    +0.000 F 
ATOM     21  F   UNL     1      -0.658  10.649  21.225  0.00  0.00    +0.000 F 
ATOM     22  F   UNL     1       0.562  11.852  19.887  0.00  0.00    +0.000 F 
ENDBRANCH  16  19
ENDBRANCH   1  13
BRANCH   1  23
ATOM     23  C   UNL     1       2.845   4.741  18.896  0.00  0.00    +0.000 A 
ATOM     24  C   UNL     1       1.705   4.574  18.106  0.00  0.00    +0.000 A 
ATOM     25  N   UNL     1       1.078   3.382  17.935  0.00  0.00    +0.000 NA
ATOM     26  C   UNL     1       1.625   2.345  18.602  0.00  0.00    +0.000 A 
ATOM     27  C   UNL     1       2.743   2.489  19.404  0.00  0.00    +0.000 A 
ATOM     28  N   UNL     1       3.370   3.676  19.567  0.00  0.00    +0.000 NA
ENDBRANCH   1  23
TORSDOF 5
ENDMDL
MODEL 7
REMARK VINA RESULT:      -8.5      2.332      4.717
REMARK  Name = 
REMARK  5 active torsions:
REMARK  status: ('A' for Active; 'I' for Inactive)
REMARK    1  A    between atoms: C_2  and  C_4
REMARK    2  A    between atoms: N_7  and  C_8
REMARK    3  A    between atoms: C_8  and  C_9
REMARK    4  A    between atoms: C_8  and  C_19
REMARK    5  A    between atoms: C_12  and  C_13
REMARK                            x       y       z     vdW  Elec       q    Type
REMARK                         _______ _______ _______ _____ _____    ______ ____
ROOT
ATOM      1  C   UNL     1       3.863   5.678  17.752  0.00  0.00    +0.000 C 
ENDROOT
BRANCH   1   5
ATOM      2  C   UNL     1       2.196   2.017  19.467  0.00  0.00    +0.000 C 
ATOM      3  C   UNL     1       3.674   2.077  19.089  0.00  0.00    +0.000 C 
ATOM      4  C   UNL     1       4.152   3.523  18.946  0.00  0.00    +0.000 C 
ATOM      5  N   UNL     1       3.369   4.270  17.955  0.00  0.00    +0.000 NA
ATOM      6  C   UNL     1       1.926   4.226  18.229  0.00  0.00    +0.000 C 
ATOM      7  C   UNL     1       1.385   2.807  18.438  0.00  0.00    +0.000 C 
BRANCH   2   9
ATOM      8  N   UNL     1       0.723   3.055  21.120  0.00  0.00    +0.000 N 
ATOM      9  C   UNL     1       1.948   2.505  20.897  0.00  0.00    +0.000 C 
ATOM     10  O   UNL     1       2.771   2.450  21.803  0.00  0.00    +0.000 OA
ATOM     11  H   UNL     1       0.560   3.453  22.036  0.00  0.00    +0.000 HD
ATOM     12  H   UNL     1       0.097   3.314  20.371  0.00  0.00    +0.000 HD
ENDBRANCH   2   9
ENDBRANCH   1   5
BRANCH   1  13
ATOM     13  C   UNL     1       2.922   6.745  18.350  0.00  0.00    +0.000 A 
ATOM     14  C   UNL     1       2.493   7.852  17.601  0.00  0.00    +0.000 A 
ATOM     15  C   UNL     1       1.741   8.871  18.191  0.00  0.00    +0.000 A 
ATOM     16  C   UNL     1       1.400   8.810  19.547  0.00  0.00    +0.000 A 
ATOM     17  C   UNL     1       1.796   7.691  20.294  0.00  0.00    +0.000 A 
ATOM     18  C   UNL     1       2.537   6.665  19.700  0.00  0.00    +0.000 A 
BRANCH  16  19
ATOM     19  C   UNL     1       0.638   9.929  20.210  0.00  0.00    +0.000 C 
ATOM     20  F   UNL     1       1.284  11.129  20.167  0.00  0.00    +0.000 F 
ATOM     21  F   UNL     1      -0.579  10.143  19.636  0.00  0.00    +0.000 F 
ATOM     22  F   UNL     1       0.392   9.689  21.528  0.00  0.00    +0.000 F 
ENDBRANCH  16  19
ENDBRANCH   1  13
BRANCH   1  23
ATOM     23  C   UNL     1       5.351   5.905  18.116  0.00  0.00    +0.000 A 
ATOM     24  C   UNL     1       5.862   5.366  19.299  0.00  0.00    +0.000 A 
ATOM     25  N   UNL     1       7.154   5.508  19.693  0.00  0.00    +0.000 NA
ATOM     26  C   UNL     1       7.931   6.232  18.862  0.00  0.00    +0.000 A 
ATOM     27  C   UNL     1       7.444   6.790  17.694  0.00  0.00    +0.000 A 
ATOM     28  N   UNL     1       6.159   6.641  17.301  0.00  0.00    +0.000 NA
ENDBRANCH   1  23
TORSDOF 5
ENDMDL
MODEL 8
REMARK VINA RESULT:      -8.5      2.178      4.183
REMARK  Name = 
REMARK  5 active torsions:
REMARK  status: ('A' for Active; 'I' for Inactive)
REMARK    1  A    between atoms: C_2  and  C_4
REMARK    2  A    between atoms: N_7  and  C_8
REMARK    3  A    between atoms: C_8  and  C_9
REMARK    4  A    between atoms: C_8  and  C_19
REMARK    5  A    between atoms: C_12  and  C_13
REMARK                            x       y       z     vdW  Elec       q    Type
REMARK                         _______ _______ _______ _____ _____    ______ ____
ROOT
ATOM      1  C   UNL     1       3.143   6.160  17.870  0.00  0.00    +0.000 C 
ENDROOT
BRANCH   1   5
ATOM      2  C   UNL     1       2.498   2.074  19.288  0.00  0.00    +0.000 C 
ATOM      3  C   UNL     1       2.119   2.453  17.858  0.00  0.00    +0.000 C 
ATOM      4  C   UNL     1       2.818   3.742  17.422  0.00  0.00    +0.000 C 
ATOM      5  N   UNL     1       2.516   4.866  18.316  0.00  0.00    +0.000 NA
ATOM      6  C   UNL     1       2.817   4.563  19.722  0.00  0.00    +0.000 C 
ATOM      7  C   UNL     1       2.193   3.253  20.214  0.00  0.00    +0.000 C 
BRANCH   2   9
ATOM      8  N   UNL     1       4.313   0.609  18.553  0.00  0.00    +0.000 N 
ATOM      9  C   UNL     1       3.955   1.618  19.395  0.00  0.00    +0.000 C 
ATOM     10  O   UNL     1       4.773   2.079  20.183  0.00  0.00    +0.000 OA
ATOM     11  H   UNL     1       5.249   0.239  18.654  0.00  0.00    +0.000 HD
ATOM     12  H   UNL     1       3.635   0.059  18.044  0.00  0.00    +0.000 HD
ENDBRANCH   2   9
ENDBRANCH   1   5
BRANCH   1  13
ATOM     13  C   UNL     1       2.484   7.404  18.503  0.00  0.00    +0.000 A 
ATOM     14  C   UNL     1       2.127   7.437  19.860  0.00  0.00    +0.000 A 
ATOM     15  C   UNL     1       1.424   8.521  20.391  0.00  0.00    +0.000 A 
ATOM     16  C   UNL     1       1.058   9.600  19.577  0.00  0.00    +0.000 A 
ATOM     17  C   UNL     1       1.441   9.590  18.229  0.00  0.00    +0.000 A 
ATOM     18  C   UNL     1       2.156   8.512  17.701  0.00  0.00    +0.000 A 
BRANCH  16  19
ATOM     19  C   UNL     1       0.249  10.749  20.124  0.00  0.00    +0.000 C 
ATOM     20  F   UNL     1       0.679  11.971  19.698  0.00  0.00    +0.000 F 
ATOM     21  F   UNL     1      -1.065  10.676  19.773  0.00  0.00    +0.000 F 
ATOM     22  F   UNL     1       0.268  10.805  21.485  0.00  0.00    +0.000 F 
ENDBRANCH  16  19
ENDBRANCH   1  13
BRANCH   1  23
ATOM     23  C   UNL     1       4.690   6.191  17.934  0.00  0.00    +0.000 A 
ATOM     24  C   UNL     1       5.413   6.798  16.903  0.00  0.00    +0.000 A 
ATOM     25  N   UNL     1       6.768   6.877  16.881  0.00  0.00    +0.000 NA
ATOM     26  C   UNL     1       7.393   6.306  17.931  0.00  0.00    +0.000 A 
ATOM     27  C   UNL     1       6.701   5.685  18.954  0.00  0.00    +0.000 A 
ATOM     28  N   UNL     1       5.351   5.613  18.978  0.00  0.00    +0.000 NA
ENDBRANCH   1  23
TORSDOF 5
ENDMDL
MODEL 9
REMARK VINA RESULT:      -8.5      2.424      4.679
REMARK  Name = 
REMARK  5 active torsions:
REMARK  status: ('A' for Active; 'I' for Inactive)
REMARK    1  A    between atoms: C_2  and  C_4
REMARK    2  A    between atoms: N_7  and  C_8
REMARK    3  A    between atoms: C_8  and  C_9
REMARK    4  A    between atoms: C_8  and  C_19
REMARK    5  A    between atoms: C_12  and  C_13
REMARK                            x       y       z     vdW  Elec       q    Type
REMARK                         _______ _______ _______ _____ _____    ______ ____
ROOT
ATOM      1  C   UNL     1       3.912   5.782  17.824  0.00  0.00    +0.000 C 
ENDROOT
BRANCH   1   5
ATOM      2  C   UNL     1       1.862   2.253  19.395  0.00  0.00    +0.000 C 
ATOM      3  C   UNL     1       3.385   2.266  19.291  0.00  0.00    +0.000 C 
ATOM      4  C   UNL     1       3.920   3.693  19.162  0.00  0.00    +0.000 C 
ATOM      5  N   UNL     1       3.351   4.396  18.008  0.00  0.00    +0.000 NA
ATOM      6  C   UNL     1       1.882   4.393  18.015  0.00  0.00    +0.000 C 
ATOM      7  C   UNL     1       1.273   2.998  18.196  0.00  0.00    +0.000 C 
BRANCH   2   9
ATOM      8  N   UNL     1       0.503   3.870  20.629  0.00  0.00    +0.000 N 
ATOM      9  C   UNL     1       1.372   2.826  20.728  0.00  0.00    +0.000 C 
ATOM     10  O   UNL     1       1.727   2.424  21.830  0.00  0.00    +0.000 OA
ATOM     11  H   UNL     1       0.222   4.314  21.494  0.00  0.00    +0.000 HD
ATOM     12  H   UNL     1       0.347   4.368  19.765  0.00  0.00    +0.000 HD
ENDBRANCH   2   9
ENDBRANCH   1   5
BRANCH   1  13
ATOM     13  C   UNL     1       3.039   6.881  18.465  0.00  0.00    +0.000 A 
ATOM     14  C   UNL     1       2.572   6.774  19.785  0.00  0.00    +0.000 A 
ATOM     15  C   UNL     1       1.685   7.716  20.311  0.00  0.00    +0.000 A 
ATOM     16  C   UNL     1       1.241   8.790  19.530  0.00  0.00    +0.000 A 
ATOM     17  C   UNL     1       1.729   8.922  18.223  0.00  0.00    +0.000 A 
ATOM     18  C   UNL     1       2.627   7.987  17.701  0.00  0.00    +0.000 A 
BRANCH  16  19
ATOM     19  C   UNL     1       0.239   9.781  20.067  0.00  0.00    +0.000 C 
ATOM     20  F   UNL     1      -0.740  10.104  19.175  0.00  0.00    +0.000 F 
ATOM     21  F   UNL     1      -0.406   9.322  21.175  0.00  0.00    +0.000 F 
ATOM     22  F   UNL     1       0.812  10.961  20.431  0.00  0.00    +0.000 F 
ENDBRANCH  16  19
ENDBRANCH   1  13
BRANCH   1  23
ATOM     23  C   UNL     1       5.417   5.925  18.163  0.00  0.00    +0.000 A 
ATOM     24  C   UNL     1       5.916   5.366  19.342  0.00  0.00    +0.000 A 
ATOM     25  N   UNL     1       7.220   5.436  19.714  0.00  0.00    +0.000 NA
ATOM     26  C   UNL     1       8.024   6.107  18.863  0.00  0.00    +0.000 A 
ATOM     27  C   UNL     1       7.550   6.684  17.699  0.00  0.00    +0.000 A 
ATOM     28  N   UNL     1       6.253   6.607  17.328  0.00  0.00    +0.000 NA
ENDBRANCH   1  23
TORSDOF 5
ENDMDL
