MODEL 1
REMARK VINA RESULT:      -7.3      0.000      0.000
REMARK  Name = 
REMARK  15 active torsions:
REMARK  status: ('A' for Active; 'I' for Inactive)
REMARK    1  A    between atoms: C_1  and  C_2
REMARK    2  A    between atoms: C_4  and  C_5
REMARK    3  A    between atoms: C_5  and  C_6
REMARK    4  A    between atoms: C_6  and  C_7
REMARK    5  A    between atoms: C_7  and  C_8
REMARK    6  A    between atoms: C_14  and  C_15
REMARK    7  A    between atoms: C_15  and  C_16
REMARK    8  A    between atoms: C_16  and  C_17
REMARK    9  A    between atoms: C_17  and  C_18
REMARK   10  A    between atoms: C_18  and  C_19
REMARK   11  A    between atoms: C_19  and  C_20
REMARK   12  A    between atoms: C_20  and  C_21
REMARK   13  A    between atoms: C_20  and  C_22
REMARK   14  A    between atoms: C_20  and  C_23
REMARK   15  A    between atoms: C_23  and  O_25
REMARK                            x       y       z     vdW  Elec       q    Type
REMARK                         _______ _______ _______ _____ _____    ______ ____
ROOT
ATOM      1  C   UNL     1       6.148   3.682  13.505  0.00  0.00    +0.000 C 
ATOM      2  C   UNL     1       6.059   4.614  14.663  0.00  0.00    +0.000 A 
ATOM      3  C   UNL     1       4.979   5.358  15.078  0.00  0.00    +0.000 A 
ATOM      4  C   UNL     1       5.252   6.168  16.234  0.00  0.00    +0.000 A 
ATOM      5  C   UNL     1       6.562   5.984  16.666  0.00  0.00    +0.000 A 
ATOM      6  S   UNL     1       7.411   4.873  15.665  0.00  0.00    +0.000 S 
ENDROOT
BRANCH   4   7
ATOM      7  C   UNL     1       4.209   7.068  16.844  0.00  0.00    +0.000 C 
BRANCH   7   8
ATOM      8  C   UNL     1       3.820   6.720  18.281  0.00  0.00    +0.000 C 
BRANCH   8   9
ATOM      9  C   UNL     1       2.546   5.880  18.361  0.00  0.00    +0.000 C 
BRANCH   9  10
ATOM     10  C   UNL     1       2.866   4.408  18.436  0.00  0.00    +0.000 A 
ATOM     11  C   UNL     1       3.662   3.910  19.476  0.00  0.00    +0.000 A 
ATOM     12  C   UNL     1       3.978   2.553  19.536  0.00  0.00    +0.000 A 
ATOM     13  C   UNL     1       3.503   1.684  18.555  0.00  0.00    +0.000 A 
ATOM     14  C   UNL     1       2.719   2.171  17.513  0.00  0.00    +0.000 A 
ATOM     15  C   UNL     1       2.403   3.528  17.451  0.00  0.00    +0.000 A 
ENDBRANCH   9  10
ENDBRANCH   8   9
ENDBRANCH   7   8
ENDBRANCH   4   7
BRANCH   5  16
ATOM     16  C   UNL     1       7.303   6.622  17.813  0.00  0.00    +0.000 C 
BRANCH  16  17
ATOM     17  C   UNL     1       7.766   8.059  17.537  0.00  0.00    +0.000 C 
BRANCH  17  18
ATOM     18  C   UNL     1       8.537   8.722  18.684  0.00  0.00    +0.000 C 
BRANCH  18  19
ATOM     19  C   UNL     1       8.957  10.146  18.328  0.00  0.00    +0.000 C 
BRANCH  19  20
ATOM     20  C   UNL     1       9.654  10.857  19.488  0.00  0.00    +0.000 C 
BRANCH  20  21
ATOM     21  C   UNL     1      10.695  11.920  19.044  0.00  0.00    +0.000 C 
ATOM     22  C   UNL     1      12.104  11.627  19.591  0.00  0.00    +0.000 C 
ATOM     23  C   UNL     1      10.782  11.969  17.504  0.00  0.00    +0.000 C 
BRANCH  21  24
ATOM     24  C   UNL     1      10.242  13.295  19.550  0.00  0.00    +0.000 C 
ATOM     25  O   UNL     1      10.941  14.298  19.545  0.00  0.00    +0.000 OA
BRANCH  24  26
ATOM     26  O   UNL     1       8.971  13.336  20.011  0.00  0.00    +0.000 OA
ATOM     27  H   UNL     1       8.787  12.743  20.763  0.00  0.00    +0.000 HD
ENDBRANCH  24  26
ENDBRANCH  21  24
ENDBRANCH  20  21
ENDBRANCH  19  20
ENDBRANCH  18  19
ENDBRANCH  17  18
ENDBRANCH  16  17
ENDBRANCH   5  16
TORSDOF 12
ENDMDL
MODEL 2
REMARK VINA RESULT:      -7.1      4.475      7.726
REMARK  Name = 
REMARK  15 active torsions:
REMARK  status: ('A' for Active; 'I' for Inactive)
REMARK    1  A    between atoms: C_1  and  C_2
REMARK    2  A    between atoms: C_4  and  C_5
REMARK    3  A    between atoms: C_5  and  C_6
REMARK    4  A    between atoms: C_6  and  C_7
REMARK    5  A    between atoms: C_7  and  C_8
REMARK    6  A    between atoms: C_14  and  C_15
REMARK    7  A    between atoms: C_15  and  C_16
REMARK    8  A    between atoms: C_16  and  C_17
REMARK    9  A    between atoms: C_17  and  C_18
REMARK   10  A    between atoms: C_18  and  C_19
REMARK   11  A    between atoms: C_19  and  C_20
REMARK   12  A    between atoms: C_20  and  C_21
REMARK   13  A    between atoms: C_20  and  C_22
REMARK   14  A    between atoms: C_20  and  C_23
REMARK   15  A    between atoms: C_23  and  O_25
REMARK                            x       y       z     vdW  Elec       q    Type
REMARK                         _______ _______ _______ _____ _____    ______ ____
ROOT
ATOM      1  C   UNL     1       1.521   2.617  21.573  0.00  0.00    +0.000 C 
ATOM      2  C   UNL     1       2.047   3.401  20.422  0.00  0.00    +0.000 A 
ATOM      3  C   UNL     1       2.404   2.949  19.173  0.00  0.00    +0.000 A 
ATOM      4  C   UNL     1       2.892   3.987  18.306  0.00  0.00    +0.000 A 
ATOM      5  C   UNL     1       2.866   5.220  18.951  0.00  0.00    +0.000 A 
ATOM      6  S   UNL     1       2.283   5.082  20.563  0.00  0.00    +0.000 S 
ENDROOT
BRANCH   4   7
ATOM      7  C   UNL     1       3.347   3.704  16.899  0.00  0.00    +0.000 C 
BRANCH   7   8
ATOM      8  C   UNL     1       4.861   3.582  16.723  0.00  0.00    +0.000 C 
BRANCH   8   9
ATOM      9  C   UNL     1       5.475   4.797  16.029  0.00  0.00    +0.000 C 
BRANCH   9  10
ATOM     10  C   UNL     1       6.385   5.556  16.961  0.00  0.00    +0.000 A 
ATOM     11  C   UNL     1       6.734   6.884  16.682  0.00  0.00    +0.000 A 
ATOM     12  C   UNL     1       7.593   7.582  17.529  0.00  0.00    +0.000 A 
ATOM     13  C   UNL     1       8.114   6.957  18.661  0.00  0.00    +0.000 A 
ATOM     14  C   UNL     1       7.780   5.635  18.942  0.00  0.00    +0.000 A 
ATOM     15  C   UNL     1       6.922   4.935  18.095  0.00  0.00    +0.000 A 
ENDBRANCH   9  10
ENDBRANCH   8   9
ENDBRANCH   7   8
ENDBRANCH   4   7
BRANCH   5  16
ATOM     16  C   UNL     1       3.291   6.580  18.458  0.00  0.00    +0.000 C 
BRANCH  16  17
ATOM     17  C   UNL     1       2.123   7.531  18.163  0.00  0.00    +0.000 C 
BRANCH  17  18
ATOM     18  C   UNL     1       2.253   8.926  18.786  0.00  0.00    +0.000 C 
BRANCH  18  19
ATOM     19  C   UNL     1       1.682  10.004  17.868  0.00  0.00    +0.000 C 
BRANCH  19  20
ATOM     20  C   UNL     1       1.066  11.167  18.645  0.00  0.00    +0.000 C 
BRANCH  20  21
ATOM     21  C   UNL     1      -0.464  11.038  18.870  0.00  0.00    +0.000 C 
ATOM     22  C   UNL     1      -1.108   9.988  17.945  0.00  0.00    +0.000 C 
ATOM     23  C   UNL     1      -0.756  10.631  20.329  0.00  0.00    +0.000 C 
BRANCH  21  24
ATOM     24  C   UNL     1      -1.118  12.400  18.605  0.00  0.00    +0.000 C 
ATOM     25  O   UNL     1      -1.564  13.133  19.476  0.00  0.00    +0.000 OA
BRANCH  24  26
ATOM     26  O   UNL     1      -1.166  12.759  17.302  0.00  0.00    +0.000 OA
ATOM     27  H   UNL     1      -1.808  13.462  17.092  0.00  0.00    +0.000 HD
ENDBRANCH  24  26
ENDBRANCH  21  24
ENDBRANCH  20  21
ENDBRANCH  19  20
ENDBRANCH  18  19
ENDBRANCH  17  18
ENDBRANCH  16  17
ENDBRANCH   5  16
TORSDOF 12
ENDMDL
MODEL 3
REMARK VINA RESULT:      -7.1      1.339      1.684
REMARK  Name = 
REMARK  15 active torsions:
REMARK  status: ('A' for Active; 'I' for Inactive)
REMARK    1  A    between atoms: C_1  and  C_2
REMARK    2  A    between atoms: C_4  and  C_5
REMARK    3  A    between atoms: C_5  and  C_6
REMARK    4  A    between atoms: C_6  and  C_7
REMARK    5  A    between atoms: C_7  and  C_8
REMARK    6  A    between atoms: C_14  and  C_15
REMARK    7  A    between atoms: C_15  and  C_16
REMARK    8  A    between atoms: C_16  and  C_17
REMARK    9  A    between atoms: C_17  and  C_18
REMARK   10  A    between atoms: C_18  and  C_19
REMARK   11  A    between atoms: C_19  and  C_20
REMARK   12  A    between atoms: C_20  and  C_21
REMARK   13  A    between atoms: C_20  and  C_22
REMARK   14  A    between atoms: C_20  and  C_23
REMARK   15  A    between atoms: C_23  and  O_25
REMARK                            x       y       z     vdW  Elec       q    Type
REMARK                         _______ _______ _______ _____ _____    ______ ____
ROOT
ATOM      1  C   UNL     1       6.127   3.898  13.720  0.00  0.00    +0.000 C 
ATOM      2  C   UNL     1       6.085   4.840  14.872  0.00  0.00    +0.000 A 
ATOM      3  C   UNL     1       5.023   5.585  15.328  0.00  0.00    +0.000 A 
ATOM      4  C   UNL     1       5.344   6.406  16.463  0.00  0.00    +0.000 A 
ATOM      5  C   UNL     1       6.672   6.228  16.840  0.00  0.00    +0.000 A 
ATOM      6  S   UNL     1       7.479   5.110  15.812  0.00  0.00    +0.000 S 
ENDROOT
BRANCH   4   7
ATOM      7  C   UNL     1       4.326   7.308  17.111  0.00  0.00    +0.000 C 
BRANCH   7   8
ATOM      8  C   UNL     1       3.300   6.594  17.990  0.00  0.00    +0.000 C 
BRANCH   8   9
ATOM      9  C   UNL     1       3.937   5.879  19.180  0.00  0.00    +0.000 C 
BRANCH   9  10
ATOM     10  C   UNL     1       3.075   4.736  19.656  0.00  0.00    +0.000 A 
ATOM     11  C   UNL     1       1.825   4.987  20.236  0.00  0.00    +0.000 A 
ATOM     12  C   UNL     1       1.035   3.935  20.697  0.00  0.00    +0.000 A 
ATOM     13  C   UNL     1       1.491   2.622  20.585  0.00  0.00    +0.000 A 
ATOM     14  C   UNL     1       2.736   2.363  20.018  0.00  0.00    +0.000 A 
ATOM     15  C   UNL     1       3.527   3.414  19.557  0.00  0.00    +0.000 A 
ENDBRANCH   9  10
ENDBRANCH   8   9
ENDBRANCH   7   8
ENDBRANCH   4   7
BRANCH   5  16
ATOM     16  C   UNL     1       7.460   6.878  17.949  0.00  0.00    +0.000 C 
BRANCH  16  17
ATOM     17  C   UNL     1       7.774   8.361  17.706  0.00  0.00    +0.000 C 
BRANCH  17  18
ATOM     18  C   UNL     1       8.822   8.961  18.651  0.00  0.00    +0.000 C 
BRANCH  18  19
ATOM     19  C   UNL     1       8.821  10.487  18.591  0.00  0.00    +0.000 C 
BRANCH  19  20
ATOM     20  C   UNL     1      10.116  11.051  18.008  0.00  0.00    +0.000 C 
BRANCH  20  21
ATOM     21  C   UNL     1      10.272  12.585  18.181  0.00  0.00    +0.000 C 
ATOM     22  C   UNL     1      10.983  12.960  19.495  0.00  0.00    +0.000 C 
ATOM     23  C   UNL     1      11.091  13.172  17.012  0.00  0.00    +0.000 C 
BRANCH  21  24
ATOM     24  C   UNL     1       8.879  13.227  18.169  0.00  0.00    +0.000 C 
ATOM     25  O   UNL     1       8.315  13.672  19.158  0.00  0.00    +0.000 OA
BRANCH  24  26
ATOM     26  O   UNL     1       8.293  13.280  16.951  0.00  0.00    +0.000 OA
ATOM     27  H   UNL     1       8.720  12.737  16.264  0.00  0.00    +0.000 HD
ENDBRANCH  24  26
ENDBRANCH  21  24
ENDBRANCH  20  21
ENDBRANCH  19  20
ENDBRANCH  18  19
ENDBRANCH  17  18
ENDBRANCH  16  17
ENDBRANCH   5  16
TORSDOF 12
ENDMDL
MODEL 4
REMARK VINA RESULT:      -7.0      1.494      1.998
REMARK  Name = 
REMARK  15 active torsions:
REMARK  status: ('A' for Active; 'I' for Inactive)
REMARK    1  A    between atoms: C_1  and  C_2
REMARK    2  A    between atoms: C_4  and  C_5
REMARK    3  A    between atoms: C_5  and  C_6
REMARK    4  A    between atoms: C_6  and  C_7
REMARK    5  A    between atoms: C_7  and  C_8
REMARK    6  A    between atoms: C_14  and  C_15
REMARK    7  A    between atoms: C_15  and  C_16
REMARK    8  A    between atoms: C_16  and  C_17
REMARK    9  A    between atoms: C_17  and  C_18
REMARK   10  A    between atoms: C_18  and  C_19
REMARK   11  A    between atoms: C_19  and  C_20
REMARK   12  A    between atoms: C_20  and  C_21
REMARK   13  A    between atoms: C_20  and  C_22
REMARK   14  A    between atoms: C_20  and  C_23
REMARK   15  A    between atoms: C_23  and  O_25
REMARK                            x       y       z     vdW  Elec       q    Type
REMARK                         _______ _______ _______ _____ _____    ______ ____
ROOT
ATOM      1  C   UNL     1       5.324   4.364  14.190  0.00  0.00    +0.000 C 
ATOM      2  C   UNL     1       5.610   5.036  15.487  0.00  0.00    +0.000 A 
ATOM      3  C   UNL     1       4.754   5.259  16.540  0.00  0.00    +0.000 A 
ATOM      4  C   UNL     1       5.366   5.956  17.639  0.00  0.00    +0.000 A 
ATOM      5  C   UNL     1       6.705   6.223  17.368  0.00  0.00    +0.000 A 
ATOM      6  S   UNL     1       7.165   5.651  15.812  0.00  0.00    +0.000 S 
ENDROOT
BRANCH   4   7
ATOM      7  C   UNL     1       4.601   6.311  18.886  0.00  0.00    +0.000 C 
BRANCH   7   8
ATOM      8  C   UNL     1       3.168   6.789  18.649  0.00  0.00    +0.000 C 
BRANCH   8   9
ATOM      9  C   UNL     1       2.229   6.436  19.801  0.00  0.00    +0.000 C 
BRANCH   9  10
ATOM     10  C   UNL     1       1.816   4.987  19.744  0.00  0.00    +0.000 A 
ATOM     11  C   UNL     1       1.607   4.359  18.510  0.00  0.00    +0.000 A 
ATOM     12  C   UNL     1       1.204   3.026  18.454  0.00  0.00    +0.000 A 
ATOM     13  C   UNL     1       1.003   2.310  19.633  0.00  0.00    +0.000 A 
ATOM     14  C   UNL     1       1.199   2.927  20.865  0.00  0.00    +0.000 A 
ATOM     15  C   UNL     1       1.602   4.261  20.923  0.00  0.00    +0.000 A 
ENDBRANCH   9  10
ENDBRANCH   8   9
ENDBRANCH   7   8
ENDBRANCH   4   7
BRANCH   5  16
ATOM     16  C   UNL     1       7.738   6.938  18.200  0.00  0.00    +0.000 C 
BRANCH  16  17
ATOM     17  C   UNL     1       8.096   8.339  17.685  0.00  0.00    +0.000 C 
BRANCH  17  18
ATOM     18  C   UNL     1       8.752   9.260  18.720  0.00  0.00    +0.000 C 
BRANCH  18  19
ATOM     19  C   UNL     1       8.782  10.709  18.241  0.00  0.00    +0.000 C 
BRANCH  19  20
ATOM     20  C   UNL     1      10.194  11.183  17.896  0.00  0.00    +0.000 C 
BRANCH  20  21
ATOM     21  C   UNL     1      10.413  12.708  18.082  0.00  0.00    +0.000 C 
ATOM     22  C   UNL     1      11.147  13.347  16.888  0.00  0.00    +0.000 C 
ATOM     23  C   UNL     1       9.056  13.425  18.246  0.00  0.00    +0.000 C 
BRANCH  21  24
ATOM     24  C   UNL     1      11.240  12.936  19.353  0.00  0.00    +0.000 C 
ATOM     25  O   UNL     1      11.353  14.014  19.920  0.00  0.00    +0.000 OA
BRANCH  24  26
ATOM     26  O   UNL     1      11.854  11.831  19.832  0.00  0.00    +0.000 OA
ATOM     27  H   UNL     1      11.645  11.611  20.758  0.00  0.00    +0.000 HD
ENDBRANCH  24  26
ENDBRANCH  21  24
ENDBRANCH  20  21
ENDBRANCH  19  20
ENDBRANCH  18  19
ENDBRANCH  17  18
ENDBRANCH  16  17
ENDBRANCH   5  16
TORSDOF 12
ENDMDL
MODEL 5
REMARK VINA RESULT:      -6.9      4.592      7.735
REMARK  Name = 
REMARK  15 active torsions:
REMARK  status: ('A' for Active; 'I' for Inactive)
REMARK    1  A    between atoms: C_1  and  C_2
REMARK    2  A    between atoms: C_4  and  C_5
REMARK    3  A    between atoms: C_5  and  C_6
REMARK    4  A    between atoms: C_6  and  C_7
REMARK    5  A    between atoms: C_7  and  C_8
REMARK    6  A    between atoms: C_14  and  C_15
REMARK    7  A    between atoms: C_15  and  C_16
REMARK    8  A    between atoms: C_16  and  C_17
REMARK    9  A    between atoms: C_17  and  C_18
REMARK   10  A    between atoms: C_18  and  C_19
REMARK   11  A    between atoms: C_19  and  C_20
REMARK   12  A    between atoms: C_20  and  C_21
REMARK   13  A    between atoms: C_20  and  C_22
REMARK   14  A    between atoms: C_20  and  C_23
REMARK   15  A    between atoms: C_23  and  O_25
REMARK                            x       y       z     vdW  Elec       q    Type
REMARK                         _______ _______ _______ _____ _____    ______ ____
ROOT
ATOM      1  C   UNL     1       1.392   2.475  21.908  0.00  0.00    +0.000 C 
ATOM      2  C   UNL     1       2.108   3.139  20.784  0.00  0.00    +0.000 A 
ATOM      3  C   UNL     1       2.764   2.554  19.726  0.00  0.00    +0.000 A 
ATOM      4  C   UNL     1       3.363   3.503  18.828  0.00  0.00    +0.000 A 
ATOM      5  C   UNL     1       3.112   4.806  19.249  0.00  0.00    +0.000 A 
ATOM      6  S   UNL     1       2.195   4.837  20.704  0.00  0.00    +0.000 S 
ENDROOT
BRANCH   4   7
ATOM      7  C   UNL     1       4.138   3.073  17.610  0.00  0.00    +0.000 C 
BRANCH   7   8
ATOM      8  C   UNL     1       4.322   4.157  16.548  0.00  0.00    +0.000 C 
BRANCH   8   9
ATOM      9  C   UNL     1       5.765   4.266  16.059  0.00  0.00    +0.000 C 
BRANCH   9  10
ATOM     10  C   UNL     1       6.565   5.207  16.925  0.00  0.00    +0.000 A 
ATOM     11  C   UNL     1       7.242   4.727  18.053  0.00  0.00    +0.000 A 
ATOM     12  C   UNL     1       7.964   5.598  18.868  0.00  0.00    +0.000 A 
ATOM     13  C   UNL     1       8.013   6.957  18.563  0.00  0.00    +0.000 A 
ATOM     14  C   UNL     1       7.336   7.445  17.448  0.00  0.00    +0.000 A 
ATOM     15  C   UNL     1       6.612   6.576  16.633  0.00  0.00    +0.000 A 
ENDBRANCH   9  10
ENDBRANCH   8   9
ENDBRANCH   7   8
ENDBRANCH   4   7
BRANCH   5  16
ATOM     16  C   UNL     1       3.544   6.119  18.648  0.00  0.00    +0.000 C 
BRANCH  16  17
ATOM     17  C   UNL     1       2.383   7.001  18.171  0.00  0.00    +0.000 C 
BRANCH  17  18
ATOM     18  C   UNL     1       2.802   8.320  17.512  0.00  0.00    +0.000 C 
BRANCH  18  19
ATOM     19  C   UNL     1       2.096   9.514  18.148  0.00  0.00    +0.000 C 
BRANCH  19  20
ATOM     20  C   UNL     1       0.574   9.403  18.071  0.00  0.00    +0.000 C 
BRANCH  20  21
ATOM     21  C   UNL     1      -0.180  10.634  18.643  0.00  0.00    +0.000 C 
ATOM     22  C   UNL     1      -0.768  10.367  20.041  0.00  0.00    +0.000 C 
ATOM     23  C   UNL     1       0.775  11.841  18.750  0.00  0.00    +0.000 C 
BRANCH  21  24
ATOM     24  C   UNL     1      -1.321  11.000  17.686  0.00  0.00    +0.000 C 
ATOM     25  O   UNL     1      -2.040  10.186  17.122  0.00  0.00    +0.000 OA
BRANCH  24  26
ATOM     26  O   UNL     1      -1.498  12.328  17.501  0.00  0.00    +0.000 OA
ATOM     27  H   UNL     1      -2.423  12.632  17.548  0.00  0.00    +0.000 HD
ENDBRANCH  24  26
ENDBRANCH  21  24
ENDBRANCH  20  21
ENDBRANCH  19  20
ENDBRANCH  18  19
ENDBRANCH  17  18
ENDBRANCH  16  17
ENDBRANCH   5  16
TORSDOF 12
ENDMDL
MODEL 6
REMARK VINA RESULT:      -6.9      1.345      1.643
REMARK  Name = 
REMARK  15 active torsions:
REMARK  status: ('A' for Active; 'I' for Inactive)
REMARK    1  A    between atoms: C_1  and  C_2
REMARK    2  A    between atoms: C_4  and  C_5
REMARK    3  A    between atoms: C_5  and  C_6
REMARK    4  A    between atoms: C_6  and  C_7
REMARK    5  A    between atoms: C_7  and  C_8
REMARK    6  A    between atoms: C_14  and  C_15
REMARK    7  A    between atoms: C_15  and  C_16
REMARK    8  A    between atoms: C_16  and  C_17
REMARK    9  A    between atoms: C_17  and  C_18
REMARK   10  A    between atoms: C_18  and  C_19
REMARK   11  A    between atoms: C_19  and  C_20
REMARK   12  A    between atoms: C_20  and  C_21
REMARK   13  A    between atoms: C_20  and  C_22
REMARK   14  A    between atoms: C_20  and  C_23
REMARK   15  A    between atoms: C_23  and  O_25
REMARK                            x       y       z     vdW  Elec       q    Type
REMARK                         _______ _______ _______ _____ _____    ______ ____
ROOT
ATOM      1  C   UNL     1       6.074   3.810  13.772  0.00  0.00    +0.000 C 
ATOM      2  C   UNL     1       6.068   4.796  14.889  0.00  0.00    +0.000 A 
ATOM      3  C   UNL     1       5.024   5.572  15.336  0.00  0.00    +0.000 A 
ATOM      4  C   UNL     1       5.379   6.431  16.433  0.00  0.00    +0.000 A 
ATOM      5  C   UNL     1       6.712   6.249  16.790  0.00  0.00    +0.000 A 
ATOM      6  S   UNL     1       7.484   5.082  15.790  0.00  0.00    +0.000 S 
ENDROOT
BRANCH   4   7
ATOM      7  C   UNL     1       4.387   7.371  17.066  0.00  0.00    +0.000 C 
BRANCH   7   8
ATOM      8  C   UNL     1       3.411   6.715  18.043  0.00  0.00    +0.000 C 
BRANCH   8   9
ATOM      9  C   UNL     1       3.935   5.394  18.604  0.00  0.00    +0.000 C 
BRANCH   9  10
ATOM     10  C   UNL     1       2.809   4.424  18.860  0.00  0.00    +0.000 A 
ATOM     11  C   UNL     1       1.895   4.658  19.896  0.00  0.00    +0.000 A 
ATOM     12  C   UNL     1       0.866   3.752  20.149  0.00  0.00    +0.000 A 
ATOM     13  C   UNL     1       0.744   2.603  19.371  0.00  0.00    +0.000 A 
ATOM     14  C   UNL     1       1.652   2.357  18.344  0.00  0.00    +0.000 A 
ATOM     15  C   UNL     1       2.682   3.262  18.090  0.00  0.00    +0.000 A 
ENDBRANCH   9  10
ENDBRANCH   8   9
ENDBRANCH   7   8
ENDBRANCH   4   7
BRANCH   5  16
ATOM     16  C   UNL     1       7.531   6.930  17.857  0.00  0.00    +0.000 C 
BRANCH  16  17
ATOM     17  C   UNL     1       7.783   8.421  17.596  0.00  0.00    +0.000 C 
BRANCH  17  18
ATOM     18  C   UNL     1       8.627   9.129  18.662  0.00  0.00    +0.000 C 
BRANCH  18  19
ATOM     19  C   UNL     1       9.363  10.335  18.084  0.00  0.00    +0.000 C 
BRANCH  19  20
ATOM     20  C   UNL     1       9.373  11.528  19.039  0.00  0.00    +0.000 C 
BRANCH  20  21
ATOM     21  C   UNL     1       9.050  12.886  18.359  0.00  0.00    +0.000 C 
ATOM     22  C   UNL     1      10.288  13.522  17.700  0.00  0.00    +0.000 C 
ATOM     23  C   UNL     1       7.975  12.694  17.269  0.00  0.00    +0.000 C 
BRANCH  21  24
ATOM     24  C   UNL     1       8.501  13.849  19.419  0.00  0.00    +0.000 C 
ATOM     25  O   UNL     1       7.582  14.634  19.230  0.00  0.00    +0.000 OA
BRANCH  24  26
ATOM     26  O   UNL     1       9.113  13.772  20.622  0.00  0.00    +0.000 OA
ATOM     27  H   UNL     1       8.529  13.542  21.368  0.00  0.00    +0.000 HD
ENDBRANCH  24  26
ENDBRANCH  21  24
ENDBRANCH  20  21
ENDBRANCH  19  20
ENDBRANCH  18  19
ENDBRANCH  17  18
ENDBRANCH  16  17
ENDBRANCH   5  16
TORSDOF 12
ENDMDL
MODEL 7
REMARK VINA RESULT:      -6.9      4.488      7.633
REMARK  Name = 
REMARK  15 active torsions:
REMARK  status: ('A' for Active; 'I' for Inactive)
REMARK    1  A    between atoms: C_1  and  C_2
REMARK    2  A    between atoms: C_4  and  C_5
REMARK    3  A    between atoms: C_5  and  C_6
REMARK    4  A    between atoms: C_6  and  C_7
REMARK    5  A    between atoms: C_7  and  C_8
REMARK    6  A    between atoms: C_14  and  C_15
REMARK    7  A    between atoms: C_15  and  C_16
REMARK    8  A    between atoms: C_16  and  C_17
REMARK    9  A    between atoms: C_17  and  C_18
REMARK   10  A    between atoms: C_18  and  C_19
REMARK   11  A    between atoms: C_19  and  C_20
REMARK   12  A    between atoms: C_20  and  C_21
REMARK   13  A    between atoms: C_20  and  C_22
REMARK   14  A    between atoms: C_20  and  C_23
REMARK   15  A    between atoms: C_23  and  O_25
REMARK                            x       y       z     vdW  Elec       q    Type
REMARK                         _______ _______ _______ _____ _____    ______ ____
ROOT
ATOM      1  C   UNL     1       2.423   2.838  21.577  0.00  0.00    +0.000 C 
ATOM      2  C   UNL     1       2.659   3.609  20.325  0.00  0.00    +0.000 A 
ATOM      3  C   UNL     1       3.087   3.144  19.104  0.00  0.00    +0.000 A 
ATOM      4  C   UNL     1       3.222   4.176  18.113  0.00  0.00    +0.000 A 
ATOM      5  C   UNL     1       2.863   5.414  18.639  0.00  0.00    +0.000 A 
ATOM      6  S   UNL     1       2.403   5.292  20.291  0.00  0.00    +0.000 S 
ENDROOT
BRANCH   4   7
ATOM      7  C   UNL     1       3.690   3.883  16.711  0.00  0.00    +0.000 C 
BRANCH   7   8
ATOM      8  C   UNL     1       5.140   3.411  16.602  0.00  0.00    +0.000 C 
BRANCH   8   9
ATOM      9  C   UNL     1       6.037   4.419  15.886  0.00  0.00    +0.000 C 
BRANCH   9  10
ATOM     10  C   UNL     1       6.735   5.324  16.870  0.00  0.00    +0.000 A 
ATOM     11  C   UNL     1       6.849   6.696  16.611  0.00  0.00    +0.000 A 
ATOM     12  C   UNL     1       7.513   7.532  17.508  0.00  0.00    +0.000 A 
ATOM     13  C   UNL     1       8.072   7.002  18.670  0.00  0.00    +0.000 A 
ATOM     14  C   UNL     1       7.971   5.638  18.932  0.00  0.00    +0.000 A 
ATOM     15  C   UNL     1       7.308   4.800  18.035  0.00  0.00    +0.000 A 
ENDBRANCH   9  10
ENDBRANCH   8   9
ENDBRANCH   7   8
ENDBRANCH   4   7
BRANCH   5  16
ATOM     16  C   UNL     1       2.858   6.776  17.994  0.00  0.00    +0.000 C 
BRANCH  16  17
ATOM     17  C   UNL     1       2.273   7.885  18.879  0.00  0.00    +0.000 C 
BRANCH  17  18
ATOM     18  C   UNL     1       1.916   9.180  18.140  0.00  0.00    +0.000 C 
BRANCH  18  19
ATOM     19  C   UNL     1       0.577   9.742  18.610  0.00  0.00    +0.000 C 
BRANCH  19  20
ATOM     20  C   UNL     1       0.391   9.626  20.123  0.00  0.00    +0.000 C 
BRANCH  20  21
ATOM     21  C   UNL     1      -0.024  10.952  20.813  0.00  0.00    +0.000 C 
ATOM     22  C   UNL     1       1.097  12.008  20.782  0.00  0.00    +0.000 C 
ATOM     23  C   UNL     1      -1.262  11.552  20.114  0.00  0.00    +0.000 C 
BRANCH  21  24
ATOM     24  C   UNL     1      -0.386  10.656  22.273  0.00  0.00    +0.000 C 
ATOM     25  O   UNL     1      -0.648  11.510  23.108  0.00  0.00    +0.000 OA
BRANCH  24  26
ATOM     26  O   UNL     1      -0.407   9.342  22.594  0.00  0.00    +0.000 OA
ATOM     27  H   UNL     1      -0.920   8.778  21.987  0.00  0.00    +0.000 HD
ENDBRANCH  24  26
ENDBRANCH  21  24
ENDBRANCH  20  21
ENDBRANCH  19  20
ENDBRANCH  18  19
ENDBRANCH  17  18
ENDBRANCH  16  17
ENDBRANCH   5  16
TORSDOF 12
ENDMDL
MODEL 8
REMARK VINA RESULT:      -6.9      1.499      2.069
REMARK  Name = 
REMARK  15 active torsions:
REMARK  status: ('A' for Active; 'I' for Inactive)
REMARK    1  A    between atoms: C_1  and  C_2
REMARK    2  A    between atoms: C_4  and  C_5
REMARK    3  A    between atoms: C_5  and  C_6
REMARK    4  A    between atoms: C_6  and  C_7
REMARK    5  A    between atoms: C_7  and  C_8
REMARK    6  A    between atoms: C_14  and  C_15
REMARK    7  A    between atoms: C_15  and  C_16
REMARK    8  A    between atoms: C_16  and  C_17
REMARK    9  A    between atoms: C_17  and  C_18
REMARK   10  A    between atoms: C_18  and  C_19
REMARK   11  A    between atoms: C_19  and  C_20
REMARK   12  A    between atoms: C_20  and  C_21
REMARK   13  A    between atoms: C_20  and  C_22
REMARK   14  A    between atoms: C_20  and  C_23
REMARK   15  A    between atoms: C_23  and  O_25
REMARK                            x       y       z     vdW  Elec       q    Type
REMARK                         _______ _______ _______ _____ _____    ______ ____
ROOT
ATOM      1  C   UNL     1       6.353   4.065  13.679  0.00  0.00    +0.000 C 
ATOM      2  C   UNL     1       6.133   4.829  14.938  0.00  0.00    +0.000 A 
ATOM      3  C   UNL     1       5.040   5.582  15.299  0.00  0.00    +0.000 A 
ATOM      4  C   UNL     1       5.173   6.201  16.590  0.00  0.00    +0.000 A 
ATOM      5  C   UNL     1       6.390   5.864  17.175  0.00  0.00    +0.000 A 
ATOM      6  S   UNL     1       7.326   4.847  16.153  0.00  0.00    +0.000 S 
ENDROOT
BRANCH   4   7
ATOM      7  C   UNL     1       4.094   7.078  17.170  0.00  0.00    +0.000 C 
BRANCH   7   8
ATOM      8  C   UNL     1       2.864   6.330  17.686  0.00  0.00    +0.000 C 
BRANCH   8   9
ATOM      9  C   UNL     1       2.775   6.320  19.211  0.00  0.00    +0.000 C 
BRANCH   9  10
ATOM     10  C   UNL     1       2.306   4.980  19.721  0.00  0.00    +0.000 A 
ATOM     11  C   UNL     1       1.611   4.106  18.877  0.00  0.00    +0.000 A 
ATOM     12  C   UNL     1       1.157   2.876  19.352  0.00  0.00    +0.000 A 
ATOM     13  C   UNL     1       1.391   2.512  20.677  0.00  0.00    +0.000 A 
ATOM     14  C   UNL     1       2.074   3.378  21.526  0.00  0.00    +0.000 A 
ATOM     15  C   UNL     1       2.528   4.609  21.054  0.00  0.00    +0.000 A 
ENDBRANCH   9  10
ENDBRANCH   8   9
ENDBRANCH   7   8
ENDBRANCH   4   7
BRANCH   5  16
ATOM     16  C   UNL     1       6.976   6.280  18.500  0.00  0.00    +0.000 C 
BRANCH  16  17
ATOM     17  C   UNL     1       8.162   7.247  18.384  0.00  0.00    +0.000 C 
BRANCH  17  18
ATOM     18  C   UNL     1       7.785   8.691  18.031  0.00  0.00    +0.000 C 
BRANCH  18  19
ATOM     19  C   UNL     1       8.910   9.664  18.376  0.00  0.00    +0.000 C 
BRANCH  19  20
ATOM     20  C   UNL     1       8.628  11.083  17.884  0.00  0.00    +0.000 C 
BRANCH  20  21
ATOM     21  C   UNL     1       9.638  12.143  18.399  0.00  0.00    +0.000 C 
ATOM     22  C   UNL     1      10.630  12.589  17.308  0.00  0.00    +0.000 C 
ATOM     23  C   UNL     1       8.887  13.394  18.900  0.00  0.00    +0.000 C 
BRANCH  21  24
ATOM     24  C   UNL     1      10.425  11.546  19.572  0.00  0.00    +0.000 C 
ATOM     25  O   UNL     1       9.994  11.441  20.712  0.00  0.00    +0.000 OA
BRANCH  24  26
ATOM     26  O   UNL     1      11.669  11.118  19.258  0.00  0.00    +0.000 OA
ATOM     27  H   UNL     1      12.089  10.545  19.925  0.00  0.00    +0.000 HD
ENDBRANCH  24  26
ENDBRANCH  21  24
ENDBRANCH  20  21
ENDBRANCH  19  20
ENDBRANCH  18  19
ENDBRANCH  17  18
ENDBRANCH  16  17
ENDBRANCH   5  16
TORSDOF 12
ENDMDL
MODEL 9
REMARK VINA RESULT:      -6.8      1.621      2.498
REMARK  Name = 
REMARK  15 active torsions:
REMARK  status: ('A' for Active; 'I' for Inactive)
REMARK    1  A    between atoms: C_1  and  C_2
REMARK    2  A    between atoms: C_4  and  C_5
REMARK    3  A    between atoms: C_5  and  C_6
REMARK    4  A    between atoms: C_6  and  C_7
REMARK    5  A    between atoms: C_7  and  C_8
REMARK    6  A    between atoms: C_14  and  C_15
REMARK    7  A    between atoms: C_15  and  C_16
REMARK    8  A    between atoms: C_16  and  C_17
REMARK    9  A    between atoms: C_17  and  C_18
REMARK   10  A    between atoms: C_18  and  C_19
REMARK   11  A    between atoms: C_19  and  C_20
REMARK   12  A    between atoms: C_20  and  C_21
REMARK   13  A    between atoms: C_20  and  C_22
REMARK   14  A    between atoms: C_20  and  C_23
REMARK   15  A    between atoms: C_23  and  O_25
REMARK                            x       y       z     vdW  Elec       q    Type
REMARK                         _______ _______ _______ _____ _____    ______ ____
ROOT
ATOM      1  C   UNL     1       6.288   3.889  13.418  0.00  0.00    +0.000 C 
ATOM      2  C   UNL     1       6.223   4.371  14.825  0.00  0.00    +0.000 A 
ATOM      3  C   UNL     1       5.303   4.050  15.796  0.00  0.00    +0.000 A 
ATOM      4  C   UNL     1       5.535   4.718  17.048  0.00  0.00    +0.000 A 
ATOM      5  C   UNL     1       6.665   5.527  16.973  0.00  0.00    +0.000 A 
ATOM      6  S   UNL     1       7.384   5.471  15.411  0.00  0.00    +0.000 S 
ENDROOT
BRANCH   4   7
ATOM      7  C   UNL     1       4.637   4.515  18.240  0.00  0.00    +0.000 C 
BRANCH   7   8
ATOM      8  C   UNL     1       5.254   3.705  19.381  0.00  0.00    +0.000 C 
BRANCH   8   9
ATOM      9  C   UNL     1       4.530   2.382  19.625  0.00  0.00    +0.000 C 
BRANCH   9  10
ATOM     10  C   UNL     1       3.040   2.587  19.733  0.00  0.00    +0.000 A 
ATOM     11  C   UNL     1       2.181   2.061  18.759  0.00  0.00    +0.000 A 
ATOM     12  C   UNL     1       0.805   2.267  18.844  0.00  0.00    +0.000 A 
ATOM     13  C   UNL     1       0.276   3.005  19.901  0.00  0.00    +0.000 A 
ATOM     14  C   UNL     1       1.121   3.540  20.869  0.00  0.00    +0.000 A 
ATOM     15  C   UNL     1       2.498   3.335  20.786  0.00  0.00    +0.000 A 
ENDBRANCH   9  10
ENDBRANCH   8   9
ENDBRANCH   7   8
ENDBRANCH   4   7
BRANCH   5  16
ATOM     16  C   UNL     1       7.286   6.423  18.014  0.00  0.00    +0.000 C 
BRANCH  16  17
ATOM     17  C   UNL     1       7.737   7.788  17.476  0.00  0.00    +0.000 C 
BRANCH  17  18
ATOM     18  C   UNL     1       8.480   8.667  18.488  0.00  0.00    +0.000 C 
BRANCH  18  19
ATOM     19  C   UNL     1       8.529  10.124  18.035  0.00  0.00    +0.000 C 
BRANCH  19  20
ATOM     20  C   UNL     1       9.957  10.623  17.818  0.00  0.00    +0.000 C 
BRANCH  20  21
ATOM     21  C   UNL     1      10.230  12.034  18.403  0.00  0.00    +0.000 C 
ATOM     22  C   UNL     1       8.934  12.823  18.667  0.00  0.00    +0.000 C 
ATOM     23  C   UNL     1      10.997  11.918  19.737  0.00  0.00    +0.000 C 
BRANCH  21  24
ATOM     24  C   UNL     1      11.096  12.820  17.411  0.00  0.00    +0.000 C 
ATOM     25  O   UNL     1      10.742  13.845  16.846  0.00  0.00    +0.000 OA
BRANCH  24  26
ATOM     26  O   UNL     1      12.324  12.296  17.195  0.00  0.00    +0.000 OA
ATOM     27  H   UNL     1      12.391  11.333  17.334  0.00  0.00    +0.000 HD
ENDBRANCH  24  26
ENDBRANCH  21  24
ENDBRANCH  20  21
ENDBRANCH  19  20
ENDBRANCH  18  19
ENDBRANCH  17  18
ENDBRANCH  16  17
ENDBRANCH   5  16
TORSDOF 12
ENDMDL
