MODEL 1
REMARK VINA RESULT:      -7.9      0.000      0.000
REMARK  Name = 
REMARK  9 active torsions:
REMARK  status: ('A' for Active; 'I' for Inactive)
REMARK    1  A    between atoms: C_1  and  O_2
REMARK    2  A    between atoms: O_2  and  C_3
REMARK    3  A    between atoms: C_5  and  C_6
REMARK    4  A    between atoms: N_11  and  C_12
REMARK    5  A    between atoms: C_15  and  C_16
REMARK    6  A    between atoms: C_22  and  O_23
REMARK    7  A    between atoms: O_23  and  C_24
REMARK    8  A    between atoms: C_25  and  O_26
REMARK    9  A    between atoms: O_26  and  C_27
REMARK                            x       y       z     vdW  Elec       q    Type
REMARK                         _______ _______ _______ _____ _____    ______ ____
ROOT
ATOM      1  C   UNL     1       2.784   6.438  19.574  0.00  0.00    +0.000 C 
ATOM      2  O   UNL     1       2.794   5.846  20.652  0.00  0.00    +0.000 OA
ATOM      3  N   UNL     1       2.085   7.632  19.370  0.00  0.00    +0.000 N 
ATOM      4  C   UNL     1       1.240   8.097  20.477  0.00  0.00    +0.000 C 
ATOM      5  C   UNL     1       1.011   9.624  20.469  0.00  0.00    +0.000 C 
ATOM      6  N   UNL     1       0.674  10.232  19.166  0.00  0.00    +0.000 NA
ATOM      7  C   UNL     1       1.622   9.739  18.157  0.00  0.00    +0.000 C 
ATOM      8  C   UNL     1       1.729   8.216  18.065  0.00  0.00    +0.000 C 
ENDROOT
BRANCH   6   9
ATOM      9  C   UNL     1      -0.760  10.227  18.804  0.00  0.00    +0.000 C 
ATOM     10  C   UNL     1      -1.122   9.742  17.387  0.00  0.00    +0.000 C 
ATOM     11  C   UNL     1      -2.564   9.979  16.959  0.00  0.00    +0.000 C 
ATOM     12  C   UNL     1      -3.026  11.404  17.259  0.00  0.00    +0.000 C 
ATOM     13  C   UNL     1      -4.461  11.604  16.791  0.00  0.00    +0.000 C 
ATOM     14  C   UNL     1      -2.880  11.666  18.758  0.00  0.00    +0.000 C 
ATOM     15  C   UNL     1      -1.409  11.588  19.153  0.00  0.00    +0.000 C 
ENDBRANCH   6   9
BRANCH   1  18
ATOM     16  C   UNL     1       5.415   5.876  16.897  0.00  0.00    +0.000 A 
ATOM     17  C   UNL     1       4.580   6.479  17.865  0.00  0.00    +0.000 A 
ATOM     18  C   UNL     1       3.517   5.807  18.454  0.00  0.00    +0.000 A 
ATOM     19  C   UNL     1       3.211   4.546  17.996  0.00  0.00    +0.000 A 
ATOM     20  C   UNL     1       4.115   3.845  17.204  0.00  0.00    +0.000 A 
ATOM     21  C   UNL     1       5.206   4.513  16.581  0.00  0.00    +0.000 A 
BRANCH  16  23
ATOM     22  C   UNL     1       7.407   7.302  17.366  0.00  0.00    +0.000 C 
ATOM     23  O   UNL     1       6.364   6.791  16.569  0.00  0.00    +0.000 OA
ENDBRANCH  16  23
BRANCH  20  24
ATOM     24  O   UNL     1       3.756   2.520  17.209  0.00  0.00    +0.000 OA
ATOM     25  C   UNL     1       3.021   1.950  18.272  0.00  0.00    +0.000 C 
ENDBRANCH  20  24
BRANCH  21  26
ATOM     26  O   UNL     1       5.797   3.780  15.598  0.00  0.00    +0.000 OA
ATOM     27  C   UNL     1       5.806   4.213  14.259  0.00  0.00    +0.000 C 
ENDBRANCH  21  26
ENDBRANCH   1  18
TORSDOF 5
ENDMDL
MODEL 2
REMARK VINA RESULT:      -7.4      0.787      1.260
REMARK  Name = 
REMARK  9 active torsions:
REMARK  status: ('A' for Active; 'I' for Inactive)
REMARK    1  A    between atoms: C_1  and  O_2
REMARK    2  A    between atoms: O_2  and  C_3
REMARK    3  A    between atoms: C_5  and  C_6
REMARK    4  A    between atoms: N_11  and  C_12
REMARK    5  A    between atoms: C_15  and  C_16
REMARK    6  A    between atoms: C_22  and  O_23
REMARK    7  A    between atoms: O_23  and  C_24
REMARK    8  A    between atoms: C_25  and  O_26
REMARK    9  A    between atoms: O_26  and  C_27
REMARK                            x       y       z     vdW  Elec       q    Type
REMARK                         _______ _______ _______ _____ _____    ______ ____
ROOT
ATOM      1  C   UNL     1       2.170   6.993  19.551  0.00  0.00    +0.000 C 
ATOM      2  O   UNL     1       1.919   6.386  20.591  0.00  0.00    +0.000 OA
ATOM      3  N   UNL     1       1.743   8.303  19.314  0.00  0.00    +0.000 N 
ATOM      4  C   UNL     1       0.857   8.899  20.321  0.00  0.00    +0.000 C 
ATOM      5  C   UNL     1       0.922  10.441  20.357  0.00  0.00    +0.000 C 
ATOM      6  N   UNL     1       0.890  11.131  19.052  0.00  0.00    +0.000 NA
ATOM      7  C   UNL     1       1.859  10.487  18.154  0.00  0.00    +0.000 C 
ATOM      8  C   UNL     1       1.689   8.974  18.003  0.00  0.00    +0.000 C 
ENDROOT
BRANCH   6   9
ATOM      9  C   UNL     1      -0.455  11.411  18.504  0.00  0.00    +0.000 C 
ATOM     10  C   UNL     1      -1.518  11.934  19.490  0.00  0.00    +0.000 C 
ATOM     11  C   UNL     1      -2.944  11.978  18.958  0.00  0.00    +0.000 C 
ATOM     12  C   UNL     1      -3.338  10.677  18.260  0.00  0.00    +0.000 C 
ATOM     13  C   UNL     1      -4.777  10.756  17.768  0.00  0.00    +0.000 C 
ATOM     14  C   UNL     1      -2.363  10.419  17.111  0.00  0.00    +0.000 C 
ATOM     15  C   UNL     1      -0.957  10.212  17.665  0.00  0.00    +0.000 C 
ENDBRANCH   6   9
BRANCH   1  18
ATOM     16  C   UNL     1       4.957   6.051  17.153  0.00  0.00    +0.000 A 
ATOM     17  C   UNL     1       4.119   6.772  18.034  0.00  0.00    +0.000 A 
ATOM     18  C   UNL     1       2.919   6.257  18.508  0.00  0.00    +0.000 A 
ATOM     19  C   UNL     1       2.491   5.045  18.016  0.00  0.00    +0.000 A 
ATOM     20  C   UNL     1       3.366   4.220  17.316  0.00  0.00    +0.000 A 
ATOM     21  C   UNL     1       4.595   4.727  16.810  0.00  0.00    +0.000 A 
BRANCH  16  23
ATOM     22  C   UNL     1       7.363   6.655  17.410  0.00  0.00    +0.000 C 
ATOM     23  O   UNL     1       6.051   6.824  16.927  0.00  0.00    +0.000 OA
ENDBRANCH  16  23
BRANCH  20  24
ATOM     24  O   UNL     1       2.830   2.957  17.279  0.00  0.00    +0.000 OA
ATOM     25  C   UNL     1       3.245   1.942  18.169  0.00  0.00    +0.000 C 
ENDBRANCH  20  24
BRANCH  21  26
ATOM     26  O   UNL     1       5.177   3.910  15.890  0.00  0.00    +0.000 OA
ATOM     27  C   UNL     1       5.582   4.390  14.630  0.00  0.00    +0.000 C 
ENDBRANCH  21  26
ENDBRANCH   1  18
TORSDOF 5
ENDMDL
MODEL 3
REMARK VINA RESULT:      -7.1      0.363      2.554
REMARK  Name = 
REMARK  9 active torsions:
REMARK  status: ('A' for Active; 'I' for Inactive)
REMARK    1  A    between atoms: C_1  and  O_2
REMARK    2  A    between atoms: O_2  and  C_3
REMARK    3  A    between atoms: C_5  and  C_6
REMARK    4  A    between atoms: N_11  and  C_12
REMARK    5  A    between atoms: C_15  and  C_16
REMARK    6  A    between atoms: C_22  and  O_23
REMARK    7  A    between atoms: O_23  and  C_24
REMARK    8  A    between atoms: C_25  and  O_26
REMARK    9  A    between atoms: O_26  and  C_27
REMARK                            x       y       z     vdW  Elec       q    Type
REMARK                         _______ _______ _______ _____ _____    ______ ____
ROOT
ATOM      1  C   UNL     1       2.705   6.476  19.878  0.00  0.00    +0.000 C 
ATOM      2  O   UNL     1       2.644   5.920  20.974  0.00  0.00    +0.000 OA
ATOM      3  N   UNL     1       2.009   7.652  19.584  0.00  0.00    +0.000 N 
ATOM      4  C   UNL     1       1.082   8.143  20.611  0.00  0.00    +0.000 C 
ATOM      5  C   UNL     1       0.837   9.665  20.534  0.00  0.00    +0.000 C 
ATOM      6  N   UNL     1       0.588  10.225  19.191  0.00  0.00    +0.000 NA
ATOM      7  C   UNL     1       1.612   9.712  18.270  0.00  0.00    +0.000 C 
ATOM      8  C   UNL     1       1.741   8.188  18.237  0.00  0.00    +0.000 C 
ENDROOT
BRANCH   6   9
ATOM      9  C   UNL     1      -0.817  10.189  18.727  0.00  0.00    +0.000 C 
ATOM     10  C   UNL     1      -1.062   9.736  17.275  0.00  0.00    +0.000 C 
ATOM     11  C   UNL     1      -2.477   9.944  16.751  0.00  0.00    +0.000 C 
ATOM     12  C   UNL     1      -3.004  11.344  17.058  0.00  0.00    +0.000 C 
ATOM     13  C   UNL     1      -4.409  11.516  16.495  0.00  0.00    +0.000 C 
ATOM     14  C   UNL     1      -2.973  11.564  18.570  0.00  0.00    +0.000 C 
ATOM     15  C   UNL     1      -1.532  11.518  19.067  0.00  0.00    +0.000 C 
ENDBRANCH   6   9
BRANCH   1  18
ATOM     16  C   UNL     1       3.758   3.993  17.208  0.00  0.00    +0.000 A 
ATOM     17  C   UNL     1       3.109   4.602  18.306  0.00  0.00    +0.000 A 
ATOM     18  C   UNL     1       3.523   5.817  18.835  0.00  0.00    +0.000 A 
ATOM     19  C   UNL     1       4.668   6.390  18.332  0.00  0.00    +0.000 A 
ATOM     20  C   UNL     1       5.214   5.939  17.134  0.00  0.00    +0.000 A 
ATOM     21  C   UNL     1       4.815   4.692  16.577  0.00  0.00    +0.000 A 
BRANCH  16  23
ATOM     22  C   UNL     1       2.368   2.012  17.811  0.00  0.00    +0.000 C 
ATOM     23  O   UNL     1       3.077   2.851  16.929  0.00  0.00    +0.000 OA
ENDBRANCH  16  23
BRANCH  20  24
ATOM     24  O   UNL     1       6.086   6.893  16.672  0.00  0.00    +0.000 OA
ATOM     25  C   UNL     1       7.349   7.103  17.269  0.00  0.00    +0.000 C 
ENDBRANCH  20  24
BRANCH  21  26
ATOM     26  O   UNL     1       5.652   4.244  15.603  0.00  0.00    +0.000 OA
ATOM     27  C   UNL     1       5.378   4.458  14.239  0.00  0.00    +0.000 C 
ENDBRANCH  21  26
ENDBRANCH   1  18
TORSDOF 5
ENDMDL
MODEL 4
REMARK VINA RESULT:      -6.9      0.767      2.797
REMARK  Name = 
REMARK  9 active torsions:
REMARK  status: ('A' for Active; 'I' for Inactive)
REMARK    1  A    between atoms: C_1  and  O_2
REMARK    2  A    between atoms: O_2  and  C_3
REMARK    3  A    between atoms: C_5  and  C_6
REMARK    4  A    between atoms: N_11  and  C_12
REMARK    5  A    between atoms: C_15  and  C_16
REMARK    6  A    between atoms: C_22  and  O_23
REMARK    7  A    between atoms: O_23  and  C_24
REMARK    8  A    between atoms: C_25  and  O_26
REMARK    9  A    between atoms: O_26  and  C_27
REMARK                            x       y       z     vdW  Elec       q    Type
REMARK                         _______ _______ _______ _____ _____    ______ ____
ROOT
ATOM      1  C   UNL     1       2.278   6.875  19.816  0.00  0.00    +0.000 C 
ATOM      2  O   UNL     1       1.937   6.299  20.849  0.00  0.00    +0.000 OA
ATOM      3  N   UNL     1       1.849   8.164  19.489  0.00  0.00    +0.000 N 
ATOM      4  C   UNL     1       0.853   8.773  20.380  0.00  0.00    +0.000 C 
ATOM      5  C   UNL     1       0.882  10.316  20.363  0.00  0.00    +0.000 C 
ATOM      6  N   UNL     1       0.965  10.958  19.036  0.00  0.00    +0.000 NA
ATOM      7  C   UNL     1       2.032  10.307  18.263  0.00  0.00    +0.000 C 
ATOM      8  C   UNL     1       1.910   8.786  18.154  0.00  0.00    +0.000 C 
ENDROOT
BRANCH   6   9
ATOM      9  C   UNL     1      -0.325  11.185  18.347  0.00  0.00    +0.000 C 
ATOM     10  C   UNL     1      -1.444  11.861  19.163  0.00  0.00    +0.000 C 
ATOM     11  C   UNL     1      -2.823  11.857  18.516  0.00  0.00    +0.000 C 
ATOM     12  C   UNL     1      -3.201  10.480  17.975  0.00  0.00    +0.000 C 
ATOM     13  C   UNL     1      -4.595  10.516  17.363  0.00  0.00    +0.000 C 
ATOM     14  C   UNL     1      -2.149  10.043  16.956  0.00  0.00    +0.000 C 
ATOM     15  C   UNL     1      -0.797   9.889  17.645  0.00  0.00    +0.000 C 
ENDBRANCH   6   9
BRANCH   1  18
ATOM     16  C   UNL     1       3.412   4.201  17.373  0.00  0.00    +0.000 A 
ATOM     17  C   UNL     1       2.709   4.900  18.380  0.00  0.00    +0.000 A 
ATOM     18  C   UNL     1       3.143   6.121  18.881  0.00  0.00    +0.000 A 
ATOM     19  C   UNL     1       4.354   6.608  18.448  0.00  0.00    +0.000 A 
ATOM     20  C   UNL     1       4.971   6.066  17.324  0.00  0.00    +0.000 A 
ATOM     21  C   UNL     1       4.553   4.811  16.800  0.00  0.00    +0.000 A 
BRANCH  16  23
ATOM     22  C   UNL     1       2.129   2.155  17.993  0.00  0.00    +0.000 C 
ATOM     23  O   UNL     1       2.696   3.080  17.096  0.00  0.00    +0.000 OA
ENDBRANCH  16  23
BRANCH  20  24
ATOM     24  O   UNL     1       5.928   6.949  16.890  0.00  0.00    +0.000 OA
ATOM     25  C   UNL     1       7.229   6.971  17.441  0.00  0.00    +0.000 C 
ENDBRANCH  20  24
BRANCH  21  26
ATOM     26  O   UNL     1       5.442   4.270  15.923  0.00  0.00    +0.000 OA
ATOM     27  C   UNL     1       5.345   4.500  14.538  0.00  0.00    +0.000 C 
ENDBRANCH  21  26
ENDBRANCH   1  18
TORSDOF 5
ENDMDL
MODEL 5
REMARK VINA RESULT:      -6.8      1.978      3.294
REMARK  Name = 
REMARK  9 active torsions:
REMARK  status: ('A' for Active; 'I' for Inactive)
REMARK    1  A    between atoms: C_1  and  O_2
REMARK    2  A    between atoms: O_2  and  C_3
REMARK    3  A    between atoms: C_5  and  C_6
REMARK    4  A    between atoms: N_11  and  C_12
REMARK    5  A    between atoms: C_15  and  C_16
REMARK    6  A    between atoms: C_22  and  O_23
REMARK    7  A    between atoms: O_23  and  C_24
REMARK    8  A    between atoms: C_25  and  O_26
REMARK    9  A    between atoms: O_26  and  C_27
REMARK                            x       y       z     vdW  Elec       q    Type
REMARK                         _______ _______ _______ _____ _____    ______ ____
ROOT
ATOM      1  C   UNL     1       1.056   8.823  20.958  0.00  0.00    +0.000 C 
ATOM      2  O   UNL     1       1.353   9.005  22.137  0.00  0.00    +0.000 OA
ATOM      3  N   UNL     1       0.203   9.676  20.250  0.00  0.00    +0.000 N 
ATOM      4  C   UNL     1      -0.440  10.749  21.017  0.00  0.00    +0.000 C 
ATOM      5  C   UNL     1      -0.832  11.967  20.153  0.00  0.00    +0.000 C 
ATOM      6  N   UNL     1      -1.495  11.674  18.867  0.00  0.00    +0.000 NA
ATOM      7  C   UNL     1      -0.728  10.635  18.166  0.00  0.00    +0.000 C 
ATOM      8  C   UNL     1      -0.476   9.364  18.980  0.00  0.00    +0.000 C 
ENDROOT
BRANCH   6   9
ATOM      9  C   UNL     1      -2.964  11.508  18.922  0.00  0.00    +0.000 C 
ATOM     10  C   UNL     1      -3.706  11.399  17.575  0.00  0.00    +0.000 C 
ATOM     11  C   UNL     1      -5.225  11.477  17.654  0.00  0.00    +0.000 C 
ATOM     12  C   UNL     1      -5.698  12.639  18.526  0.00  0.00    +0.000 C 
ATOM     13  C   UNL     1      -7.219  12.694  18.555  0.00  0.00    +0.000 C 
ATOM     14  C   UNL     1      -5.113  12.473  19.929  0.00  0.00    +0.000 C 
ATOM     15  C   UNL     1      -3.592  12.560  19.866  0.00  0.00    +0.000 C 
ENDBRANCH   6   9
BRANCH   1  18
ATOM     16  C   UNL     1       3.044   6.654  18.561  0.00  0.00    +0.000 A 
ATOM     17  C   UNL     1       2.366   7.745  19.150  0.00  0.00    +0.000 A 
ATOM     18  C   UNL     1       1.606   7.614  20.305  0.00  0.00    +0.000 A 
ATOM     19  C   UNL     1       1.430   6.354  20.828  0.00  0.00    +0.000 A 
ATOM     20  C   UNL     1       2.233   5.298  20.408  0.00  0.00    +0.000 A 
ATOM     21  C   UNL     1       3.011   5.403  19.222  0.00  0.00    +0.000 A 
BRANCH  16  23
ATOM     22  C   UNL     1       5.058   6.933  17.116  0.00  0.00    +0.000 C 
ATOM     23  O   UNL     1       3.714   7.139  17.482  0.00  0.00    +0.000 OA
ENDBRANCH  16  23
BRANCH  20  24
ATOM     24  O   UNL     1       2.124   4.283  21.326  0.00  0.00    +0.000 OA
ATOM     25  C   UNL     1       1.314   3.150  21.096  0.00  0.00    +0.000 C 
ENDBRANCH  20  24
BRANCH  21  26
ATOM     26  O   UNL     1       3.476   4.206  18.774  0.00  0.00    +0.000 OA
ATOM     27  C   UNL     1       4.787   3.773  19.051  0.00  0.00    +0.000 C 
ENDBRANCH  21  26
ENDBRANCH   1  18
TORSDOF 5
ENDMDL
MODEL 6
REMARK VINA RESULT:      -6.7      1.949      3.913
REMARK  Name = 
REMARK  9 active torsions:
REMARK  status: ('A' for Active; 'I' for Inactive)
REMARK    1  A    between atoms: C_1  and  O_2
REMARK    2  A    between atoms: O_2  and  C_3
REMARK    3  A    between atoms: C_5  and  C_6
REMARK    4  A    between atoms: N_11  and  C_12
REMARK    5  A    between atoms: C_15  and  C_16
REMARK    6  A    between atoms: C_22  and  O_23
REMARK    7  A    between atoms: O_23  and  C_24
REMARK    8  A    between atoms: C_25  and  O_26
REMARK    9  A    between atoms: O_26  and  C_27
REMARK                            x       y       z     vdW  Elec       q    Type
REMARK                         _______ _______ _______ _____ _____    ______ ____
ROOT
ATOM      1  C   UNL     1       1.044   8.748  21.038  0.00  0.00    +0.000 C 
ATOM      2  O   UNL     1       1.218   8.906  22.246  0.00  0.00    +0.000 OA
ATOM      3  N   UNL     1       0.241   9.596  20.269  0.00  0.00    +0.000 N 
ATOM      4  C   UNL     1      -0.506  10.632  20.994  0.00  0.00    +0.000 C 
ATOM      5  C   UNL     1      -0.845  11.860  20.124  0.00  0.00    +0.000 C 
ATOM      6  N   UNL     1      -1.369  11.585  18.772  0.00  0.00    +0.000 NA
ATOM      7  C   UNL     1      -0.507  10.585  18.127  0.00  0.00    +0.000 C 
ATOM      8  C   UNL     1      -0.300   9.300  18.931  0.00  0.00    +0.000 C 
ENDROOT
BRANCH   6   9
ATOM      9  C   UNL     1      -2.831  11.378  18.676  0.00  0.00    +0.000 C 
ATOM     10  C   UNL     1      -3.434  11.292  17.260  0.00  0.00    +0.000 C 
ATOM     11  C   UNL     1      -4.955  11.328  17.190  0.00  0.00    +0.000 C 
ATOM     12  C   UNL     1      -5.544  12.449  18.044  0.00  0.00    +0.000 C 
ATOM     13  C   UNL     1      -7.062  12.464  17.923  0.00  0.00    +0.000 C 
ATOM     14  C   UNL     1      -5.096  12.255  19.493  0.00  0.00    +0.000 C 
ATOM     15  C   UNL     1      -3.579  12.383  19.583  0.00  0.00    +0.000 C 
ENDBRANCH   6   9
BRANCH   1  18
ATOM     16  C   UNL     1       1.830   5.127  20.215  0.00  0.00    +0.000 A 
ATOM     17  C   UNL     1       1.367   6.296  20.861  0.00  0.00    +0.000 A 
ATOM     18  C   UNL     1       1.690   7.571  20.415  0.00  0.00    +0.000 A 
ATOM     19  C   UNL     1       2.575   7.690  19.368  0.00  0.00    +0.000 A 
ATOM     20  C   UNL     1       2.890   6.585  18.583  0.00  0.00    +0.000 A 
ATOM     21  C   UNL     1       2.580   5.268  19.023  0.00  0.00    +0.000 A 
BRANCH  16  23
ATOM     22  C   UNL     1       1.961   3.093  21.651  0.00  0.00    +0.000 C 
ATOM     23  O   UNL     1       1.299   4.070  20.882  0.00  0.00    +0.000 OA
ENDBRANCH  16  23
BRANCH  20  24
ATOM     24  O   UNL     1       3.461   7.034  17.418  0.00  0.00    +0.000 OA
ATOM     25  C   UNL     1       4.844   6.899  17.164  0.00  0.00    +0.000 C 
ENDBRANCH  20  24
BRANCH  21  26
ATOM     26  O   UNL     1       3.227   4.299  18.320  0.00  0.00    +0.000 OA
ATOM     27  C   UNL     1       4.329   3.608  18.858  0.00  0.00    +0.000 C 
ENDBRANCH  21  26
ENDBRANCH   1  18
TORSDOF 5
ENDMDL
MODEL 7
REMARK VINA RESULT:      -6.6      2.226      4.259
REMARK  Name = 
REMARK  9 active torsions:
REMARK  status: ('A' for Active; 'I' for Inactive)
REMARK    1  A    between atoms: C_1  and  O_2
REMARK    2  A    between atoms: O_2  and  C_3
REMARK    3  A    between atoms: C_5  and  C_6
REMARK    4  A    between atoms: N_11  and  C_12
REMARK    5  A    between atoms: C_15  and  C_16
REMARK    6  A    between atoms: C_22  and  O_23
REMARK    7  A    between atoms: O_23  and  C_24
REMARK    8  A    between atoms: C_25  and  O_26
REMARK    9  A    between atoms: O_26  and  C_27
REMARK                            x       y       z     vdW  Elec       q    Type
REMARK                         _______ _______ _______ _____ _____    ______ ____
ROOT
ATOM      1  C   UNL     1       3.827   3.875  17.054  0.00  0.00    +0.000 C 
ATOM      2  O   UNL     1       3.231   2.820  16.837  0.00  0.00    +0.000 OA
ATOM      3  N   UNL     1       3.394   4.811  17.997  0.00  0.00    +0.000 N 
ATOM      4  C   UNL     1       2.103   4.545  18.644  0.00  0.00    +0.000 C 
ATOM      5  C   UNL     1       1.971   5.202  20.035  0.00  0.00    +0.000 C 
ATOM      6  N   UNL     1       2.414   6.606  20.144  0.00  0.00    +0.000 NA
ATOM      7  C   UNL     1       3.738   6.733  19.519  0.00  0.00    +0.000 C 
ATOM      8  C   UNL     1       3.821   6.219  18.081  0.00  0.00    +0.000 C 
ENDROOT
BRANCH   6   9
ATOM      9  C   UNL     1       1.403   7.630  19.799  0.00  0.00    +0.000 C 
ATOM     10  C   UNL     1       1.750   8.594  18.647  0.00  0.00    +0.000 C 
ATOM     11  C   UNL     1       0.811   9.781  18.478  0.00  0.00    +0.000 C 
ATOM     12  C   UNL     1       0.526  10.483  19.805  0.00  0.00    +0.000 C 
ATOM     13  C   UNL     1      -0.393  11.676  19.585  0.00  0.00    +0.000 C 
ATOM     14  C   UNL     1      -0.084   9.473  20.777  0.00  0.00    +0.000 C 
ATOM     15  C   UNL     1       0.925   8.368  21.072  0.00  0.00    +0.000 C 
ENDBRANCH   6   9
BRANCH   1  18
ATOM     16  C   UNL     1       6.150   3.970  14.054  0.00  0.00    +0.000 A 
ATOM     17  C   UNL     1       5.110   3.625  14.947  0.00  0.00    +0.000 A 
ATOM     18  C   UNL     1       5.025   4.151  16.230  0.00  0.00    +0.000 A 
ATOM     19  C   UNL     1       6.049   4.956  16.672  0.00  0.00    +0.000 A 
ATOM     20  C   UNL     1       6.974   5.479  15.773  0.00  0.00    +0.000 A 
ATOM     21  C   UNL     1       7.088   4.949  14.458  0.00  0.00    +0.000 A 
BRANCH  16  23
ATOM     22  C   UNL     1       4.840   3.489  11.987  0.00  0.00    +0.000 C 
ATOM     23  O   UNL     1       5.906   3.312  12.891  0.00  0.00    +0.000 OA
ENDBRANCH  16  23
BRANCH  20  24
ATOM     24  O   UNL     1       7.628   6.520  16.384  0.00  0.00    +0.000 OA
ATOM     25  C   UNL     1       7.428   6.830  17.748  0.00  0.00    +0.000 C 
ENDBRANCH  20  24
BRANCH  21  26
ATOM     26  O   UNL     1       8.228   5.331  13.820  0.00  0.00    +0.000 OA
ATOM     27  C   UNL     1       8.208   5.805  12.494  0.00  0.00    +0.000 C 
ENDBRANCH  21  26
ENDBRANCH   1  18
TORSDOF 5
ENDMDL
MODEL 8
REMARK VINA RESULT:      -6.6      1.944      3.112
REMARK  Name = 
REMARK  9 active torsions:
REMARK  status: ('A' for Active; 'I' for Inactive)
REMARK    1  A    between atoms: C_1  and  O_2
REMARK    2  A    between atoms: O_2  and  C_3
REMARK    3  A    between atoms: C_5  and  C_6
REMARK    4  A    between atoms: N_11  and  C_12
REMARK    5  A    between atoms: C_15  and  C_16
REMARK    6  A    between atoms: C_22  and  O_23
REMARK    7  A    between atoms: O_23  and  C_24
REMARK    8  A    between atoms: C_25  and  O_26
REMARK    9  A    between atoms: O_26  and  C_27
REMARK                            x       y       z     vdW  Elec       q    Type
REMARK                         _______ _______ _______ _____ _____    ______ ____
ROOT
ATOM      1  C   UNL     1       1.254   8.649  21.086  0.00  0.00    +0.000 C 
ATOM      2  O   UNL     1       1.263   8.645  22.316  0.00  0.00    +0.000 OA
ATOM      3  N   UNL     1       0.790   9.732  20.334  0.00  0.00    +0.000 N 
ATOM      4  C   UNL     1       0.181  10.840  21.082  0.00  0.00    +0.000 C 
ATOM      5  C   UNL     1       0.261  12.192  20.342  0.00  0.00    +0.000 C 
ATOM      6  N   UNL     1      -0.087  12.179  18.908  0.00  0.00    +0.000 NA
ATOM      7  C   UNL     1       0.628  11.072  18.259  0.00  0.00    +0.000 C 
ATOM      8  C   UNL     1       0.418   9.703  18.908  0.00  0.00    +0.000 C 
ENDROOT
BRANCH   6   9
ATOM      9  C   UNL     1      -1.524  12.332  18.591  0.00  0.00    +0.000 C 
ATOM     10  C   UNL     1      -2.505  12.348  19.780  0.00  0.00    +0.000 C 
ATOM     11  C   UNL     1      -3.981  12.257  19.417  0.00  0.00    +0.000 C 
ATOM     12  C   UNL     1      -4.257  11.147  18.405  0.00  0.00    +0.000 C 
ATOM     13  C   UNL     1      -5.746  11.076  18.091  0.00  0.00    +0.000 C 
ATOM     14  C   UNL     1      -3.428  11.407  17.147  0.00  0.00    +0.000 C 
ATOM     15  C   UNL     1      -1.943  11.334  17.486  0.00  0.00    +0.000 C 
ENDBRANCH   6   9
BRANCH   1  18
ATOM     16  C   UNL     1       3.043   6.403  18.604  0.00  0.00    +0.000 A 
ATOM     17  C   UNL     1       2.441   7.522  19.224  0.00  0.00    +0.000 A 
ATOM     18  C   UNL     1       1.720   7.419  20.406  0.00  0.00    +0.000 A 
ATOM     19  C   UNL     1       1.503   6.166  20.929  0.00  0.00    +0.000 A 
ATOM     20  C   UNL     1       2.237   5.075  20.474  0.00  0.00    +0.000 A 
ATOM     21  C   UNL     1       2.974   5.151  19.259  0.00  0.00    +0.000 A 
BRANCH  16  23
ATOM     22  C   UNL     1       5.073   6.836  17.221  0.00  0.00    +0.000 C 
ATOM     23  O   UNL     1       3.693   6.863  17.503  0.00  0.00    +0.000 OA
ENDBRANCH  16  23
BRANCH  20  24
ATOM     24  O   UNL     1       2.115   4.061  21.391  0.00  0.00    +0.000 OA
ATOM     25  C   UNL     1       1.272   2.949  21.167  0.00  0.00    +0.000 C 
ENDBRANCH  20  24
BRANCH  21  26
ATOM     26  O   UNL     1       3.363   3.935  18.788  0.00  0.00    +0.000 OA
ATOM     27  C   UNL     1       4.625   3.393  19.098  0.00  0.00    +0.000 C 
ENDBRANCH  21  26
ENDBRANCH   1  18
TORSDOF 5
ENDMDL
MODEL 9
REMARK VINA RESULT:      -6.6      2.555      4.488
REMARK  Name = 
REMARK  9 active torsions:
REMARK  status: ('A' for Active; 'I' for Inactive)
REMARK    1  A    between atoms: C_1  and  O_2
REMARK    2  A    between atoms: O_2  and  C_3
REMARK    3  A    between atoms: C_5  and  C_6
REMARK    4  A    between atoms: N_11  and  C_12
REMARK    5  A    between atoms: C_15  and  C_16
REMARK    6  A    between atoms: C_22  and  O_23
REMARK    7  A    between atoms: O_23  and  C_24
REMARK    8  A    between atoms: C_25  and  O_26
REMARK    9  A    between atoms: O_26  and  C_27
REMARK                            x       y       z     vdW  Elec       q    Type
REMARK                         _______ _______ _______ _____ _____    ______ ____
ROOT
ATOM      1  C   UNL     1       2.258   8.196  18.188  0.00  0.00    +0.000 C 
ATOM      2  O   UNL     1       2.492   8.591  17.047  0.00  0.00    +0.000 OA
ATOM      3  N   UNL     1       1.360   8.838  19.044  0.00  0.00    +0.000 N 
ATOM      4  C   UNL     1       0.787  10.103  18.568  0.00  0.00    +0.000 C 
ATOM      5  C   UNL     1      -0.582  10.430  19.203  0.00  0.00    +0.000 C 
ATOM      6  N   UNL     1      -0.694  10.237  20.662  0.00  0.00    +0.000 NA
ATOM      7  C   UNL     1      -0.147   8.917  21.007  0.00  0.00    +0.000 C 
ATOM      8  C   UNL     1       1.275   8.660  20.505  0.00  0.00    +0.000 C 
ENDROOT
BRANCH   6   9
ATOM      9  C   UNL     1      -0.270  11.382  21.499  0.00  0.00    +0.000 C 
ATOM     10  C   UNL     1      -1.299  11.931  22.507  0.00  0.00    +0.000 C 
ATOM     11  C   UNL     1      -0.930  13.250  23.171  0.00  0.00    +0.000 C 
ATOM     12  C   UNL     1      -0.445  14.288  22.160  0.00  0.00    +0.000 C 
ATOM     13  C   UNL     1      -0.112  15.596  22.863  0.00  0.00    +0.000 C 
ATOM     14  C   UNL     1       0.767  13.724  21.417  0.00  0.00    +0.000 C 
ATOM     15  C   UNL     1       0.353  12.492  20.619  0.00  0.00    +0.000 C 
ENDBRANCH   6   9
BRANCH   1  18
ATOM     16  C   UNL     1       3.061   4.971  20.022  0.00  0.00    +0.000 A 
ATOM     17  C   UNL     1       2.466   6.194  19.636  0.00  0.00    +0.000 A 
ATOM     18  C   UNL     1       3.014   7.012  18.657  0.00  0.00    +0.000 A 
ATOM     19  C   UNL     1       4.232   6.662  18.123  0.00  0.00    +0.000 A 
ATOM     20  C   UNL     1       4.747   5.384  18.320  0.00  0.00    +0.000 A 
ATOM     21  C   UNL     1       4.211   4.531  19.324  0.00  0.00    +0.000 A 
BRANCH  16  23
ATOM     22  C   UNL     1       1.130   3.584  20.776  0.00  0.00    +0.000 C 
ATOM     23  O   UNL     1       2.251   4.416  20.961  0.00  0.00    +0.000 OA
ENDBRANCH  16  23
BRANCH  20  24
ATOM     24  O   UNL     1       5.742   5.174  17.397  0.00  0.00    +0.000 OA
ATOM     25  C   UNL     1       6.979   5.850  17.465  0.00  0.00    +0.000 C 
ENDBRANCH  20  24
BRANCH  21  26
ATOM     26  O   UNL     1       5.010   3.468  19.611  0.00  0.00    +0.000 OA
ATOM     27  C   UNL     1       4.473   2.202  19.911  0.00  0.00    +0.000 C 
ENDBRANCH  21  26
ENDBRANCH   1  18
TORSDOF 5
ENDMDL
