MODEL 1
REMARK VINA RESULT:      -7.2      0.000      0.000
REMARK  Name = 
REMARK  7 active torsions:
REMARK  status: ('A' for Active; 'I' for Inactive)
REMARK    1  A    between atoms: N_4  and  C_5
REMARK    2  A    between atoms: C_5  and  C_6
REMARK    3  A    between atoms: C_6  and  C_7
REMARK    4  A    between atoms: C_7  and  O_8
REMARK    5  A    between atoms: O_8  and  C_9
REMARK    6  A    between atoms: N_17  and  C_18
REMARK    7  A    between atoms: C_18  and  C_19
REMARK                            x       y       z     vdW  Elec       q    Type
REMARK                         _______ _______ _______ _____ _____    ______ ____
ROOT
ATOM      1  C   UNL     1       6.220   6.259  17.473  0.00  0.00    +0.000 C 
ATOM      2  C   UNL     1       6.612   4.957  18.183  0.00  0.00    +0.000 C 
ATOM      3  C   UNL     1       5.522   4.657  19.221  0.00  0.00    +0.000 C 
ATOM      4  C   UNL     1       4.459   5.741  19.021  0.00  0.00    +0.000 C 
ATOM      5  C   UNL     1       4.700   6.308  17.622  0.00  0.00    +0.000 C 
ATOM      6  O   UNL     1       4.191   7.649  17.569  0.00  0.00    +0.000 OA
ATOM      7  C   UNL     1       2.780   7.656  17.842  0.00  0.00    +0.000 C 
ATOM      8  C   UNL     1       2.420   6.928  19.164  0.00  0.00    +0.000 C 
ATOM      9  N   UNL     1       3.012   5.554  19.308  0.00  0.00    +0.000 NA
ENDROOT
BRANCH   1  10
ATOM     10  O   UNL     1       6.628   6.172  16.102  0.00  0.00    +0.000 OA
BRANCH  10  11
ATOM     11  C   UNL     1       5.624   5.619  15.251  0.00  0.00    +0.000 C 
BRANCH  11  12
ATOM     12  C   UNL     1       6.065   4.233  14.813  0.00  0.00    +0.000 C 
BRANCH  12  13
ATOM     13  C   UNL     1       6.705   4.290  13.428  0.00  0.00    +0.000 C 
BRANCH  13  17
ATOM     14  C   UNL     1       5.548   1.786  11.111  0.00  0.00    +0.000 A 
ATOM     15  C   UNL     1       4.472   2.682  11.276  0.00  0.00    +0.000 A 
ATOM     16  N   UNL     1       4.766   3.677  12.115  0.00  0.00    +0.000 NA
ATOM     17  N   UNL     1       6.033   3.414  12.486  0.00  0.00    +0.000 N 
ATOM     18  C   UNL     1       6.545   2.289  11.911  0.00  0.00    +0.000 A 
ENDBRANCH  13  17
ENDBRANCH  12  13
ENDBRANCH  11  12
ENDBRANCH  10  11
ENDBRANCH   1  10
BRANCH   9  19
ATOM     19  C   UNL     1       2.263   4.616  18.429  0.00  0.00    +0.000 C 
BRANCH  19  20
ATOM     20  C   UNL     1       1.572   3.429  19.134  0.00  0.00    +0.000 C 
ATOM     21  C   UNL     1       2.464   2.180  19.191  0.00  0.00    +0.000 C 
ATOM     22  C   UNL     1       3.456   2.245  20.345  0.00  0.00    +0.000 C 
ATOM     23  O   UNL     1       2.765   2.431  21.581  0.00  0.00    +0.000 OA
ATOM     24  C   UNL     1       2.083   3.679  21.630  0.00  0.00    +0.000 C 
ATOM     25  C   UNL     1       1.037   3.777  20.532  0.00  0.00    +0.000 C 
ENDBRANCH  19  20
ENDBRANCH   9  19
TORSDOF 7
ENDMDL
MODEL 2
REMARK VINA RESULT:      -7.1      3.637      6.119
REMARK  Name = 
REMARK  7 active torsions:
REMARK  status: ('A' for Active; 'I' for Inactive)
REMARK    1  A    between atoms: N_4  and  C_5
REMARK    2  A    between atoms: C_5  and  C_6
REMARK    3  A    between atoms: C_6  and  C_7
REMARK    4  A    between atoms: C_7  and  O_8
REMARK    5  A    between atoms: O_8  and  C_9
REMARK    6  A    between atoms: N_17  and  C_18
REMARK    7  A    between atoms: C_18  and  C_19
REMARK                            x       y       z     vdW  Elec       q    Type
REMARK                         _______ _______ _______ _____ _____    ______ ____
ROOT
ATOM      1  C   UNL     1       6.976   5.375  16.328  0.00  0.00    +0.000 C 
ATOM      2  C   UNL     1       5.972   5.367  15.168  0.00  0.00    +0.000 C 
ATOM      3  C   UNL     1       4.773   4.515  15.607  0.00  0.00    +0.000 C 
ATOM      4  C   UNL     1       5.059   4.127  17.060  0.00  0.00    +0.000 C 
ATOM      5  C   UNL     1       6.106   5.123  17.559  0.00  0.00    +0.000 C 
ATOM      6  O   UNL     1       6.844   4.523  18.634  0.00  0.00    +0.000 OA
ATOM      7  C   UNL     1       5.962   4.188  19.717  0.00  0.00    +0.000 C 
ATOM      8  C   UNL     1       4.753   3.326  19.263  0.00  0.00    +0.000 C 
ATOM      9  N   UNL     1       4.005   3.867  18.077  0.00  0.00    +0.000 NA
ENDROOT
BRANCH   1  10
ATOM     10  O   UNL     1       7.616   6.655  16.369  0.00  0.00    +0.000 OA
BRANCH  10  11
ATOM     11  C   UNL     1       7.047   7.537  17.337  0.00  0.00    +0.000 C 
BRANCH  11  12
ATOM     12  C   UNL     1       8.173   8.250  18.069  0.00  0.00    +0.000 C 
BRANCH  12  13
ATOM     13  C   UNL     1       8.275   9.701  17.607  0.00  0.00    +0.000 C 
BRANCH  13  17
ATOM     14  C   UNL     1      10.736  11.862  19.107  0.00  0.00    +0.000 A 
ATOM     15  C   UNL     1      10.165  11.134  20.171  0.00  0.00    +0.000 A 
ATOM     16  N   UNL     1       9.229  10.280  19.755  0.00  0.00    +0.000 NA
ATOM     17  N   UNL     1       9.203  10.463  18.422  0.00  0.00    +0.000 N 
ATOM     18  C   UNL     1      10.089  11.402  17.985  0.00  0.00    +0.000 A 
ENDBRANCH  13  17
ENDBRANCH  12  13
ENDBRANCH  11  12
ENDBRANCH  10  11
ENDBRANCH   1  10
BRANCH   9  19
ATOM     19  C   UNL     1       3.185   5.028  18.517  0.00  0.00    +0.000 C 
BRANCH  19  20
ATOM     20  C   UNL     1       1.712   4.726  18.864  0.00  0.00    +0.000 C 
ATOM     21  C   UNL     1       1.251   3.362  18.332  0.00  0.00    +0.000 C 
ATOM     22  C   UNL     1       1.666   2.224  19.256  0.00  0.00    +0.000 C 
ATOM     23  O   UNL     1       1.165   2.448  20.573  0.00  0.00    +0.000 OA
ATOM     24  C   UNL     1       1.730   3.612  21.169  0.00  0.00    +0.000 C 
ATOM     25  C   UNL     1       1.399   4.857  20.363  0.00  0.00    +0.000 C 
ENDBRANCH  19  20
ENDBRANCH   9  19
TORSDOF 7
ENDMDL
MODEL 3
REMARK VINA RESULT:      -7.1      0.727      1.029
REMARK  Name = 
REMARK  7 active torsions:
REMARK  status: ('A' for Active; 'I' for Inactive)
REMARK    1  A    between atoms: N_4  and  C_5
REMARK    2  A    between atoms: C_5  and  C_6
REMARK    3  A    between atoms: C_6  and  C_7
REMARK    4  A    between atoms: C_7  and  O_8
REMARK    5  A    between atoms: O_8  and  C_9
REMARK    6  A    between atoms: N_17  and  C_18
REMARK    7  A    between atoms: C_18  and  C_19
REMARK                            x       y       z     vdW  Elec       q    Type
REMARK                         _______ _______ _______ _____ _____    ______ ____
ROOT
ATOM      1  C   UNL     1       6.627   6.255  17.593  0.00  0.00    +0.000 C 
ATOM      2  C   UNL     1       6.920   5.006  18.434  0.00  0.00    +0.000 C 
ATOM      3  C   UNL     1       5.726   4.799  19.376  0.00  0.00    +0.000 C 
ATOM      4  C   UNL     1       4.710   5.878  18.989  0.00  0.00    +0.000 C 
ATOM      5  C   UNL     1       5.101   6.334  17.583  0.00  0.00    +0.000 C 
ATOM      6  O   UNL     1       4.626   7.673  17.380  0.00  0.00    +0.000 OA
ATOM      7  C   UNL     1       3.196   7.718  17.507  0.00  0.00    +0.000 C 
ATOM      8  C   UNL     1       2.691   7.097  18.837  0.00  0.00    +0.000 C 
ATOM      9  N   UNL     1       3.238   5.730  19.141  0.00  0.00    +0.000 NA
ENDROOT
BRANCH   1  10
ATOM     10  O   UNL     1       7.168   6.060  16.281  0.00  0.00    +0.000 OA
BRANCH  10  11
ATOM     11  C   UNL     1       6.938   4.747  15.768  0.00  0.00    +0.000 C 
BRANCH  11  12
ATOM     12  C   UNL     1       6.149   4.861  14.473  0.00  0.00    +0.000 C 
BRANCH  12  13
ATOM     13  C   UNL     1       6.938   4.260  13.313  0.00  0.00    +0.000 C 
BRANCH  13  17
ATOM     14  C   UNL     1       4.426   2.673  11.277  0.00  0.00    +0.000 A 
ATOM     15  C   UNL     1       5.580   1.873  11.154  0.00  0.00    +0.000 A 
ATOM     16  N   UNL     1       6.602   2.346  11.870  0.00  0.00    +0.000 NA
ATOM     17  N   UNL     1       6.097   3.450  12.451  0.00  0.00    +0.000 N 
ATOM     18  C   UNL     1       4.795   3.689  12.125  0.00  0.00    +0.000 A 
ENDBRANCH  13  17
ENDBRANCH  12  13
ENDBRANCH  11  12
ENDBRANCH  10  11
ENDBRANCH   1  10
BRANCH   9  19
ATOM     19  C   UNL     1       2.562   4.738  18.263  0.00  0.00    +0.000 C 
BRANCH  19  20
ATOM     20  C   UNL     1       1.309   4.054  18.850  0.00  0.00    +0.000 C 
ATOM     21  C   UNL     1       1.307   2.535  18.620  0.00  0.00    +0.000 C 
ATOM     22  C   UNL     1       2.150   1.804  19.656  0.00  0.00    +0.000 C 
ATOM     23  O   UNL     1       1.696   2.117  20.973  0.00  0.00    +0.000 OA
ATOM     24  C   UNL     1       1.869   3.495  21.285  0.00  0.00    +0.000 C 
ATOM     25  C   UNL     1       1.076   4.377  20.334  0.00  0.00    +0.000 C 
ENDBRANCH  19  20
ENDBRANCH   9  19
TORSDOF 7
ENDMDL
MODEL 4
REMARK VINA RESULT:      -6.9      1.068      1.399
REMARK  Name = 
REMARK  7 active torsions:
REMARK  status: ('A' for Active; 'I' for Inactive)
REMARK    1  A    between atoms: N_4  and  C_5
REMARK    2  A    between atoms: C_5  and  C_6
REMARK    3  A    between atoms: C_6  and  C_7
REMARK    4  A    between atoms: C_7  and  O_8
REMARK    5  A    between atoms: O_8  and  C_9
REMARK    6  A    between atoms: N_17  and  C_18
REMARK    7  A    between atoms: C_18  and  C_19
REMARK                            x       y       z     vdW  Elec       q    Type
REMARK                         _______ _______ _______ _____ _____    ______ ____
ROOT
ATOM      1  C   UNL     1       7.027   5.989  17.055  0.00  0.00    +0.000 C 
ATOM      2  C   UNL     1       7.495   4.761  17.847  0.00  0.00    +0.000 C 
ATOM      3  C   UNL     1       6.468   4.517  18.961  0.00  0.00    +0.000 C 
ATOM      4  C   UNL     1       5.362   5.551  18.730  0.00  0.00    +0.000 C 
ATOM      5  C   UNL     1       5.515   6.008  17.279  0.00  0.00    +0.000 C 
ATOM      6  O   UNL     1       4.961   7.325  17.145  0.00  0.00    +0.000 OA
ATOM      7  C   UNL     1       3.567   7.315  17.489  0.00  0.00    +0.000 C 
ATOM      8  C   UNL     1       3.296   6.688  18.883  0.00  0.00    +0.000 C 
ATOM      9  N   UNL     1       3.938   5.348  19.106  0.00  0.00    +0.000 NA
ENDROOT
BRANCH   1  10
ATOM     10  O   UNL     1       7.369   5.801  15.677  0.00  0.00    +0.000 OA
BRANCH  10  11
ATOM     11  C   UNL     1       7.000   4.516  15.176  0.00  0.00    +0.000 C 
BRANCH  11  12
ATOM     12  C   UNL     1       6.159   4.703  13.924  0.00  0.00    +0.000 C 
BRANCH  12  13
ATOM     13  C   UNL     1       7.012   4.505  12.674  0.00  0.00    +0.000 C 
BRANCH  13  17
ATOM     14  C   UNL     1       6.842   1.391  10.871  0.00  0.00    +0.000 A 
ATOM     15  C   UNL     1       5.539   1.624  11.358  0.00  0.00    +0.000 A 
ATOM     16  N   UNL     1       5.454   2.761  12.050  0.00  0.00    +0.000 NA
ATOM     17  N   UNL     1       6.705   3.255  12.003  0.00  0.00    +0.000 N 
ATOM     18  C   UNL     1       7.574   2.469  11.308  0.00  0.00    +0.000 A 
ENDBRANCH  13  17
ENDBRANCH  12  13
ENDBRANCH  11  12
ENDBRANCH  10  11
ENDBRANCH   1  10
BRANCH   9  19
ATOM     19  C   UNL     1       3.177   4.320  18.346  0.00  0.00    +0.000 C 
BRANCH  19  20
ATOM     20  C   UNL     1       3.046   2.936  19.017  0.00  0.00    +0.000 C 
ATOM     21  C   UNL     1       3.322   2.988  20.527  0.00  0.00    +0.000 C 
ATOM     22  C   UNL     1       2.099   3.446  21.311  0.00  0.00    +0.000 C 
ATOM     23  O   UNL     1       0.985   2.599  21.029  0.00  0.00    +0.000 OA
ATOM     24  C   UNL     1       0.583   2.680  19.666  0.00  0.00    +0.000 C 
ATOM     25  C   UNL     1       1.704   2.245  18.736  0.00  0.00    +0.000 C 
ENDBRANCH  19  20
ENDBRANCH   9  19
TORSDOF 7
ENDMDL
MODEL 5
REMARK VINA RESULT:      -6.7      2.302      6.885
REMARK  Name = 
REMARK  7 active torsions:
REMARK  status: ('A' for Active; 'I' for Inactive)
REMARK    1  A    between atoms: N_4  and  C_5
REMARK    2  A    between atoms: C_5  and  C_6
REMARK    3  A    between atoms: C_6  and  C_7
REMARK    4  A    between atoms: C_7  and  O_8
REMARK    5  A    between atoms: O_8  and  C_9
REMARK    6  A    between atoms: N_17  and  C_18
REMARK    7  A    between atoms: C_18  and  C_19
REMARK                            x       y       z     vdW  Elec       q    Type
REMARK                         _______ _______ _______ _____ _____    ______ ____
ROOT
ATOM      1  C   UNL     1       3.259   6.378  18.829  0.00  0.00    +0.000 C 
ATOM      2  C   UNL     1       2.749   7.485  17.897  0.00  0.00    +0.000 C 
ATOM      3  C   UNL     1       3.921   7.899  16.996  0.00  0.00    +0.000 C 
ATOM      4  C   UNL     1       5.066   6.947  17.354  0.00  0.00    +0.000 C 
ATOM      5  C   UNL     1       4.414   5.752  18.048  0.00  0.00    +0.000 C 
ATOM      6  O   UNL     1       5.379   5.129  18.908  0.00  0.00    +0.000 OA
ATOM      7  C   UNL     1       6.505   4.670  18.143  0.00  0.00    +0.000 C 
ATOM      8  C   UNL     1       7.121   5.783  17.254  0.00  0.00    +0.000 C 
ATOM      9  N   UNL     1       6.131   6.530  16.404  0.00  0.00    +0.000 NA
ENDROOT
BRANCH   1  10
ATOM     10  O   UNL     1       2.194   5.449  19.061  0.00  0.00    +0.000 OA
BRANCH  10  11
ATOM     11  C   UNL     1       1.857   5.312  20.442  0.00  0.00    +0.000 C 
BRANCH  11  12
ATOM     12  C   UNL     1       0.830   4.202  20.586  0.00  0.00    +0.000 C 
BRANCH  12  13
ATOM     13  C   UNL     1       1.492   2.925  21.098  0.00  0.00    +0.000 C 
BRANCH  13  17
ATOM     14  C   UNL     1       3.486   1.605  18.405  0.00  0.00    +0.000 A 
ATOM     15  C   UNL     1       4.392   1.902  19.443  0.00  0.00    +0.000 A 
ATOM     16  N   UNL     1       3.782   2.400  20.520  0.00  0.00    +0.000 NA
ATOM     17  N   UNL     1       2.484   2.420  20.167  0.00  0.00    +0.000 N 
ATOM     18  C   UNL     1       2.256   1.953  18.907  0.00  0.00    +0.000 A 
ENDBRANCH  13  17
ENDBRANCH  12  13
ENDBRANCH  11  12
ENDBRANCH  10  11
ENDBRANCH   1  10
BRANCH   9  19
ATOM     19  C   UNL     1       5.724   5.660  15.268  0.00  0.00    +0.000 C 
BRANCH  19  20
ATOM     20  C   UNL     1       6.754   4.602  14.819  0.00  0.00    +0.000 C 
ATOM     21  C   UNL     1       6.093   3.370  14.184  0.00  0.00    +0.000 C 
ATOM     22  C   UNL     1       5.748   3.606  12.719  0.00  0.00    +0.000 C 
ATOM     23  O   UNL     1       6.914   3.985  11.990  0.00  0.00    +0.000 OA
ATOM     24  C   UNL     1       7.440   5.231  12.434  0.00  0.00    +0.000 C 
ATOM     25  C   UNL     1       7.847   5.165  13.898  0.00  0.00    +0.000 C 
ENDBRANCH  19  20
ENDBRANCH   9  19
TORSDOF 7
ENDMDL
MODEL 6
REMARK VINA RESULT:      -6.7      4.563      6.779
REMARK  Name = 
REMARK  7 active torsions:
REMARK  status: ('A' for Active; 'I' for Inactive)
REMARK    1  A    between atoms: N_4  and  C_5
REMARK    2  A    between atoms: C_5  and  C_6
REMARK    3  A    between atoms: C_6  and  C_7
REMARK    4  A    between atoms: C_7  and  O_8
REMARK    5  A    between atoms: O_8  and  C_9
REMARK    6  A    between atoms: N_17  and  C_18
REMARK    7  A    between atoms: C_18  and  C_19
REMARK                            x       y       z     vdW  Elec       q    Type
REMARK                         _______ _______ _______ _____ _____    ______ ____
ROOT
ATOM      1  C   UNL     1       7.306   6.534  17.593  0.00  0.00    +0.000 C 
ATOM      2  C   UNL     1       6.402   7.335  16.646  0.00  0.00    +0.000 C 
ATOM      3  C   UNL     1       5.103   6.536  16.470  0.00  0.00    +0.000 C 
ATOM      4  C   UNL     1       5.236   5.331  17.405  0.00  0.00    +0.000 C 
ATOM      5  C   UNL     1       6.321   5.704  18.415  0.00  0.00    +0.000 C 
ATOM      6  O   UNL     1       6.915   4.501  18.925  0.00  0.00    +0.000 OA
ATOM      7  C   UNL     1       5.922   3.694  19.579  0.00  0.00    +0.000 C 
ATOM      8  C   UNL     1       4.685   3.420  18.682  0.00  0.00    +0.000 C 
ATOM      9  N   UNL     1       4.085   4.643  18.047  0.00  0.00    +0.000 NA
ENDROOT
BRANCH   1  10
ATOM     10  O   UNL     1       8.048   7.453  18.403  0.00  0.00    +0.000 OA
BRANCH  10  11
ATOM     11  C   UNL     1       8.100   8.770  17.854  0.00  0.00    +0.000 C 
BRANCH  11  12
ATOM     12  C   UNL     1       8.840   9.675  18.825  0.00  0.00    +0.000 C 
BRANCH  12  13
ATOM     13  C   UNL     1       9.051  11.057  18.213  0.00  0.00    +0.000 C 
BRANCH  13  17
ATOM     14  C   UNL     1      12.198  12.170  19.567  0.00  0.00    +0.000 A 
ATOM     15  C   UNL     1      12.210  12.548  18.208  0.00  0.00    +0.000 A 
ATOM     16  N   UNL     1      11.088  12.198  17.576  0.00  0.00    +0.000 NA
ATOM     17  N   UNL     1      10.360  11.596  18.534  0.00  0.00    +0.000 N 
ATOM     18  C   UNL     1      10.983  11.554  19.746  0.00  0.00    +0.000 A 
ENDBRANCH  13  17
ENDBRANCH  12  13
ENDBRANCH  11  12
ENDBRANCH  10  11
ENDBRANCH   1  10
BRANCH   9  19
ATOM     19  C   UNL     1       3.334   5.401  19.085  0.00  0.00    +0.000 C 
BRANCH  19  20
ATOM     20  C   UNL     1       1.799   5.246  19.061  0.00  0.00    +0.000 C 
ATOM     21  C   UNL     1       1.321   4.302  17.948  0.00  0.00    +0.000 C 
ATOM     22  C   UNL     1       1.428   2.840  18.362  0.00  0.00    +0.000 C 
ATOM     23  O   UNL     1       0.698   2.611  19.566  0.00  0.00    +0.000 OA
ATOM     24  C   UNL     1       1.244   3.331  20.667  0.00  0.00    +0.000 C 
ATOM     25  C   UNL     1       1.206   4.829  20.416  0.00  0.00    +0.000 C 
ENDBRANCH  19  20
ENDBRANCH   9  19
TORSDOF 7
ENDMDL
MODEL 7
REMARK VINA RESULT:      -6.7      0.815      1.093
REMARK  Name = 
REMARK  7 active torsions:
REMARK  status: ('A' for Active; 'I' for Inactive)
REMARK    1  A    between atoms: N_4  and  C_5
REMARK    2  A    between atoms: C_5  and  C_6
REMARK    3  A    between atoms: C_6  and  C_7
REMARK    4  A    between atoms: C_7  and  O_8
REMARK    5  A    between atoms: O_8  and  C_9
REMARK    6  A    between atoms: N_17  and  C_18
REMARK    7  A    between atoms: C_18  and  C_19
REMARK                            x       y       z     vdW  Elec       q    Type
REMARK                         _______ _______ _______ _____ _____    ______ ____
ROOT
ATOM      1  C   UNL     1       5.872   6.211  16.828  0.00  0.00    +0.000 C 
ATOM      2  C   UNL     1       6.406   4.862  17.328  0.00  0.00    +0.000 C 
ATOM      3  C   UNL     1       5.575   4.469  18.558  0.00  0.00    +0.000 C 
ATOM      4  C   UNL     1       4.500   5.553  18.687  0.00  0.00    +0.000 C 
ATOM      5  C   UNL     1       4.424   6.230  17.318  0.00  0.00    +0.000 C 
ATOM      6  O   UNL     1       3.923   7.564  17.487  0.00  0.00    +0.000 OA
ATOM      7  C   UNL     1       2.610   7.533  18.069  0.00  0.00    +0.000 C 
ATOM      8  C   UNL     1       2.553   6.700  19.377  0.00  0.00    +0.000 C 
ATOM      9  N   UNL     1       3.154   5.326  19.275  0.00  0.00    +0.000 NA
ENDROOT
BRANCH   1  10
ATOM     10  O   UNL     1       5.960   6.236  15.399  0.00  0.00    +0.000 OA
BRANCH  10  11
ATOM     11  C   UNL     1       6.657   5.113  14.859  0.00  0.00    +0.000 C 
BRANCH  11  12
ATOM     12  C   UNL     1       6.089   4.800  13.484  0.00  0.00    +0.000 C 
BRANCH  12  13
ATOM     13  C   UNL     1       7.172   4.219  12.580  0.00  0.00    +0.000 C 
BRANCH  13  17
ATOM     14  C   UNL     1       5.518   1.359  11.143  0.00  0.00    +0.000 A 
ATOM     15  C   UNL     1       6.869   1.257  10.752  0.00  0.00    +0.000 A 
ATOM     16  N   UNL     1       7.609   2.261  11.224  0.00  0.00    +0.000 NA
ATOM     17  N   UNL     1       6.728   3.005  11.919  0.00  0.00    +0.000 N 
ATOM     18  C   UNL     1       5.461   2.504  11.899  0.00  0.00    +0.000 A 
ENDBRANCH  13  17
ENDBRANCH  12  13
ENDBRANCH  11  12
ENDBRANCH  10  11
ENDBRANCH   1  10
BRANCH   9  19
ATOM     19  C   UNL     1       2.221   4.450  18.516  0.00  0.00    +0.000 C 
BRANCH  19  20
ATOM     20  C   UNL     1       1.706   3.200  19.261  0.00  0.00    +0.000 C 
ATOM     21  C   UNL     1       2.783   2.114  19.398  0.00  0.00    +0.000 C 
ATOM     22  C   UNL     1       3.715   2.386  20.572  0.00  0.00    +0.000 C 
ATOM     23  O   UNL     1       2.966   2.512  21.780  0.00  0.00    +0.000 OA
ATOM     24  C   UNL     1       2.093   3.636  21.753  0.00  0.00    +0.000 C 
ATOM     25  C   UNL     1       1.079   3.517  20.627  0.00  0.00    +0.000 C 
ENDBRANCH  19  20
ENDBRANCH   9  19
TORSDOF 7
ENDMDL
MODEL 8
REMARK VINA RESULT:      -6.5      0.864      1.033
REMARK  Name = 
REMARK  7 active torsions:
REMARK  status: ('A' for Active; 'I' for Inactive)
REMARK    1  A    between atoms: N_4  and  C_5
REMARK    2  A    between atoms: C_5  and  C_6
REMARK    3  A    between atoms: C_6  and  C_7
REMARK    4  A    between atoms: C_7  and  O_8
REMARK    5  A    between atoms: O_8  and  C_9
REMARK    6  A    between atoms: N_17  and  C_18
REMARK    7  A    between atoms: C_18  and  C_19
REMARK                            x       y       z     vdW  Elec       q    Type
REMARK                         _______ _______ _______ _____ _____    ______ ____
ROOT
ATOM      1  C   UNL     1       5.865   5.839  16.476  0.00  0.00    +0.000 C 
ATOM      2  C   UNL     1       6.148   4.440  17.039  0.00  0.00    +0.000 C 
ATOM      3  C   UNL     1       5.259   4.257  18.277  0.00  0.00    +0.000 C 
ATOM      4  C   UNL     1       4.395   5.519  18.348  0.00  0.00    +0.000 C 
ATOM      5  C   UNL     1       4.443   6.138  16.951  0.00  0.00    +0.000 C 
ATOM      6  O   UNL     1       4.188   7.546  17.057  0.00  0.00    +0.000 OA
ATOM      7  C   UNL     1       2.890   7.775  17.627  0.00  0.00    +0.000 C 
ATOM      8  C   UNL     1       2.683   7.025  18.970  0.00  0.00    +0.000 C 
ATOM      9  N   UNL     1       3.029   5.563  18.934  0.00  0.00    +0.000 NA
ENDROOT
BRANCH   1  10
ATOM     10  O   UNL     1       5.959   5.784  15.048  0.00  0.00    +0.000 OA
BRANCH  10  11
ATOM     11  C   UNL     1       6.428   4.526  14.563  0.00  0.00    +0.000 C 
BRANCH  11  12
ATOM     12  C   UNL     1       7.630   4.766  13.665  0.00  0.00    +0.000 C 
BRANCH  12  13
ATOM     13  C   UNL     1       7.211   4.750  12.198  0.00  0.00    +0.000 C 
BRANCH  13  17
ATOM     14  C   UNL     1       6.638   1.373  11.082  0.00  0.00    +0.000 A 
ATOM     15  C   UNL     1       5.368   1.890  11.411  0.00  0.00    +0.000 A 
ATOM     16  N   UNL     1       5.430   3.151  11.839  0.00  0.00    +0.000 NA
ATOM     17  N   UNL     1       6.743   3.440  11.784  0.00  0.00    +0.000 N 
ATOM     18  C   UNL     1       7.509   2.405  11.336  0.00  0.00    +0.000 A 
ENDBRANCH  13  17
ENDBRANCH  12  13
ENDBRANCH  11  12
ENDBRANCH  10  11
ENDBRANCH   1  10
BRANCH   9  19
ATOM     19  C   UNL     1       1.956   4.835  18.205  0.00  0.00    +0.000 C 
BRANCH  19  20
ATOM     20  C   UNL     1       1.029   3.951  19.066  0.00  0.00    +0.000 C 
ATOM     21  C   UNL     1       1.276   2.451  18.845  0.00  0.00    +0.000 C 
ATOM     22  C   UNL     1       2.460   1.947  19.661  0.00  0.00    +0.000 C 
ATOM     23  O   UNL     1       2.262   2.228  21.046  0.00  0.00    +0.000 OA
ATOM     24  C   UNL     1       2.223   3.626  21.307  0.00  0.00    +0.000 C 
ATOM     25  C   UNL     1       1.077   4.292  20.563  0.00  0.00    +0.000 C 
ENDBRANCH  19  20
ENDBRANCH   9  19
TORSDOF 7
ENDMDL
MODEL 9
REMARK VINA RESULT:      -6.5      7.786     10.192
REMARK  Name = 
REMARK  7 active torsions:
REMARK  status: ('A' for Active; 'I' for Inactive)
REMARK    1  A    between atoms: N_4  and  C_5
REMARK    2  A    between atoms: C_5  and  C_6
REMARK    3  A    between atoms: C_6  and  C_7
REMARK    4  A    between atoms: C_7  and  O_8
REMARK    5  A    between atoms: O_8  and  C_9
REMARK    6  A    between atoms: N_17  and  C_18
REMARK    7  A    between atoms: C_18  and  C_19
REMARK                            x       y       z     vdW  Elec       q    Type
REMARK                         _______ _______ _______ _____ _____    ______ ____
ROOT
ATOM      1  C   UNL     1       9.666  10.586  18.933  0.00  0.00    +0.000 C 
ATOM      2  C   UNL     1       9.330  10.654  20.429  0.00  0.00    +0.000 C 
ATOM      3  C   UNL     1       9.911  11.969  20.968  0.00  0.00    +0.000 C 
ATOM      4  C   UNL     1      10.486  12.692  19.746  0.00  0.00    +0.000 C 
ATOM      5  C   UNL     1       9.817  12.052  18.530  0.00  0.00    +0.000 C 
ATOM      6  O   UNL     1      10.670  12.218  17.388  0.00  0.00    +0.000 OA
ATOM      7  C   UNL     1      10.884  13.615  17.126  0.00  0.00    +0.000 C 
ATOM      8  C   UNL     1      11.390  14.389  18.373  0.00  0.00    +0.000 C 
ATOM      9  N   UNL     1      10.581  14.170  19.621  0.00  0.00    +0.000 NA
ENDROOT
BRANCH   1  10
ATOM     10  O   UNL     1       8.584   9.943  18.250  0.00  0.00    +0.000 OA
BRANCH  10  11
ATOM     11  C   UNL     1       8.477   8.551  18.550  0.00  0.00    +0.000 C 
BRANCH  11  12
ATOM     12  C   UNL     1       7.672   7.876  17.452  0.00  0.00    +0.000 C 
BRANCH  12  13
ATOM     13  C   UNL     1       7.101   6.550  17.948  0.00  0.00    +0.000 C 
BRANCH  13  17
ATOM     14  C   UNL     1       6.267   3.907  15.646  0.00  0.00    +0.000 A 
ATOM     15  C   UNL     1       7.093   4.796  14.927  0.00  0.00    +0.000 A 
ATOM     16  N   UNL     1       7.486   5.833  15.669  0.00  0.00    +0.000 NA
ATOM     17  N   UNL     1       6.910   5.605  16.863  0.00  0.00    +0.000 N 
ATOM     18  C   UNL     1       6.168   4.463  16.899  0.00  0.00    +0.000 A 
ENDBRANCH  13  17
ENDBRANCH  12  13
ENDBRANCH  11  12
ENDBRANCH  10  11
ENDBRANCH   1  10
BRANCH   9  19
ATOM     19  C   UNL     1       9.304  14.924  19.502  0.00  0.00    +0.000 C 
BRANCH  19  20
ATOM     20  C   UNL     1       9.427  16.407  19.092  0.00  0.00    +0.000 C 
ATOM     21  C   UNL     1       8.342  16.832  18.091  0.00  0.00    +0.000 C 
ATOM     22  C   UNL     1       7.029  17.167  18.786  0.00  0.00    +0.000 C 
ATOM     23  O   UNL     1       7.235  18.182  19.769  0.00  0.00    +0.000 OA
ATOM     24  C   UNL     1       8.090  17.743  20.819  0.00  0.00    +0.000 C 
ATOM     25  C   UNL     1       9.464  17.370  20.289  0.00  0.00    +0.000 C 
ENDBRANCH  19  20
ENDBRANCH   9  19
TORSDOF 7
ENDMDL
