MODEL 1
REMARK VINA RESULT:      -7.2      0.000      0.000
REMARK  Name = 
REMARK  10 active torsions:
REMARK  status: ('A' for Active; 'I' for Inactive)
REMARK    1  A    between atoms: C_1  and  N_2
REMARK    2  A    between atoms: C_3  and  C_5
REMARK    3  A    between atoms: C_5  and  C_7
REMARK    4  A    between atoms: C_7  and  C_8
REMARK    5  A    between atoms: C_8  and  C_9
REMARK    6  A    between atoms: C_9  and  C_10
REMARK    7  A    between atoms: C_10  and  C_11
REMARK    8  A    between atoms: C_11  and  C_12
REMARK    9  A    between atoms: C_12  and  C_13
REMARK   10  A    between atoms: C_16  and  C_17
REMARK                            x       y       z     vdW  Elec       q    Type
REMARK                         _______ _______ _______ _____ _____    ______ ____
ROOT
ATOM      1  C   UNL     1       3.309   5.517  17.788  0.00  0.00    +0.000 C 
ENDROOT
BRANCH   1   2
ATOM      2  C   UNL     1       2.227   6.422  18.385  0.00  0.00    +0.000 C 
BRANCH   2   3
ATOM      3  C   UNL     1       2.436   6.697  19.875  0.00  0.00    +0.000 C 
BRANCH   3   4
ATOM      4  C   UNL     1       2.410   5.410  20.696  0.00  0.00    +0.000 C 
BRANCH   4   5
ATOM      5  C   UNL     1       1.085   4.675  20.511  0.00  0.00    +0.000 C 
BRANCH   5   6
ATOM      6  C   UNL     1       1.253   3.178  20.609  0.00  0.00    +0.000 C 
ATOM      7  O   UNL     1       1.102   2.513  21.629  0.00  0.00    +0.000 OA
BRANCH   6  10
ATOM      8  C   UNL     1       3.550   1.492  18.103  0.00  0.00    +0.000 C 
ATOM      9  N   UNL     1       2.985   2.158  19.242  0.00  0.00    +0.000 N 
ATOM     10  C   UNL     1       1.647   2.466  19.313  0.00  0.00    +0.000 C 
ATOM     11  O   UNL     1       0.809   2.217  18.460  0.00  0.00    +0.000 OA
ATOM     12  H   UNL     1       3.565   2.430  20.033  0.00  0.00    +0.000 HD
ENDBRANCH   6  10
ENDBRANCH   5   6
ENDBRANCH   4   5
ENDBRANCH   3   4
ENDBRANCH   2   3
ENDBRANCH   1   2
BRANCH   1  13
ATOM     13  C   UNL     1       4.638   5.596  18.539  0.00  0.00    +0.000 C 
BRANCH  13  14
ATOM     14  C   UNL     1       5.773   5.208  17.677  0.00  0.00    +0.000 A 
ATOM     15  C   UNL     1       7.075   4.840  17.916  0.00  0.00    +0.000 A 
ATOM     16  N   UNL     1       7.703   4.553  16.734  0.00  0.00    +0.000 NA
ATOM     17  C   UNL     1       6.770   4.746  15.819  0.00  0.00    +0.000 A 
ATOM     18  O   UNL     1       5.563   5.155  16.329  0.00  0.00    +0.000 OA
BRANCH  17  19
ATOM     19  C   UNL     1       6.852   4.564  14.374  0.00  0.00    +0.000 A 
ATOM     20  C   UNL     1       7.758   5.338  13.634  0.00  0.00    +0.000 A 
ATOM     21  C   UNL     1       7.878   5.176  12.253  0.00  0.00    +0.000 A 
ATOM     22  C   UNL     1       7.093   4.235  11.593  0.00  0.00    +0.000 A 
ATOM     23  C   UNL     1       6.183   3.461  12.312  0.00  0.00    +0.000 A 
ATOM     24  C   UNL     1       6.061   3.625  13.693  0.00  0.00    +0.000 A 
ENDBRANCH  17  19
ENDBRANCH  13  14
ENDBRANCH   1  13
TORSDOF 9
ENDMDL
MODEL 2
REMARK VINA RESULT:      -7.1      6.030      9.347
REMARK  Name = 
REMARK  10 active torsions:
REMARK  status: ('A' for Active; 'I' for Inactive)
REMARK    1  A    between atoms: C_1  and  N_2
REMARK    2  A    between atoms: C_3  and  C_5
REMARK    3  A    between atoms: C_5  and  C_7
REMARK    4  A    between atoms: C_7  and  C_8
REMARK    5  A    between atoms: C_8  and  C_9
REMARK    6  A    between atoms: C_9  and  C_10
REMARK    7  A    between atoms: C_10  and  C_11
REMARK    8  A    between atoms: C_11  and  C_12
REMARK    9  A    between atoms: C_12  and  C_13
REMARK   10  A    between atoms: C_16  and  C_17
REMARK                            x       y       z     vdW  Elec       q    Type
REMARK                         _______ _______ _______ _____ _____    ______ ____
ROOT
ATOM      1  C   UNL     1       7.654   8.372  17.538  0.00  0.00    +0.000 C 
ENDROOT
BRANCH   1   2
ATOM      2  C   UNL     1       8.435   9.668  17.777  0.00  0.00    +0.000 C 
BRANCH   2   3
ATOM      3  C   UNL     1       9.004   9.769  19.192  0.00  0.00    +0.000 C 
BRANCH   3   4
ATOM      4  C   UNL     1      10.019  10.904  19.314  0.00  0.00    +0.000 C 
BRANCH   4   5
ATOM      5  C   UNL     1      10.178  11.633  17.982  0.00  0.00    +0.000 C 
BRANCH   5   6
ATOM      6  C   UNL     1       9.623  13.035  18.038  0.00  0.00    +0.000 C 
ATOM      7  O   UNL     1       8.438  13.324  18.170  0.00  0.00    +0.000 OA
BRANCH   6  10
ATOM      8  C   UNL     1      11.105  16.296  16.787  0.00  0.00    +0.000 C 
ATOM      9  N   UNL     1      10.274  15.154  17.040  0.00  0.00    +0.000 N 
ATOM     10  C   UNL     1      10.650  14.164  17.917  0.00  0.00    +0.000 C 
ATOM     11  O   UNL     1      11.686  14.135  18.564  0.00  0.00    +0.000 OA
ATOM     12  H   UNL     1       9.379  15.041  16.571  0.00  0.00    +0.000 HD
ENDBRANCH   6  10
ENDBRANCH   5   6
ENDBRANCH   4   5
ENDBRANCH   3   4
ENDBRANCH   2   3
ENDBRANCH   1   2
BRANCH   1  13
ATOM     13  C   UNL     1       8.052   7.248  18.496  0.00  0.00    +0.000 C 
BRANCH  13  14
ATOM     14  C   UNL     1       7.330   5.995  18.192  0.00  0.00    +0.000 A 
ATOM     15  C   UNL     1       7.721   4.711  17.899  0.00  0.00    +0.000 A 
ATOM     16  N   UNL     1       6.620   3.917  17.724  0.00  0.00    +0.000 NA
ATOM     17  C   UNL     1       5.600   4.733  17.922  0.00  0.00    +0.000 A 
ATOM     18  O   UNL     1       5.965   6.025  18.209  0.00  0.00    +0.000 OA
BRANCH  17  19
ATOM     19  C   UNL     1       4.172   4.437  17.898  0.00  0.00    +0.000 A 
ATOM     20  C   UNL     1       3.748   3.108  17.745  0.00  0.00    +0.000 A 
ATOM     21  C   UNL     1       2.390   2.785  17.738  0.00  0.00    +0.000 A 
ATOM     22  C   UNL     1       1.437   3.788  17.885  0.00  0.00    +0.000 A 
ATOM     23  C   UNL     1       1.840   5.115  18.033  0.00  0.00    +0.000 A 
ATOM     24  C   UNL     1       3.199   5.438  18.038  0.00  0.00    +0.000 A 
ENDBRANCH  17  19
ENDBRANCH  13  14
ENDBRANCH   1  13
TORSDOF 9
ENDMDL
MODEL 3
REMARK VINA RESULT:      -6.9      3.232      5.165
REMARK  Name = 
REMARK  10 active torsions:
REMARK  status: ('A' for Active; 'I' for Inactive)
REMARK    1  A    between atoms: C_1  and  N_2
REMARK    2  A    between atoms: C_3  and  C_5
REMARK    3  A    between atoms: C_5  and  C_7
REMARK    4  A    between atoms: C_7  and  C_8
REMARK    5  A    between atoms: C_8  and  C_9
REMARK    6  A    between atoms: C_9  and  C_10
REMARK    7  A    between atoms: C_10  and  C_11
REMARK    8  A    between atoms: C_11  and  C_12
REMARK    9  A    between atoms: C_12  and  C_13
REMARK   10  A    between atoms: C_16  and  C_17
REMARK                            x       y       z     vdW  Elec       q    Type
REMARK                         _______ _______ _______ _____ _____    ______ ____
ROOT
ATOM      1  C   UNL     1       1.125   2.055  18.796  0.00  0.00    +0.000 C 
ENDROOT
BRANCH   1   2
ATOM      2  C   UNL     1       0.778   3.342  19.550  0.00  0.00    +0.000 C 
BRANCH   2   3
ATOM      3  C   UNL     1       1.436   3.422  20.928  0.00  0.00    +0.000 C 
BRANCH   3   4
ATOM      4  C   UNL     1       2.034   4.802  21.190  0.00  0.00    +0.000 C 
BRANCH   4   5
ATOM      5  C   UNL     1       1.140   5.898  20.614  0.00  0.00    +0.000 C 
BRANCH   5   6
ATOM      6  C   UNL     1       1.939   7.093  20.156  0.00  0.00    +0.000 C 
ATOM      7  O   UNL     1       2.920   7.049  19.420  0.00  0.00    +0.000 OA
BRANCH   6  10
ATOM      8  C   UNL     1       0.555  10.620  19.957  0.00  0.00    +0.000 C 
ATOM      9  N   UNL     1       1.037   9.298  19.675  0.00  0.00    +0.000 N 
ATOM     10  C   UNL     1       1.462   8.452  20.672  0.00  0.00    +0.000 C 
ATOM     11  O   UNL     1       1.476   8.704  21.867  0.00  0.00    +0.000 OA
ATOM     12  H   UNL     1       1.084   8.948  18.720  0.00  0.00    +0.000 HD
ENDBRANCH   6  10
ENDBRANCH   5   6
ENDBRANCH   4   5
ENDBRANCH   3   4
ENDBRANCH   2   3
ENDBRANCH   1   2
BRANCH   1  13
ATOM     13  C   UNL     1       2.268   2.237  17.796  0.00  0.00    +0.000 C 
BRANCH  13  14
ATOM     14  C   UNL     1       3.484   2.762  18.451  0.00  0.00    +0.000 A 
ATOM     15  C   UNL     1       4.243   2.362  19.525  0.00  0.00    +0.000 A 
ATOM     16  N   UNL     1       5.301   3.214  19.691  0.00  0.00    +0.000 NA
ATOM     17  C   UNL     1       5.160   4.096  18.717  0.00  0.00    +0.000 A 
ATOM     18  O   UNL     1       4.062   3.880  17.922  0.00  0.00    +0.000 OA
BRANCH  17  19
ATOM     19  C   UNL     1       6.015   5.228  18.376  0.00  0.00    +0.000 A 
ATOM     20  C   UNL     1       5.629   6.091  17.339  0.00  0.00    +0.000 A 
ATOM     21  C   UNL     1       6.412   7.196  16.999  0.00  0.00    +0.000 A 
ATOM     22  C   UNL     1       7.591   7.452  17.692  0.00  0.00    +0.000 A 
ATOM     23  C   UNL     1       7.993   6.601  18.721  0.00  0.00    +0.000 A 
ATOM     24  C   UNL     1       7.211   5.495  19.060  0.00  0.00    +0.000 A 
ENDBRANCH  17  19
ENDBRANCH  13  14
ENDBRANCH   1  13
TORSDOF 9
ENDMDL
MODEL 4
REMARK VINA RESULT:      -6.9      3.928      7.981
REMARK  Name = 
REMARK  10 active torsions:
REMARK  status: ('A' for Active; 'I' for Inactive)
REMARK    1  A    between atoms: C_1  and  N_2
REMARK    2  A    between atoms: C_3  and  C_5
REMARK    3  A    between atoms: C_5  and  C_7
REMARK    4  A    between atoms: C_7  and  C_8
REMARK    5  A    between atoms: C_8  and  C_9
REMARK    6  A    between atoms: C_9  and  C_10
REMARK    7  A    between atoms: C_10  and  C_11
REMARK    8  A    between atoms: C_11  and  C_12
REMARK    9  A    between atoms: C_12  and  C_13
REMARK   10  A    between atoms: C_16  and  C_17
REMARK                            x       y       z     vdW  Elec       q    Type
REMARK                         _______ _______ _______ _____ _____    ______ ____
ROOT
ATOM      1  C   UNL     1       1.983   5.421  19.004  0.00  0.00    +0.000 C 
ENDROOT
BRANCH   1   2
ATOM      2  C   UNL     1       1.584   5.140  20.456  0.00  0.00    +0.000 C 
BRANCH   2   3
ATOM      3  C   UNL     1       2.400   4.014  21.092  0.00  0.00    +0.000 C 
BRANCH   3   4
ATOM      4  C   UNL     1       1.941   2.641  20.607  0.00  0.00    +0.000 C 
BRANCH   4   5
ATOM      5  C   UNL     1       2.829   2.143  19.469  0.00  0.00    +0.000 C 
BRANCH   5   6
ATOM      6  C   UNL     1       4.291   2.403  19.741  0.00  0.00    +0.000 C 
ATOM      7  O   UNL     1       4.957   1.855  20.613  0.00  0.00    +0.000 OA
BRANCH   6  10
ATOM      8  C   UNL     1       5.129   4.213  16.514  0.00  0.00    +0.000 C 
ATOM      9  N   UNL     1       4.602   3.332  17.517  0.00  0.00    +0.000 N 
ATOM     10  C   UNL     1       4.962   3.441  18.839  0.00  0.00    +0.000 C 
ATOM     11  O   UNL     1       5.733   4.266  19.307  0.00  0.00    +0.000 OA
ATOM     12  H   UNL     1       3.948   2.592  17.275  0.00  0.00    +0.000 HD
ENDBRANCH   6  10
ENDBRANCH   5   6
ENDBRANCH   4   5
ENDBRANCH   3   4
ENDBRANCH   2   3
ENDBRANCH   1   2
BRANCH   1  13
ATOM     13  C   UNL     1       2.911   6.628  18.860  0.00  0.00    +0.000 C 
BRANCH  13  14
ATOM     14  C   UNL     1       2.158   7.899  18.902  0.00  0.00    +0.000 A 
ATOM     15  C   UNL     1       1.866   8.870  17.976  0.00  0.00    +0.000 A 
ATOM     16  N   UNL     1       1.096   9.846  18.549  0.00  0.00    +0.000 NA
ATOM     17  C   UNL     1       0.937   9.438  19.796  0.00  0.00    +0.000 A 
ATOM     18  O   UNL     1       1.568   8.253  20.081  0.00  0.00    +0.000 OA
BRANCH  17  19
ATOM     19  C   UNL     1       0.178  10.062  20.874  0.00  0.00    +0.000 A 
ATOM     20  C   UNL     1      -0.553  11.231  20.612  0.00  0.00    +0.000 A 
ATOM     21  C   UNL     1      -1.308  11.843  21.614  0.00  0.00    +0.000 A 
ATOM     22  C   UNL     1      -1.343  11.293  22.892  0.00  0.00    +0.000 A 
ATOM     23  C   UNL     1      -0.618  10.135  23.171  0.00  0.00    +0.000 A 
ATOM     24  C   UNL     1       0.139   9.524  22.169  0.00  0.00    +0.000 A 
ENDBRANCH  17  19
ENDBRANCH  13  14
ENDBRANCH   1  13
TORSDOF 9
ENDMDL
MODEL 5
REMARK VINA RESULT:      -6.9      5.932      9.330
REMARK  Name = 
REMARK  10 active torsions:
REMARK  status: ('A' for Active; 'I' for Inactive)
REMARK    1  A    between atoms: C_1  and  N_2
REMARK    2  A    between atoms: C_3  and  C_5
REMARK    3  A    between atoms: C_5  and  C_7
REMARK    4  A    between atoms: C_7  and  C_8
REMARK    5  A    between atoms: C_8  and  C_9
REMARK    6  A    between atoms: C_9  and  C_10
REMARK    7  A    between atoms: C_10  and  C_11
REMARK    8  A    between atoms: C_11  and  C_12
REMARK    9  A    between atoms: C_12  and  C_13
REMARK   10  A    between atoms: C_16  and  C_17
REMARK                            x       y       z     vdW  Elec       q    Type
REMARK                         _______ _______ _______ _____ _____    ______ ____
ROOT
ATOM      1  C   UNL     1       7.806   8.387  17.526  0.00  0.00    +0.000 C 
ENDROOT
BRANCH   1   2
ATOM      2  C   UNL     1       8.188   9.784  18.024  0.00  0.00    +0.000 C 
BRANCH   2   3
ATOM      3  C   UNL     1       9.286   9.758  19.088  0.00  0.00    +0.000 C 
BRANCH   3   4
ATOM      4  C   UNL     1       9.468  11.124  19.745  0.00  0.00    +0.000 C 
BRANCH   4   5
ATOM      5  C   UNL     1      10.828  11.720  19.388  0.00  0.00    +0.000 C 
BRANCH   5   6
ATOM      6  C   UNL     1      10.727  12.708  18.251  0.00  0.00    +0.000 C 
ATOM      7  O   UNL     1      11.132  12.517  17.109  0.00  0.00    +0.000 OA
BRANCH   6  10
ATOM      8  C   UNL     1       8.306  15.605  17.870  0.00  0.00    +0.000 C 
ATOM      9  N   UNL     1       9.049  14.385  17.724  0.00  0.00    +0.000 N 
ATOM     10  C   UNL     1      10.063  14.046  18.587  0.00  0.00    +0.000 C 
ATOM     11  O   UNL     1      10.439  14.704  19.545  0.00  0.00    +0.000 OA
ATOM     12  H   UNL     1       8.847  13.735  16.968  0.00  0.00    +0.000 HD
ENDBRANCH   6  10
ENDBRANCH   5   6
ENDBRANCH   4   5
ENDBRANCH   3   4
ENDBRANCH   2   3
ENDBRANCH   1   2
BRANCH   1  13
ATOM     13  C   UNL     1       8.166   7.279  18.517  0.00  0.00    +0.000 C 
BRANCH  13  14
ATOM     14  C   UNL     1       7.347   6.068  18.298  0.00  0.00    +0.000 A 
ATOM     15  C   UNL     1       7.625   4.785  17.895  0.00  0.00    +0.000 A 
ATOM     16  N   UNL     1       6.477   4.040  17.885  0.00  0.00    +0.000 NA
ATOM     17  C   UNL     1       5.543   4.884  18.287  0.00  0.00    +0.000 A 
ATOM     18  O   UNL     1       6.008   6.148  18.553  0.00  0.00    +0.000 OA
BRANCH  17  19
ATOM     19  C   UNL     1       4.120   4.642  18.501  0.00  0.00    +0.000 A 
ATOM     20  C   UNL     1       3.371   4.013  17.494  0.00  0.00    +0.000 A 
ATOM     21  C   UNL     1       2.013   3.748  17.673  0.00  0.00    +0.000 A 
ATOM     22  C   UNL     1       1.385   4.107  18.861  0.00  0.00    +0.000 A 
ATOM     23  C   UNL     1       2.112   4.738  19.870  0.00  0.00    +0.000 A 
ATOM     24  C   UNL     1       3.471   5.006  19.690  0.00  0.00    +0.000 A 
ENDBRANCH  17  19
ENDBRANCH  13  14
ENDBRANCH   1  13
TORSDOF 9
ENDMDL
MODEL 6
REMARK VINA RESULT:      -6.8      1.147      1.772
REMARK  Name = 
REMARK  10 active torsions:
REMARK  status: ('A' for Active; 'I' for Inactive)
REMARK    1  A    between atoms: C_1  and  N_2
REMARK    2  A    between atoms: C_3  and  C_5
REMARK    3  A    between atoms: C_5  and  C_7
REMARK    4  A    between atoms: C_7  and  C_8
REMARK    5  A    between atoms: C_8  and  C_9
REMARK    6  A    between atoms: C_9  and  C_10
REMARK    7  A    between atoms: C_10  and  C_11
REMARK    8  A    between atoms: C_11  and  C_12
REMARK    9  A    between atoms: C_12  and  C_13
REMARK   10  A    between atoms: C_16  and  C_17
REMARK                            x       y       z     vdW  Elec       q    Type
REMARK                         _______ _______ _______ _____ _____    ______ ____
ROOT
ATOM      1  C   UNL     1       2.488   6.569  18.351  0.00  0.00    +0.000 C 
ENDROOT
BRANCH   1   2
ATOM      2  C   UNL     1       2.395   7.064  19.797  0.00  0.00    +0.000 C 
BRANCH   2   3
ATOM      3  C   UNL     1       1.484   6.197  20.667  0.00  0.00    +0.000 C 
BRANCH   3   4
ATOM      4  C   UNL     1       1.891   4.726  20.619  0.00  0.00    +0.000 C 
BRANCH   4   5
ATOM      5  C   UNL     1       0.699   3.845  20.253  0.00  0.00    +0.000 C 
BRANCH   5   6
ATOM      6  C   UNL     1       1.034   2.878  19.144  0.00  0.00    +0.000 C 
ATOM      7  O   UNL     1       0.216   2.247  18.483  0.00  0.00    +0.000 OA
BRANCH   6  10
ATOM      8  C   UNL     1       4.668   2.061  19.867  0.00  0.00    +0.000 C 
ATOM      9  N   UNL     1       3.252   2.285  19.941  0.00  0.00    +0.000 N 
ATOM     10  C   UNL     1       2.525   2.693  18.848  0.00  0.00    +0.000 C 
ATOM     11  O   UNL     1       2.967   2.898  17.729  0.00  0.00    +0.000 OA
ATOM     12  H   UNL     1       2.745   2.155  20.813  0.00  0.00    +0.000 HD
ENDBRANCH   6  10
ENDBRANCH   5   6
ENDBRANCH   4   5
ENDBRANCH   3   4
ENDBRANCH   2   3
ENDBRANCH   1   2
BRANCH   1  13
ATOM     13  C   UNL     1       3.632   7.216  17.569  0.00  0.00    +0.000 C 
BRANCH  13  14
ATOM     14  C   UNL     1       4.637   6.217  17.151  0.00  0.00    +0.000 A 
ATOM     15  C   UNL     1       5.402   5.291  17.819  0.00  0.00    +0.000 A 
ATOM     16  N   UNL     1       6.167   4.588  16.928  0.00  0.00    +0.000 NA
ATOM     17  C   UNL     1       5.841   5.097  15.753  0.00  0.00    +0.000 A 
ATOM     18  O   UNL     1       4.911   6.105  15.818  0.00  0.00    +0.000 OA
BRANCH  17  19
ATOM     19  C   UNL     1       6.316   4.718  14.427  0.00  0.00    +0.000 A 
ATOM     20  C   UNL     1       5.630   3.727  13.708  0.00  0.00    +0.000 A 
ATOM     21  C   UNL     1       6.043   3.354  12.429  0.00  0.00    +0.000 A 
ATOM     22  C   UNL     1       7.150   3.968  11.849  0.00  0.00    +0.000 A 
ATOM     23  C   UNL     1       7.847   4.950  12.551  0.00  0.00    +0.000 A 
ATOM     24  C   UNL     1       7.434   5.322  13.832  0.00  0.00    +0.000 A 
ENDBRANCH  17  19
ENDBRANCH  13  14
ENDBRANCH   1  13
TORSDOF 9
ENDMDL
MODEL 7
REMARK VINA RESULT:      -6.8      3.851      7.837
REMARK  Name = 
REMARK  10 active torsions:
REMARK  status: ('A' for Active; 'I' for Inactive)
REMARK    1  A    between atoms: C_1  and  N_2
REMARK    2  A    between atoms: C_3  and  C_5
REMARK    3  A    between atoms: C_5  and  C_7
REMARK    4  A    between atoms: C_7  and  C_8
REMARK    5  A    between atoms: C_8  and  C_9
REMARK    6  A    between atoms: C_9  and  C_10
REMARK    7  A    between atoms: C_10  and  C_11
REMARK    8  A    between atoms: C_11  and  C_12
REMARK    9  A    between atoms: C_12  and  C_13
REMARK   10  A    between atoms: C_16  and  C_17
REMARK                            x       y       z     vdW  Elec       q    Type
REMARK                         _______ _______ _______ _____ _____    ______ ____
ROOT
ATOM      1  C   UNL     1       2.021   5.112  19.289  0.00  0.00    +0.000 C 
ENDROOT
BRANCH   1   2
ATOM      2  C   UNL     1       2.061   4.652  17.828  0.00  0.00    +0.000 C 
BRANCH   2   3
ATOM      3  C   UNL     1       2.231   3.140  17.683  0.00  0.00    +0.000 C 
BRANCH   3   4
ATOM      4  C   UNL     1       3.702   2.732  17.695  0.00  0.00    +0.000 C 
BRANCH   4   5
ATOM      5  C   UNL     1       4.582   3.866  17.174  0.00  0.00    +0.000 C 
BRANCH   5   6
ATOM      6  C   UNL     1       5.660   4.240  18.162  0.00  0.00    +0.000 C 
ATOM      7  O   UNL     1       5.690   3.902  19.340  0.00  0.00    +0.000 OA
BRANCH   6  10
ATOM      8  C   UNL     1       7.587   7.434  17.466  0.00  0.00    +0.000 C 
ATOM      9  N   UNL     1       6.633   6.452  17.897  0.00  0.00    +0.000 N 
ATOM     10  C   UNL     1       6.790   5.116  17.615  0.00  0.00    +0.000 C 
ATOM     11  O   UNL     1       7.719   4.618  16.997  0.00  0.00    +0.000 OA
ATOM     12  H   UNL     1       5.804   6.720  18.422  0.00  0.00    +0.000 HD
ENDBRANCH   6  10
ENDBRANCH   5   6
ENDBRANCH   4   5
ENDBRANCH   3   4
ENDBRANCH   2   3
ENDBRANCH   1   2
BRANCH   1  13
ATOM     13  C   UNL     1       2.951   6.292  19.571  0.00  0.00    +0.000 C 
BRANCH  13  14
ATOM     14  C   UNL     1       2.484   7.524  18.901  0.00  0.00    +0.000 A 
ATOM     15  C   UNL     1       2.820   8.165  17.734  0.00  0.00    +0.000 A 
ATOM     16  N   UNL     1       2.042   9.280  17.574  0.00  0.00    +0.000 NA
ATOM     17  C   UNL     1       1.257   9.279  18.636  0.00  0.00    +0.000 A 
ATOM     18  O   UNL     1       1.479   8.232  19.495  0.00  0.00    +0.000 OA
BRANCH  17  19
ATOM     19  C   UNL     1       0.196  10.215  18.992  0.00  0.00    +0.000 A 
ATOM     20  C   UNL     1      -0.929  10.326  18.161  0.00  0.00    +0.000 A 
ATOM     21  C   UNL     1      -1.973  11.195  18.481  0.00  0.00    +0.000 A 
ATOM     22  C   UNL     1      -1.906  11.966  19.638  0.00  0.00    +0.000 A 
ATOM     23  C   UNL     1      -0.793  11.873  20.472  0.00  0.00    +0.000 A 
ATOM     24  C   UNL     1       0.253  11.004  20.151  0.00  0.00    +0.000 A 
ENDBRANCH  17  19
ENDBRANCH  13  14
ENDBRANCH   1  13
TORSDOF 9
ENDMDL
MODEL 8
REMARK VINA RESULT:      -6.8      6.029      9.635
REMARK  Name = 
REMARK  10 active torsions:
REMARK  status: ('A' for Active; 'I' for Inactive)
REMARK    1  A    between atoms: C_1  and  N_2
REMARK    2  A    between atoms: C_3  and  C_5
REMARK    3  A    between atoms: C_5  and  C_7
REMARK    4  A    between atoms: C_7  and  C_8
REMARK    5  A    between atoms: C_8  and  C_9
REMARK    6  A    between atoms: C_9  and  C_10
REMARK    7  A    between atoms: C_10  and  C_11
REMARK    8  A    between atoms: C_11  and  C_12
REMARK    9  A    between atoms: C_12  and  C_13
REMARK   10  A    between atoms: C_16  and  C_17
REMARK                            x       y       z     vdW  Elec       q    Type
REMARK                         _______ _______ _______ _____ _____    ______ ____
ROOT
ATOM      1  C   UNL     1       7.354   8.154  17.656  0.00  0.00    +0.000 C 
ENDROOT
BRANCH   1   2
ATOM      2  C   UNL     1       8.520   9.147  17.685  0.00  0.00    +0.000 C 
BRANCH   2   3
ATOM      3  C   UNL     1       8.803   9.693  19.085  0.00  0.00    +0.000 C 
BRANCH   3   4
ATOM      4  C   UNL     1       9.901  10.754  19.066  0.00  0.00    +0.000 C 
BRANCH   4   5
ATOM      5  C   UNL     1       9.333  12.115  18.671  0.00  0.00    +0.000 C 
BRANCH   5   6
ATOM      6  C   UNL     1      10.317  12.922  17.860  0.00  0.00    +0.000 C 
ATOM      7  O   UNL     1      11.234  12.456  17.191  0.00  0.00    +0.000 OA
BRANCH   6  10
ATOM      8  C   UNL     1      10.701  16.525  16.736  0.00  0.00    +0.000 C 
ATOM      9  N   UNL     1      10.758  15.097  16.870  0.00  0.00    +0.000 N 
ATOM     10  C   UNL     1      10.128  14.440  17.900  0.00  0.00    +0.000 C 
ATOM     11  O   UNL     1       9.467  14.962  18.784  0.00  0.00    +0.000 OA
ATOM     12  H   UNL     1      11.275  14.527  16.204  0.00  0.00    +0.000 HD
ENDBRANCH   6  10
ENDBRANCH   5   6
ENDBRANCH   4   5
ENDBRANCH   3   4
ENDBRANCH   2   3
ENDBRANCH   1   2
BRANCH   1  13
ATOM     13  C   UNL     1       7.738   6.764  18.163  0.00  0.00    +0.000 C 
BRANCH  13  14
ATOM     14  C   UNL     1       6.705   5.760  17.832  0.00  0.00    +0.000 A 
ATOM     15  C   UNL     1       6.615   4.749  16.907  0.00  0.00    +0.000 A 
ATOM     16  N   UNL     1       5.423   4.091  17.050  0.00  0.00    +0.000 NA
ATOM     17  C   UNL     1       4.832   4.712  18.054  0.00  0.00    +0.000 A 
ATOM     18  O   UNL     1       5.561   5.751  18.577  0.00  0.00    +0.000 OA
BRANCH  17  19
ATOM     19  C   UNL     1       3.543   4.428  18.677  0.00  0.00    +0.000 A 
ATOM     20  C   UNL     1       3.251   4.978  19.934  0.00  0.00    +0.000 A 
ATOM     21  C   UNL     1       2.020   4.744  20.550  0.00  0.00    +0.000 A 
ATOM     22  C   UNL     1       1.065   3.956  19.915  0.00  0.00    +0.000 A 
ATOM     23  C   UNL     1       1.340   3.396  18.668  0.00  0.00    +0.000 A 
ATOM     24  C   UNL     1       2.572   3.629  18.053  0.00  0.00    +0.000 A 
ENDBRANCH  17  19
ENDBRANCH  13  14
ENDBRANCH   1  13
TORSDOF 9
ENDMDL
MODEL 9
REMARK VINA RESULT:      -6.8      3.099      8.054
REMARK  Name = 
REMARK  10 active torsions:
REMARK  status: ('A' for Active; 'I' for Inactive)
REMARK    1  A    between atoms: C_1  and  N_2
REMARK    2  A    between atoms: C_3  and  C_5
REMARK    3  A    between atoms: C_5  and  C_7
REMARK    4  A    between atoms: C_7  and  C_8
REMARK    5  A    between atoms: C_8  and  C_9
REMARK    6  A    between atoms: C_9  and  C_10
REMARK    7  A    between atoms: C_10  and  C_11
REMARK    8  A    between atoms: C_11  and  C_12
REMARK    9  A    between atoms: C_12  and  C_13
REMARK   10  A    between atoms: C_16  and  C_17
REMARK                            x       y       z     vdW  Elec       q    Type
REMARK                         _______ _______ _______ _____ _____    ______ ____
ROOT
ATOM      1  C   UNL     1       3.811   4.690  19.539  0.00  0.00    +0.000 C 
ENDROOT
BRANCH   1   2
ATOM      2  C   UNL     1       5.253   4.205  19.364  0.00  0.00    +0.000 C 
BRANCH   2   3
ATOM      3  C   UNL     1       6.241   5.347  19.123  0.00  0.00    +0.000 C 
BRANCH   3   4
ATOM      4  C   UNL     1       7.246   5.003  18.026  0.00  0.00    +0.000 C 
BRANCH   4   5
ATOM      5  C   UNL     1       6.817   5.606  16.690  0.00  0.00    +0.000 C 
BRANCH   5   6
ATOM      6  C   UNL     1       6.308   4.555  15.735  0.00  0.00    +0.000 C 
ATOM      7  O   UNL     1       5.488   3.685  16.011  0.00  0.00    +0.000 OA
BRANCH   6  10
ATOM      8  C   UNL     1       6.762   3.546  12.106  0.00  0.00    +0.000 C 
ATOM      9  N   UNL     1       6.348   3.661  13.475  0.00  0.00    +0.000 N 
ATOM     10  C   UNL     1       6.883   4.606  14.318  0.00  0.00    +0.000 C 
ATOM     11  O   UNL     1       7.733   5.432  14.021  0.00  0.00    +0.000 OA
ATOM     12  H   UNL     1       5.646   3.037  13.866  0.00  0.00    +0.000 HD
ENDBRANCH   6  10
ENDBRANCH   5   6
ENDBRANCH   4   5
ENDBRANCH   3   4
ENDBRANCH   2   3
ENDBRANCH   1   2
BRANCH   1  13
ATOM     13  C   UNL     1       3.202   5.237  18.247  0.00  0.00    +0.000 C 
BRANCH  13  14
ATOM     14  C   UNL     1       2.831   6.660  18.383  0.00  0.00    +0.000 A 
ATOM     15  C   UNL     1       3.044   7.782  17.619  0.00  0.00    +0.000 A 
ATOM     16  N   UNL     1       2.448   8.866  18.206  0.00  0.00    +0.000 NA
ATOM     17  C   UNL     1       1.889   8.374  19.296  0.00  0.00    +0.000 A 
ATOM     18  O   UNL     1       2.089   7.027  19.469  0.00  0.00    +0.000 OA
BRANCH  17  19
ATOM     19  C   UNL     1       1.086   9.059  20.304  0.00  0.00    +0.000 A 
ATOM     20  C   UNL     1       0.255  10.121  19.914  0.00  0.00    +0.000 A 
ATOM     21  C   UNL     1      -0.542  10.786  20.847  0.00  0.00    +0.000 A 
ATOM     22  C   UNL     1      -0.520  10.397  22.183  0.00  0.00    +0.000 A 
ATOM     23  C   UNL     1       0.304   9.347  22.589  0.00  0.00    +0.000 A 
ATOM     24  C   UNL     1       1.103   8.683  21.656  0.00  0.00    +0.000 A 
ENDBRANCH  17  19
ENDBRANCH  13  14
ENDBRANCH   1  13
TORSDOF 9
ENDMDL
