MODEL 1
REMARK VINA RESULT:      -6.8      0.000      0.000
REMARK  Name = 
REMARK  7 active torsions:
REMARK  status: ('A' for Active; 'I' for Inactive)
REMARK    1  A    between atoms: C_1  and  C_2
REMARK    2  A    between atoms: CA_3  and  N_4
REMARK    3  A    between atoms: CA_3  and  C_15
REMARK    4  A    between atoms: C_5  and  C_7
REMARK    5  A    between atoms: C_10  and  O_11
REMARK    6  A    between atoms: O_11  and  C_12
REMARK    7  A    between atoms: C_15  and  OXT_17
REMARK                            x       y       z     vdW  Elec       q    Type
REMARK                         _______ _______ _______ _____ _____    ______ ____
ROOT
ATOM      1  N   UNL     1       3.052   4.386  19.061  0.00  0.00    +0.000 N 
ATOM      2  C   UNL     1       4.388   4.033  19.107  0.00  0.00    +0.000 C 
ATOM      3  O   UNL     1       4.858   3.014  19.595  0.00  0.00    +0.000 OA
ATOM      4  H   UNL     1       2.834   5.295  18.661  0.00  0.00    +0.000 HD
ENDROOT
BRANCH   2   5
ATOM      5  C   UNL     1       5.324   5.038  18.532  0.00  0.00    +0.000 A 
ATOM      6  C   UNL     1       6.620   5.209  19.031  0.00  0.00    +0.000 A 
ATOM      7  C   UNL     1       7.439   6.210  18.509  0.00  0.00    +0.000 A 
ATOM      8  C   UNL     1       6.995   7.023  17.466  0.00  0.00    +0.000 A 
ATOM      9  C   UNL     1       5.720   6.827  16.933  0.00  0.00    +0.000 A 
ATOM     10  C   UNL     1       4.887   5.832  17.461  0.00  0.00    +0.000 A 
BRANCH   8  11
ATOM     11  O   UNL     1       7.880   7.992  17.086  0.00  0.00    +0.000 OA
ATOM     12  C   UNL     1       8.167   8.996  18.052  0.00  0.00    +0.000 C 
ENDBRANCH   8  11
ENDBRANCH   2   5
BRANCH   1  15
ATOM     13  C   UNL     1       2.319   3.466  21.990  0.00  0.00    +0.000 C 
ATOM     14  C   UNL     1       1.568   3.323  20.708  0.00  0.00    +0.000 C 
ATOM     15  CA  UNL     1       1.935   3.672  19.463  0.00  0.00    +0.000 C 
BRANCH  15  16
ATOM     16  C   UNL     1       1.041   3.159  18.363  0.00  0.00    +0.000 C 
ATOM     17  O   UNL     1       0.333   2.168  18.423  0.00  0.00    +0.000 OA
BRANCH  16  18
ATOM     18  OXT UNL     1       1.144   3.931  17.253  0.00  0.00    +0.000 OA
ATOM     19  HXT UNL     1       1.847   3.603  16.661  0.00  0.00    +0.000 HD
ENDBRANCH  16  18
ENDBRANCH  15  16
ENDBRANCH   1  15
TORSDOF 5
ENDMDL
MODEL 2
REMARK VINA RESULT:      -6.8      0.464      1.260
REMARK  Name = 
REMARK  7 active torsions:
REMARK  status: ('A' for Active; 'I' for Inactive)
REMARK    1  A    between atoms: C_1  and  C_2
REMARK    2  A    between atoms: CA_3  and  N_4
REMARK    3  A    between atoms: CA_3  and  C_15
REMARK    4  A    between atoms: C_5  and  C_7
REMARK    5  A    between atoms: C_10  and  O_11
REMARK    6  A    between atoms: O_11  and  C_12
REMARK    7  A    between atoms: C_15  and  OXT_17
REMARK                            x       y       z     vdW  Elec       q    Type
REMARK                         _______ _______ _______ _____ _____    ______ ____
ROOT
ATOM      1  N   UNL     1       3.139   4.159  19.113  0.00  0.00    +0.000 N 
ATOM      2  C   UNL     1       4.498   3.924  19.209  0.00  0.00    +0.000 C 
ATOM      3  O   UNL     1       5.036   2.939  19.697  0.00  0.00    +0.000 OA
ATOM      4  H   UNL     1       2.858   5.055  18.721  0.00  0.00    +0.000 HD
ENDROOT
BRANCH   2   5
ATOM      5  C   UNL     1       5.364   5.019  18.694  0.00  0.00    +0.000 A 
ATOM      6  C   UNL     1       4.922   5.903  17.703  0.00  0.00    +0.000 A 
ATOM      7  C   UNL     1       5.791   6.871  17.198  0.00  0.00    +0.000 A 
ATOM      8  C   UNL     1       7.089   6.994  17.696  0.00  0.00    +0.000 A 
ATOM      9  C   UNL     1       7.520   6.145  18.716  0.00  0.00    +0.000 A 
ATOM     10  C   UNL     1       6.657   5.163  19.219  0.00  0.00    +0.000 A 
BRANCH   8  11
ATOM     11  O   UNL     1       7.844   7.951  17.078  0.00  0.00    +0.000 OA
ATOM     12  C   UNL     1       8.211   9.072  17.872  0.00  0.00    +0.000 C 
ENDBRANCH   8  11
ENDBRANCH   2   5
BRANCH   1  15
ATOM     13  C   UNL     1       2.199   3.349  22.015  0.00  0.00    +0.000 C 
ATOM     14  C   UNL     1       1.615   3.032  20.679  0.00  0.00    +0.000 C 
ATOM     15  CA  UNL     1       2.074   3.342  19.453  0.00  0.00    +0.000 C 
BRANCH  15  16
ATOM     16  C   UNL     1       1.370   2.653  18.312  0.00  0.00    +0.000 C 
ATOM     17  O   UNL     1       0.284   2.104  18.370  0.00  0.00    +0.000 OA
BRANCH  16  18
ATOM     18  OXT UNL     1       2.126   2.684  17.186  0.00  0.00    +0.000 OA
ATOM     19  HXT UNL     1       1.644   2.304  16.428  0.00  0.00    +0.000 HD
ENDBRANCH  16  18
ENDBRANCH  15  16
ENDBRANCH   1  15
TORSDOF 5
ENDMDL
MODEL 3
REMARK VINA RESULT:      -6.7      2.176      2.548
REMARK  Name = 
REMARK  7 active torsions:
REMARK  status: ('A' for Active; 'I' for Inactive)
REMARK    1  A    between atoms: C_1  and  C_2
REMARK    2  A    between atoms: CA_3  and  N_4
REMARK    3  A    between atoms: CA_3  and  C_15
REMARK    4  A    between atoms: C_5  and  C_7
REMARK    5  A    between atoms: C_10  and  O_11
REMARK    6  A    between atoms: O_11  and  C_12
REMARK    7  A    between atoms: C_15  and  OXT_17
REMARK                            x       y       z     vdW  Elec       q    Type
REMARK                         _______ _______ _______ _____ _____    ______ ____
ROOT
ATOM      1  N   UNL     1       3.105   3.980  18.192  0.00  0.00    +0.000 N 
ATOM      2  C   UNL     1       4.450   3.839  18.480  0.00  0.00    +0.000 C 
ATOM      3  O   UNL     1       4.934   3.450  19.534  0.00  0.00    +0.000 OA
ATOM      4  H   UNL     1       2.872   4.365  17.280  0.00  0.00    +0.000 HD
ENDROOT
BRANCH   2   5
ATOM      5  C   UNL     1       5.373   4.251  17.388  0.00  0.00    +0.000 A 
ATOM      6  C   UNL     1       6.407   5.169  17.604  0.00  0.00    +0.000 A 
ATOM      7  C   UNL     1       7.205   5.580  16.535  0.00  0.00    +0.000 A 
ATOM      8  C   UNL     1       7.009   5.059  15.256  0.00  0.00    +0.000 A 
ATOM      9  C   UNL     1       6.009   4.109  15.044  0.00  0.00    +0.000 A 
ATOM     10  C   UNL     1       5.196   3.701  16.110  0.00  0.00    +0.000 A 
BRANCH   8  11
ATOM     11  O   UNL     1       7.828   5.585  14.298  0.00  0.00    +0.000 OA
ATOM     12  C   UNL     1       7.664   5.075  12.980  0.00  0.00    +0.000 C 
ENDBRANCH   8  11
ENDBRANCH   2   5
BRANCH   1  15
ATOM     13  C   UNL     1       1.941   5.576  20.654  0.00  0.00    +0.000 C 
ATOM     14  C   UNL     1       1.445   4.346  19.969  0.00  0.00    +0.000 C 
ATOM     15  CA  UNL     1       1.998   3.653  18.958  0.00  0.00    +0.000 C 
BRANCH  15  16
ATOM     16  C   UNL     1       1.360   2.317  18.672  0.00  0.00    +0.000 C 
ATOM     17  O   UNL     1       0.170   2.116  18.504  0.00  0.00    +0.000 OA
BRANCH  16  18
ATOM     18  OXT UNL     1       2.289   1.329  18.659  0.00  0.00    +0.000 OA
ATOM     19  HXT UNL     1       3.175   1.682  18.454  0.00  0.00    +0.000 HD
ENDBRANCH  16  18
ENDBRANCH  15  16
ENDBRANCH   1  15
TORSDOF 5
ENDMDL
MODEL 4
REMARK VINA RESULT:      -6.7      2.125      2.671
REMARK  Name = 
REMARK  7 active torsions:
REMARK  status: ('A' for Active; 'I' for Inactive)
REMARK    1  A    between atoms: C_1  and  C_2
REMARK    2  A    between atoms: CA_3  and  N_4
REMARK    3  A    between atoms: CA_3  and  C_15
REMARK    4  A    between atoms: C_5  and  C_7
REMARK    5  A    between atoms: C_10  and  O_11
REMARK    6  A    between atoms: O_11  and  C_12
REMARK    7  A    between atoms: C_15  and  OXT_17
REMARK                            x       y       z     vdW  Elec       q    Type
REMARK                         _______ _______ _______ _____ _____    ______ ____
ROOT
ATOM      1  N   UNL     1       3.017   4.034  18.277  0.00  0.00    +0.000 N 
ATOM      2  C   UNL     1       4.364   3.767  18.444  0.00  0.00    +0.000 C 
ATOM      3  O   UNL     1       4.883   3.196  19.393  0.00  0.00    +0.000 OA
ATOM      4  H   UNL     1       2.756   4.563  17.449  0.00  0.00    +0.000 HD
ENDROOT
BRANCH   2   5
ATOM      5  C   UNL     1       5.244   4.275  17.357  0.00  0.00    +0.000 A 
ATOM      6  C   UNL     1       5.145   3.800  16.045  0.00  0.00    +0.000 A 
ATOM      7  C   UNL     1       6.037   4.253  15.072  0.00  0.00    +0.000 A 
ATOM      8  C   UNL     1       7.008   5.205  15.383  0.00  0.00    +0.000 A 
ATOM      9  C   UNL     1       7.082   5.717  16.678  0.00  0.00    +0.000 A 
ATOM     10  C   UNL     1       6.198   5.258  17.663  0.00  0.00    +0.000 A 
BRANCH   8  11
ATOM     11  O   UNL     1       7.844   5.521  14.348  0.00  0.00    +0.000 OA
ATOM     12  C   UNL     1       7.512   4.968  13.081  0.00  0.00    +0.000 C 
ENDBRANCH   8  11
ENDBRANCH   2   5
BRANCH   1  15
ATOM     13  C   UNL     1       1.878   5.571  20.788  0.00  0.00    +0.000 C 
ATOM     14  C   UNL     1       1.396   4.337  20.101  0.00  0.00    +0.000 C 
ATOM     15  CA  UNL     1       1.940   3.670  19.067  0.00  0.00    +0.000 C 
BRANCH  15  16
ATOM     16  C   UNL     1       1.329   2.321  18.782  0.00  0.00    +0.000 C 
ATOM     17  O   UNL     1       0.166   2.113  18.482  0.00  0.00    +0.000 OA
BRANCH  16  18
ATOM     18  OXT UNL     1       2.244   1.332  18.937  0.00  0.00    +0.000 OA
ATOM     19  HXT UNL     1       1.876   0.591  19.454  0.00  0.00    +0.000 HD
ENDBRANCH  16  18
ENDBRANCH  15  16
ENDBRANCH   1  15
TORSDOF 5
ENDMDL
MODEL 5
REMARK VINA RESULT:      -6.7      2.337      3.150
REMARK  Name = 
REMARK  7 active torsions:
REMARK  status: ('A' for Active; 'I' for Inactive)
REMARK    1  A    between atoms: C_1  and  C_2
REMARK    2  A    between atoms: CA_3  and  N_4
REMARK    3  A    between atoms: CA_3  and  C_15
REMARK    4  A    between atoms: C_5  and  C_7
REMARK    5  A    between atoms: C_10  and  O_11
REMARK    6  A    between atoms: O_11  and  C_12
REMARK    7  A    between atoms: C_15  and  OXT_17
REMARK                            x       y       z     vdW  Elec       q    Type
REMARK                         _______ _______ _______ _____ _____    ______ ____
ROOT
ATOM      1  N   UNL     1       3.185   3.884  19.114  0.00  0.00    +0.000 N 
ATOM      2  C   UNL     1       4.522   3.538  19.063  0.00  0.00    +0.000 C 
ATOM      3  O   UNL     1       5.130   2.849  19.871  0.00  0.00    +0.000 OA
ATOM      4  H   UNL     1       2.846   4.507  18.384  0.00  0.00    +0.000 HD
ENDROOT
BRANCH   2   5
ATOM      5  C   UNL     1       5.277   4.112  17.916  0.00  0.00    +0.000 A 
ATOM      6  C   UNL     1       4.751   4.124  16.620  0.00  0.00    +0.000 A 
ATOM      7  C   UNL     1       5.522   4.608  15.561  0.00  0.00    +0.000 A 
ATOM      8  C   UNL     1       6.801   5.119  15.786  0.00  0.00    +0.000 A 
ATOM      9  C   UNL     1       7.312   5.152  17.083  0.00  0.00    +0.000 A 
ATOM     10  C   UNL     1       6.550   4.656  18.148  0.00  0.00    +0.000 A 
BRANCH   8  11
ATOM     11  O   UNL     1       7.460   5.513  14.655  0.00  0.00    +0.000 OA
ATOM     12  C   UNL     1       7.176   4.777  13.473  0.00  0.00    +0.000 C 
ENDBRANCH   8  11
ENDBRANCH   2   5
BRANCH   1  15
ATOM     13  C   UNL     1       0.571   2.229  18.488  0.00  0.00    +0.000 C 
ATOM     14  C   UNL     1       1.116   2.736  19.782  0.00  0.00    +0.000 C 
ATOM     15  CA  UNL     1       2.204   3.493  20.010  0.00  0.00    +0.000 C 
BRANCH  15  16
ATOM     16  C   UNL     1       2.326   4.033  21.412  0.00  0.00    +0.000 C 
ATOM     17  O   UNL     1       2.309   3.372  22.436  0.00  0.00    +0.000 OA
BRANCH  16  18
ATOM     18  OXT UNL     1       2.426   5.386  21.404  0.00  0.00    +0.000 OA
ATOM     19  HXT UNL     1       2.915   5.698  20.619  0.00  0.00    +0.000 HD
ENDBRANCH  16  18
ENDBRANCH  15  16
ENDBRANCH   1  15
TORSDOF 5
ENDMDL
MODEL 6
REMARK VINA RESULT:      -6.6      2.928      6.646
REMARK  Name = 
REMARK  7 active torsions:
REMARK  status: ('A' for Active; 'I' for Inactive)
REMARK    1  A    between atoms: C_1  and  C_2
REMARK    2  A    between atoms: CA_3  and  N_4
REMARK    3  A    between atoms: CA_3  and  C_15
REMARK    4  A    between atoms: C_5  and  C_7
REMARK    5  A    between atoms: C_10  and  O_11
REMARK    6  A    between atoms: O_11  and  C_12
REMARK    7  A    between atoms: C_15  and  OXT_17
REMARK                            x       y       z     vdW  Elec       q    Type
REMARK                         _______ _______ _______ _____ _____    ______ ____
ROOT
ATOM      1  N   UNL     1       5.092   4.137  15.790  0.00  0.00    +0.000 N 
ATOM      2  C   UNL     1       4.450   5.077  16.576  0.00  0.00    +0.000 C 
ATOM      3  O   UNL     1       4.666   6.280  16.598  0.00  0.00    +0.000 OA
ATOM      4  H   UNL     1       4.825   3.166  15.930  0.00  0.00    +0.000 HD
ENDROOT
BRANCH   2   5
ATOM      5  C   UNL     1       3.428   4.525  17.506  0.00  0.00    +0.000 A 
ATOM      6  C   UNL     1       2.804   5.321  18.472  0.00  0.00    +0.000 A 
ATOM      7  C   UNL     1       1.903   4.747  19.370  0.00  0.00    +0.000 A 
ATOM      8  C   UNL     1       1.585   3.391  19.292  0.00  0.00    +0.000 A 
ATOM      9  C   UNL     1       2.169   2.601  18.302  0.00  0.00    +0.000 A 
ATOM     10  C   UNL     1       3.085   3.168  17.405  0.00  0.00    +0.000 A 
BRANCH   8  11
ATOM     11  O   UNL     1       0.727   2.953  20.262  0.00  0.00    +0.000 OA
ATOM     12  C   UNL     1       1.301   2.687  21.536  0.00  0.00    +0.000 C 
ENDBRANCH   8  11
ENDBRANCH   2   5
BRANCH   1  15
ATOM     13  C   UNL     1       4.856   3.380  12.735  0.00  0.00    +0.000 C 
ATOM     14  C   UNL     1       5.951   4.060  13.488  0.00  0.00    +0.000 C 
ATOM     15  CA  UNL     1       6.049   4.314  14.804  0.00  0.00    +0.000 C 
BRANCH  15  16
ATOM     16  C   UNL     1       7.402   4.793  15.266  0.00  0.00    +0.000 C 
ATOM     17  O   UNL     1       7.922   4.538  16.339  0.00  0.00    +0.000 OA
BRANCH  16  18
ATOM     18  OXT UNL     1       7.978   5.594  14.335  0.00  0.00    +0.000 OA
ATOM     19  HXT UNL     1       8.733   6.083  14.710  0.00  0.00    +0.000 HD
ENDBRANCH  16  18
ENDBRANCH  15  16
ENDBRANCH   1  15
TORSDOF 5
ENDMDL
MODEL 7
REMARK VINA RESULT:      -6.5      2.391      3.209
REMARK  Name = 
REMARK  7 active torsions:
REMARK  status: ('A' for Active; 'I' for Inactive)
REMARK    1  A    between atoms: C_1  and  C_2
REMARK    2  A    between atoms: CA_3  and  N_4
REMARK    3  A    between atoms: CA_3  and  C_15
REMARK    4  A    between atoms: C_5  and  C_7
REMARK    5  A    between atoms: C_10  and  O_11
REMARK    6  A    between atoms: O_11  and  C_12
REMARK    7  A    between atoms: C_15  and  OXT_17
REMARK                            x       y       z     vdW  Elec       q    Type
REMARK                         _______ _______ _______ _____ _____    ______ ____
ROOT
ATOM      1  N   UNL     1       2.941   5.009  19.466  0.00  0.00    +0.000 N 
ATOM      2  C   UNL     1       2.731   4.826  18.111  0.00  0.00    +0.000 C 
ATOM      3  O   UNL     1       1.671   4.553  17.567  0.00  0.00    +0.000 OA
ATOM      4  H   UNL     1       3.899   5.184  19.760  0.00  0.00    +0.000 HD
ENDROOT
BRANCH   2   5
ATOM      5  C   UNL     1       3.950   4.942  17.266  0.00  0.00    +0.000 A 
ATOM      6  C   UNL     1       4.618   3.814  16.776  0.00  0.00    +0.000 A 
ATOM      7  C   UNL     1       5.797   3.967  16.046  0.00  0.00    +0.000 A 
ATOM      8  C   UNL     1       6.302   5.237  15.763  0.00  0.00    +0.000 A 
ATOM      9  C   UNL     1       5.615   6.367  16.210  0.00  0.00    +0.000 A 
ATOM     10  C   UNL     1       4.438   6.221  16.954  0.00  0.00    +0.000 A 
BRANCH   8  11
ATOM     11  O   UNL     1       7.487   5.238  15.082  0.00  0.00    +0.000 OA
ATOM     12  C   UNL     1       7.411   4.968  13.688  0.00  0.00    +0.000 C 
ENDBRANCH   8  11
ENDBRANCH   2   5
BRANCH   1  15
ATOM     13  C   UNL     1       1.528   7.513  20.767  0.00  0.00    +0.000 C 
ATOM     14  C   UNL     1       1.367   6.054  21.039  0.00  0.00    +0.000 C 
ATOM     15  CA  UNL     1       2.030   5.011  20.509  0.00  0.00    +0.000 C 
BRANCH  15  16
ATOM     16  C   UNL     1       1.791   3.687  21.190  0.00  0.00    +0.000 C 
ATOM     17  O   UNL     1       2.531   3.158  22.001  0.00  0.00    +0.000 OA
BRANCH  16  18
ATOM     18  OXT UNL     1       0.638   3.119  20.756  0.00  0.00    +0.000 OA
ATOM     19  HXT UNL     1      -0.140   3.581  21.119  0.00  0.00    +0.000 HD
ENDBRANCH  16  18
ENDBRANCH  15  16
ENDBRANCH   1  15
TORSDOF 5
ENDMDL
MODEL 8
REMARK VINA RESULT:      -6.5      3.065      6.797
REMARK  Name = 
REMARK  7 active torsions:
REMARK  status: ('A' for Active; 'I' for Inactive)
REMARK    1  A    between atoms: C_1  and  C_2
REMARK    2  A    between atoms: CA_3  and  N_4
REMARK    3  A    between atoms: CA_3  and  C_15
REMARK    4  A    between atoms: C_5  and  C_7
REMARK    5  A    between atoms: C_10  and  O_11
REMARK    6  A    between atoms: O_11  and  C_12
REMARK    7  A    between atoms: C_15  and  OXT_17
REMARK                            x       y       z     vdW  Elec       q    Type
REMARK                         _______ _______ _______ _____ _____    ______ ____
ROOT
ATOM      1  N   UNL     1       5.330   3.895  15.497  0.00  0.00    +0.000 N 
ATOM      2  C   UNL     1       4.669   4.702  16.406  0.00  0.00    +0.000 C 
ATOM      3  O   UNL     1       4.715   5.922  16.467  0.00  0.00    +0.000 OA
ATOM      4  H   UNL     1       5.222   2.891  15.616  0.00  0.00    +0.000 HD
ENDROOT
BRANCH   2   5
ATOM      5  C   UNL     1       3.863   3.973  17.422  0.00  0.00    +0.000 A 
ATOM      6  C   UNL     1       2.539   3.593  17.179  0.00  0.00    +0.000 A 
ATOM      7  C   UNL     1       1.797   2.974  18.186  0.00  0.00    +0.000 A 
ATOM      8  C   UNL     1       2.372   2.693  19.425  0.00  0.00    +0.000 A 
ATOM      9  C   UNL     1       3.706   3.027  19.658  0.00  0.00    +0.000 A 
ATOM     10  C   UNL     1       4.453   3.661  18.657  0.00  0.00    +0.000 A 
BRANCH   8  11
ATOM     11  O   UNL     1       1.518   2.129  20.332  0.00  0.00    +0.000 OA
ATOM     12  C   UNL     1       1.499   2.716  21.627  0.00  0.00    +0.000 C 
ENDBRANCH   8  11
ENDBRANCH   2   5
BRANCH   1  15
ATOM     13  C   UNL     1       4.818   3.211  12.459  0.00  0.00    +0.000 C 
ATOM     14  C   UNL     1       5.890   4.023  13.107  0.00  0.00    +0.000 C 
ATOM     15  CA  UNL     1       6.117   4.246  14.413  0.00  0.00    +0.000 C 
BRANCH  15  16
ATOM     16  C   UNL     1       7.434   4.908  14.731  0.00  0.00    +0.000 C 
ATOM     17  O   UNL     1       8.073   5.624  13.979  0.00  0.00    +0.000 OA
BRANCH  16  18
ATOM     18  OXT UNL     1       7.855   4.577  15.977  0.00  0.00    +0.000 OA
ATOM     19  HXT UNL     1       7.108   4.298  16.538  0.00  0.00    +0.000 HD
ENDBRANCH  16  18
ENDBRANCH  15  16
ENDBRANCH   1  15
TORSDOF 5
ENDMDL
MODEL 9
REMARK VINA RESULT:      -6.5      2.354      2.955
REMARK  Name = 
REMARK  7 active torsions:
REMARK  status: ('A' for Active; 'I' for Inactive)
REMARK    1  A    between atoms: C_1  and  C_2
REMARK    2  A    between atoms: CA_3  and  N_4
REMARK    3  A    between atoms: CA_3  and  C_15
REMARK    4  A    between atoms: C_5  and  C_7
REMARK    5  A    between atoms: C_10  and  O_11
REMARK    6  A    between atoms: O_11  and  C_12
REMARK    7  A    between atoms: C_15  and  OXT_17
REMARK                            x       y       z     vdW  Elec       q    Type
REMARK                         _______ _______ _______ _____ _____    ______ ____
ROOT
ATOM      1  N   UNL     1       3.202   3.798  19.069  0.00  0.00    +0.000 N 
ATOM      2  C   UNL     1       4.552   3.501  19.080  0.00  0.00    +0.000 C 
ATOM      3  O   UNL     1       5.161   2.904  19.958  0.00  0.00    +0.000 OA
ATOM      4  H   UNL     1       2.862   4.346  18.281  0.00  0.00    +0.000 HD
ENDROOT
BRANCH   2   5
ATOM      5  C   UNL     1       5.318   4.008  17.910  0.00  0.00    +0.000 A 
ATOM      6  C   UNL     1       6.596   4.560  18.048  0.00  0.00    +0.000 A 
ATOM      7  C   UNL     1       7.249   5.088  16.933  0.00  0.00    +0.000 A 
ATOM      8  C   UNL     1       6.658   5.040  15.671  0.00  0.00    +0.000 A 
ATOM      9  C   UNL     1       5.403   4.449  15.519  0.00  0.00    +0.000 A 
ATOM     10  C   UNL     1       4.736   3.929  16.635  0.00  0.00    +0.000 A 
BRANCH   8  11
ATOM     11  O   UNL     1       7.387   5.636  14.680  0.00  0.00    +0.000 OA
ATOM     12  C   UNL     1       7.524   4.900  13.471  0.00  0.00    +0.000 C 
ENDBRANCH   8  11
ENDBRANCH   2   5
BRANCH   1  15
ATOM     13  C   UNL     1       0.569   2.163  18.470  0.00  0.00    +0.000 C 
ATOM     14  C   UNL     1       1.114   2.696  19.754  0.00  0.00    +0.000 C 
ATOM     15  CA  UNL     1       2.210   3.444  19.968  0.00  0.00    +0.000 C 
BRANCH  15  16
ATOM     16  C   UNL     1       2.332   4.019  21.357  0.00  0.00    +0.000 C 
ATOM     17  O   UNL     1       2.308   3.384  22.397  0.00  0.00    +0.000 OA
BRANCH  16  18
ATOM     18  OXT UNL     1       2.440   5.370  21.314  0.00  0.00    +0.000 OA
ATOM     19  HXT UNL     1       3.219   5.645  20.795  0.00  0.00    +0.000 HD
ENDBRANCH  16  18
ENDBRANCH  15  16
ENDBRANCH   1  15
TORSDOF 5
ENDMDL
