MODEL 1
REMARK VINA RESULT:      -8.3      0.000      0.000
REMARK  Name = 
REMARK  5 active torsions:
REMARK  status: ('A' for Active; 'I' for Inactive)
REMARK    1  A    between atoms: C_1  and  C_2
REMARK    2  A    between atoms: C_7  and  N_8
REMARK    3  A    between atoms: N_14  and  C_15
REMARK    4  A    between atoms: C_18  and  S_19
REMARK    5  A    between atoms: S_19  and  N_20
REMARK                            x       y       z     vdW  Elec       q    Type
REMARK                         _______ _______ _______ _____ _____    ______ ____
ROOT
ATOM      1  N   UNL     1      -0.705  10.218  18.870  0.00  0.00    +0.000 N 
ATOM      2  C   UNL     1      -1.813  10.458  18.035  0.00  0.00    +0.000 A 
ATOM      3  C   UNL     1      -1.810   9.973  16.746  0.00  0.00    +0.000 A 
ATOM      4  C   UNL     1      -2.916  10.263  15.980  0.00  0.00    +0.000 A 
ATOM      5  N   UNL     1      -3.942  11.022  16.403  0.00  0.00    +0.000 NA
ATOM      6  C   UNL     1      -3.870  11.457  17.665  0.00  0.00    +0.000 A 
ATOM      7  N   UNL     1      -4.881  12.296  18.126  0.00  0.00    +0.000 N 
ATOM      8  N   UNL     1      -2.848  11.174  18.482  0.00  0.00    +0.000 NA
ATOM      9  H   UNL     1      -0.042   9.548  18.502  0.00  0.00    +0.000 HD
ATOM     10  H   UNL     1      -5.520  12.519  17.377  0.00  0.00    +0.000 HD
ENDROOT
BRANCH   1  17
ATOM     11  C   UNL     1      -1.723  12.544  23.169  0.00  0.00    +0.000 C 
ATOM     12  C   UNL     1      -1.077  11.415  22.428  0.00  0.00    +0.000 A 
ATOM     13  C   UNL     1      -0.431  10.372  23.098  0.00  0.00    +0.000 A 
ATOM     14  C   UNL     1       0.161   9.337  22.379  0.00  0.00    +0.000 A 
ATOM     15  C   UNL     1       0.075   9.333  20.986  0.00  0.00    +0.000 A 
ATOM     16  F   UNL     1       0.631   8.312  20.310  0.00  0.00    +0.000 F 
ATOM     17  C   UNL     1      -0.602  10.334  20.279  0.00  0.00    +0.000 A 
ATOM     18  C   UNL     1      -1.136  11.392  21.021  0.00  0.00    +0.000 A 
ENDBRANCH   1  17
BRANCH   7  19
ATOM     19  C   UNL     1      -5.422  12.360  19.422  0.00  0.00    +0.000 A 
ATOM     20  C   UNL     1      -6.579  11.627  19.710  0.00  0.00    +0.000 A 
ATOM     21  C   UNL     1      -7.151  11.661  20.986  0.00  0.00    +0.000 A 
ATOM     22  C   UNL     1      -6.540  12.409  21.993  0.00  0.00    +0.000 A 
ATOM     23  C   UNL     1      -5.399  13.165  21.722  0.00  0.00    +0.000 A 
ATOM     24  C   UNL     1      -4.852  13.143  20.439  0.00  0.00    +0.000 A 
BRANCH  22  25
ATOM     25  S   UNL     1      -7.212  12.396  23.625  0.00  0.00    +0.000 S 
ATOM     26  O   UNL     1      -7.911  13.637  23.869  0.00  0.00    +0.000 OA
ATOM     27  O   UNL     1      -7.807  11.106  23.886  0.00  0.00    +0.000 OA
BRANCH  25  28
ATOM     28  N   UNL     1      -5.812  12.459  24.546  0.00  0.00    +0.000 NA
ATOM     29  H   UNL     1      -5.303  11.578  24.479  0.00  0.00    +0.000 HD
ATOM     30  H   UNL     1      -5.264  13.284  24.303  0.00  0.00    +0.000 HD
ENDBRANCH  25  28
ENDBRANCH  22  25
ENDBRANCH   7  19
TORSDOF 4
ENDMDL
MODEL 2
REMARK VINA RESULT:      -8.0      0.380      1.019
REMARK  Name = 
REMARK  5 active torsions:
REMARK  status: ('A' for Active; 'I' for Inactive)
REMARK    1  A    between atoms: C_1  and  C_2
REMARK    2  A    between atoms: C_7  and  N_8
REMARK    3  A    between atoms: N_14  and  C_15
REMARK    4  A    between atoms: C_18  and  S_19
REMARK    5  A    between atoms: S_19  and  N_20
REMARK                            x       y       z     vdW  Elec       q    Type
REMARK                         _______ _______ _______ _____ _____    ______ ____
ROOT
ATOM      1  N   UNL     1      -0.736  10.204  18.692  0.00  0.00    +0.000 N 
ATOM      2  C   UNL     1      -1.868  10.492  17.907  0.00  0.00    +0.000 A 
ATOM      3  C   UNL     1      -1.937  10.022  16.614  0.00  0.00    +0.000 A 
ATOM      4  C   UNL     1      -3.062  10.360  15.898  0.00  0.00    +0.000 A 
ATOM      5  N   UNL     1      -4.042  11.150  16.372  0.00  0.00    +0.000 NA
ATOM      6  C   UNL     1      -3.902  11.568  17.634  0.00  0.00    +0.000 A 
ATOM      7  N   UNL     1      -4.863  12.436  18.145  0.00  0.00    +0.000 N 
ATOM      8  N   UNL     1      -2.858  11.240  18.404  0.00  0.00    +0.000 NA
ATOM      9  H   UNL     1      -0.113   9.515  18.290  0.00  0.00    +0.000 HD
ATOM     10  H   UNL     1      -5.524  12.690  17.426  0.00  0.00    +0.000 HD
ENDROOT
BRANCH   1  17
ATOM     11  C   UNL     1      -1.749  12.325  23.097  0.00  0.00    +0.000 C 
ATOM     12  C   UNL     1      -1.035  11.282  22.294  0.00  0.00    +0.000 A 
ATOM     13  C   UNL     1      -0.254  10.296  22.904  0.00  0.00    +0.000 A 
ATOM     14  C   UNL     1       0.399   9.340  22.129  0.00  0.00    +0.000 A 
ATOM     15  C   UNL     1       0.240   9.357  20.742  0.00  0.00    +0.000 A 
ATOM     16  F   UNL     1       0.858   8.412  20.012  0.00  0.00    +0.000 F 
ATOM     17  C   UNL     1      -0.570  10.300  20.096  0.00  0.00    +0.000 A 
ATOM     18  C   UNL     1      -1.166  11.282  20.892  0.00  0.00    +0.000 A 
ENDBRANCH   1  17
BRANCH   7  19
ATOM     19  C   UNL     1      -5.346  12.504  19.463  0.00  0.00    +0.000 A 
ATOM     20  C   UNL     1      -4.656  13.285  20.398  0.00  0.00    +0.000 A 
ATOM     21  C   UNL     1      -5.103  13.382  21.721  0.00  0.00    +0.000 A 
ATOM     22  C   UNL     1      -6.269  12.718  22.102  0.00  0.00    +0.000 A 
ATOM     23  C   UNL     1      -6.960  11.916  21.193  0.00  0.00    +0.000 A 
ATOM     24  C   UNL     1      -6.491  11.808  19.883  0.00  0.00    +0.000 A 
BRANCH  22  25
ATOM     25  S   UNL     1      -6.880  12.897  23.749  0.00  0.00    +0.000 S 
ATOM     26  O   UNL     1      -7.057  14.300  24.047  0.00  0.00    +0.000 OA
ATOM     27  O   UNL     1      -7.915  11.918  23.984  0.00  0.00    +0.000 OA
BRANCH  25  28
ATOM     28  N   UNL     1      -5.550  12.393  24.639  0.00  0.00    +0.000 NA
ATOM     29  H   UNL     1      -5.638  12.695  25.608  0.00  0.00    +0.000 HD
ATOM     30  H   UNL     1      -5.402  11.392  24.518  0.00  0.00    +0.000 HD
ENDBRANCH  25  28
ENDBRANCH  22  25
ENDBRANCH   7  19
TORSDOF 4
ENDMDL
MODEL 3
REMARK VINA RESULT:      -7.7      1.554      1.913
REMARK  Name = 
REMARK  5 active torsions:
REMARK  status: ('A' for Active; 'I' for Inactive)
REMARK    1  A    between atoms: C_1  and  C_2
REMARK    2  A    between atoms: C_7  and  N_8
REMARK    3  A    between atoms: N_14  and  C_15
REMARK    4  A    between atoms: C_18  and  S_19
REMARK    5  A    between atoms: S_19  and  N_20
REMARK                            x       y       z     vdW  Elec       q    Type
REMARK                         _______ _______ _______ _____ _____    ______ ____
ROOT
ATOM      1  N   UNL     1      -0.822  10.483  17.730  0.00  0.00    +0.000 N 
ATOM      2  C   UNL     1      -2.114  10.663  17.200  0.00  0.00    +0.000 A 
ATOM      3  C   UNL     1      -2.428  10.117  15.975  0.00  0.00    +0.000 A 
ATOM      4  C   UNL     1      -3.701  10.351  15.508  0.00  0.00    +0.000 A 
ATOM      5  N   UNL     1      -4.606  11.110  16.150  0.00  0.00    +0.000 NA
ATOM      6  C   UNL     1      -4.226  11.607  17.331  0.00  0.00    +0.000 A 
ATOM      7  N   UNL     1      -5.109  12.449  18.002  0.00  0.00    +0.000 N 
ATOM      8  N   UNL     1      -3.021  11.382  17.868  0.00  0.00    +0.000 NA
ATOM      9  H   UNL     1      -0.256   9.808  17.233  0.00  0.00    +0.000 HD
ATOM     10  H   UNL     1      -5.925  12.624  17.434  0.00  0.00    +0.000 HD
ENDROOT
BRANCH   1  17
ATOM     11  C   UNL     1      -0.442   9.014  22.487  0.00  0.00    +0.000 C 
ATOM     12  C   UNL     1      -0.124   9.999  21.406  0.00  0.00    +0.000 A 
ATOM     13  C   UNL     1       0.719  11.091  21.633  0.00  0.00    +0.000 A 
ATOM     14  C   UNL     1       0.995  11.990  20.606  0.00  0.00    +0.000 A 
ATOM     15  C   UNL     1       0.448  11.774  19.340  0.00  0.00    +0.000 A 
ATOM     16  F   UNL     1       0.745  12.639  18.355  0.00  0.00    +0.000 F 
ATOM     17  C   UNL     1      -0.365  10.668  19.059  0.00  0.00    +0.000 A 
ATOM     18  C   UNL     1      -0.673   9.815  20.122  0.00  0.00    +0.000 A 
ENDBRANCH   1  17
BRANCH   7  19
ATOM     19  C   UNL     1      -5.301  12.565  19.389  0.00  0.00    +0.000 A 
ATOM     20  C   UNL     1      -6.513  12.137  19.944  0.00  0.00    +0.000 A 
ATOM     21  C   UNL     1      -6.747  12.234  21.320  0.00  0.00    +0.000 A 
ATOM     22  C   UNL     1      -5.744  12.732  22.153  0.00  0.00    +0.000 A 
ATOM     23  C   UNL     1      -4.537  13.185  21.619  0.00  0.00    +0.000 A 
ATOM     24  C   UNL     1      -4.325  13.106  20.242  0.00  0.00    +0.000 A 
BRANCH  22  25
ATOM     25  S   UNL     1      -6.002  12.786  23.898  0.00  0.00    +0.000 S 
ATOM     26  O   UNL     1      -7.391  12.510  24.189  0.00  0.00    +0.000 OA
ATOM     27  O   UNL     1      -4.920  12.099  24.563  0.00  0.00    +0.000 OA
BRANCH  25  28
ATOM     28  N   UNL     1      -5.776  14.420  24.203  0.00  0.00    +0.000 NA
ATOM     29  H   UNL     1      -5.051  14.552  24.908  0.00  0.00    +0.000 HD
ATOM     30  H   UNL     1      -5.618  14.925  23.332  0.00  0.00    +0.000 HD
ENDBRANCH  25  28
ENDBRANCH  22  25
ENDBRANCH   7  19
TORSDOF 4
ENDMDL
MODEL 4
REMARK VINA RESULT:      -7.7      1.559      1.998
REMARK  Name = 
REMARK  5 active torsions:
REMARK  status: ('A' for Active; 'I' for Inactive)
REMARK    1  A    between atoms: C_1  and  C_2
REMARK    2  A    between atoms: C_7  and  N_8
REMARK    3  A    between atoms: N_14  and  C_15
REMARK    4  A    between atoms: C_18  and  S_19
REMARK    5  A    between atoms: S_19  and  N_20
REMARK                            x       y       z     vdW  Elec       q    Type
REMARK                         _______ _______ _______ _____ _____    ______ ____
ROOT
ATOM      1  N   UNL     1      -0.922  10.697  17.790  0.00  0.00    +0.000 N 
ATOM      2  C   UNL     1      -2.193  10.830  17.199  0.00  0.00    +0.000 A 
ATOM      3  C   UNL     1      -2.423  10.292  15.952  0.00  0.00    +0.000 A 
ATOM      4  C   UNL     1      -3.681  10.479  15.427  0.00  0.00    +0.000 A 
ATOM      5  N   UNL     1      -4.649  11.187  16.035  0.00  0.00    +0.000 NA
ATOM      6  C   UNL     1      -4.348  11.679  17.241  0.00  0.00    +0.000 A 
ATOM      7  N   UNL     1      -5.300  12.470  17.880  0.00  0.00    +0.000 N 
ATOM      8  N   UNL     1      -3.162  11.497  17.833  0.00  0.00    +0.000 NA
ATOM      9  H   UNL     1      -0.304  10.055  17.310  0.00  0.00    +0.000 HD
ATOM     10  H   UNL     1      -6.094  12.620  17.275  0.00  0.00    +0.000 HD
ENDROOT
BRANCH   1  17
ATOM     11  C   UNL     1      -0.348   9.011  22.455  0.00  0.00    +0.000 C 
ATOM     12  C   UNL     1      -0.215  10.111  21.448  0.00  0.00    +0.000 A 
ATOM     13  C   UNL     1       0.386  11.332  21.773  0.00  0.00    +0.000 A 
ATOM     14  C   UNL     1       0.495  12.336  20.814  0.00  0.00    +0.000 A 
ATOM     15  C   UNL     1       0.028  12.102  19.520  0.00  0.00    +0.000 A 
ATOM     16  F   UNL     1       0.163  13.075  18.601  0.00  0.00    +0.000 F 
ATOM     17  C   UNL     1      -0.539  10.878  19.142  0.00  0.00    +0.000 A 
ATOM     18  C   UNL     1      -0.689   9.909  20.138  0.00  0.00    +0.000 A 
ENDBRANCH   1  17
BRANCH   7  19
ATOM     19  C   UNL     1      -5.564  12.554  19.258  0.00  0.00    +0.000 A 
ATOM     20  C   UNL     1      -6.719  11.948  19.764  0.00  0.00    +0.000 A 
ATOM     21  C   UNL     1      -7.021  12.006  21.129  0.00  0.00    +0.000 A 
ATOM     22  C   UNL     1      -6.140  12.648  22.000  0.00  0.00    +0.000 A 
ATOM     23  C   UNL     1      -4.994  13.278  21.514  0.00  0.00    +0.000 A 
ATOM     24  C   UNL     1      -4.716  13.234  20.148  0.00  0.00    +0.000 A 
BRANCH  22  25
ATOM     25  S   UNL     1      -6.474  12.659  23.733  0.00  0.00    +0.000 S 
ATOM     26  O   UNL     1      -5.310  12.196  24.452  0.00  0.00    +0.000 OA
ATOM     27  O   UNL     1      -7.165  13.879  24.079  0.00  0.00    +0.000 OA
BRANCH  25  28
ATOM     28  N   UNL     1      -7.612  11.431  23.846  0.00  0.00    +0.000 NA
ATOM     29  H   UNL     1      -7.285  10.702  24.478  0.00  0.00    +0.000 HD
ATOM     30  H   UNL     1      -8.527  11.816  24.079  0.00  0.00    +0.000 HD
ENDBRANCH  25  28
ENDBRANCH  22  25
ENDBRANCH   7  19
TORSDOF 4
ENDMDL
MODEL 5
REMARK VINA RESULT:      -7.2     10.104     12.068
REMARK  Name = 
REMARK  5 active torsions:
REMARK  status: ('A' for Active; 'I' for Inactive)
REMARK    1  A    between atoms: C_1  and  C_2
REMARK    2  A    between atoms: C_7  and  N_8
REMARK    3  A    between atoms: N_14  and  C_15
REMARK    4  A    between atoms: C_18  and  S_19
REMARK    5  A    between atoms: S_19  and  N_20
REMARK                            x       y       z     vdW  Elec       q    Type
REMARK                         _______ _______ _______ _____ _____    ______ ____
ROOT
ATOM      1  N   UNL     1      10.047  12.061  21.390  0.00  0.00    +0.000 N 
ATOM      2  C   UNL     1      10.128  12.269  20.000  0.00  0.00    +0.000 A 
ATOM      3  C   UNL     1      10.931  11.452  19.236  0.00  0.00    +0.000 A 
ATOM      4  C   UNL     1      10.978  11.726  17.888  0.00  0.00    +0.000 A 
ATOM      5  N   UNL     1      10.339  12.758  17.311  0.00  0.00    +0.000 NA
ATOM      6  C   UNL     1       9.581  13.507  18.120  0.00  0.00    +0.000 A 
ATOM      7  N   UNL     1       8.949  14.622  17.576  0.00  0.00    +0.000 N 
ATOM      8  N   UNL     1       9.451  13.270  19.430  0.00  0.00    +0.000 NA
ATOM      9  H   UNL     1      10.470  11.199  21.709  0.00  0.00    +0.000 HD
ATOM     10  H   UNL     1       9.225  14.746  16.613  0.00  0.00    +0.000 HD
ENDROOT
BRANCH   1  17
ATOM     11  C   UNL     1       6.108  11.390  24.384  0.00  0.00    +0.000 C 
ATOM     12  C   UNL     1       7.168  12.282  23.817  0.00  0.00    +0.000 A 
ATOM     13  C   UNL     1       7.321  13.603  24.248  0.00  0.00    +0.000 A 
ATOM     14  C   UNL     1       8.317  14.409  23.700  0.00  0.00    +0.000 A 
ATOM     15  C   UNL     1       9.179  13.875  22.741  0.00  0.00    +0.000 A 
ATOM     16  F   UNL     1      10.150  14.661  22.241  0.00  0.00    +0.000 F 
ATOM     17  C   UNL     1       9.088  12.544  22.315  0.00  0.00    +0.000 A 
ATOM     18  C   UNL     1       8.044  11.776  22.837  0.00  0.00    +0.000 A 
ENDBRANCH   1  17
BRANCH   7  19
ATOM     19  C   UNL     1       7.693  15.151  17.918  0.00  0.00    +0.000 A 
ATOM     20  C   UNL     1       6.542  14.410  17.622  0.00  0.00    +0.000 A 
ATOM     21  C   UNL     1       5.271  14.897  17.946  0.00  0.00    +0.000 A 
ATOM     22  C   UNL     1       5.153  16.123  18.602  0.00  0.00    +0.000 A 
ATOM     23  C   UNL     1       6.285  16.888  18.887  0.00  0.00    +0.000 A 
ATOM     24  C   UNL     1       7.545  16.403  18.537  0.00  0.00    +0.000 A 
BRANCH  22  25
ATOM     25  S   UNL     1       3.559  16.709  19.082  0.00  0.00    +0.000 S 
ATOM     26  O   UNL     1       2.738  15.592  19.492  0.00  0.00    +0.000 OA
ATOM     27  O   UNL     1       3.709  17.897  19.889  0.00  0.00    +0.000 OA
BRANCH  25  28
ATOM     28  N   UNL     1       2.950  17.220  17.605  0.00  0.00    +0.000 NA
ATOM     29  H   UNL     1       2.368  18.048  17.730  0.00  0.00    +0.000 HD
ATOM     30  H   UNL     1       3.705  17.330  16.929  0.00  0.00    +0.000 HD
ENDBRANCH  25  28
ENDBRANCH  22  25
ENDBRANCH   7  19
TORSDOF 4
ENDMDL
MODEL 6
REMARK VINA RESULT:      -7.2      7.197      9.723
REMARK  Name = 
REMARK  5 active torsions:
REMARK  status: ('A' for Active; 'I' for Inactive)
REMARK    1  A    between atoms: C_1  and  C_2
REMARK    2  A    between atoms: C_7  and  N_8
REMARK    3  A    between atoms: N_14  and  C_15
REMARK    4  A    between atoms: C_18  and  S_19
REMARK    5  A    between atoms: S_19  and  N_20
REMARK                            x       y       z     vdW  Elec       q    Type
REMARK                         _______ _______ _______ _____ _____    ______ ____
ROOT
ATOM      1  N   UNL     1       5.260   3.501  18.672  0.00  0.00    +0.000 N 
ATOM      2  C   UNL     1       4.259   3.434  19.659  0.00  0.00    +0.000 A 
ATOM      3  C   UNL     1       4.266   2.397  20.565  0.00  0.00    +0.000 A 
ATOM      4  C   UNL     1       3.245   2.383  21.488  0.00  0.00    +0.000 A 
ATOM      5  N   UNL     1       2.242   3.278  21.509  0.00  0.00    +0.000 NA
ATOM      6  C   UNL     1       2.305   4.253  20.596  0.00  0.00    +0.000 A 
ATOM      7  N   UNL     1       1.255   5.166  20.543  0.00  0.00    +0.000 N 
ATOM      8  N   UNL     1       3.292   4.356  19.699  0.00  0.00    +0.000 NA
ATOM      9  H   UNL     1       6.026   2.854  18.809  0.00  0.00    +0.000 HD
ATOM     10  H   UNL     1       0.529   4.904  21.192  0.00  0.00    +0.000 HD
ENDROOT
BRANCH   1  17
ATOM     11  C   UNL     1       7.930   7.637  17.834  0.00  0.00    +0.000 C 
ATOM     12  C   UNL     1       6.933   6.621  17.369  0.00  0.00    +0.000 A 
ATOM     13  C   UNL     1       6.409   6.648  16.073  0.00  0.00    +0.000 A 
ATOM     14  C   UNL     1       5.483   5.689  15.670  0.00  0.00    +0.000 A 
ATOM     15  C   UNL     1       5.107   4.683  16.562  0.00  0.00    +0.000 A 
ATOM     16  F   UNL     1       4.229   3.752  16.148  0.00  0.00    +0.000 F 
ATOM     17  C   UNL     1       5.641   4.594  17.854  0.00  0.00    +0.000 A 
ATOM     18  C   UNL     1       6.524   5.602  18.251  0.00  0.00    +0.000 A 
ENDBRANCH   1  17
BRANCH   7  19
ATOM     19  C   UNL     1       1.322   6.535  20.229  0.00  0.00    +0.000 A 
ATOM     20  C   UNL     1       1.860   6.922  18.996  0.00  0.00    +0.000 A 
ATOM     21  C   UNL     1       1.944   8.273  18.642  0.00  0.00    +0.000 A 
ATOM     22  C   UNL     1       1.455   9.244  19.517  0.00  0.00    +0.000 A 
ATOM     23  C   UNL     1       0.935   8.882  20.761  0.00  0.00    +0.000 A 
ATOM     24  C   UNL     1       0.879   7.533  21.112  0.00  0.00    +0.000 A 
BRANCH  22  25
ATOM     25  S   UNL     1       1.488  10.944  19.046  0.00  0.00    +0.000 S 
ATOM     26  O   UNL     1       1.403  11.774  20.226  0.00  0.00    +0.000 OA
ATOM     27  O   UNL     1       2.499  11.140  18.032  0.00  0.00    +0.000 OA
BRANCH  25  28
ATOM     28  N   UNL     1       0.010  11.087  18.265  0.00  0.00    +0.000 NA
ATOM     29  H   UNL     1      -0.522  11.865  18.654  0.00  0.00    +0.000 HD
ATOM     30  H   UNL     1       0.146  11.129  17.255  0.00  0.00    +0.000 HD
ENDBRANCH  25  28
ENDBRANCH  22  25
ENDBRANCH   7  19
TORSDOF 4
ENDMDL
MODEL 7
REMARK VINA RESULT:      -7.1     10.068     12.038
REMARK  Name = 
REMARK  5 active torsions:
REMARK  status: ('A' for Active; 'I' for Inactive)
REMARK    1  A    between atoms: C_1  and  C_2
REMARK    2  A    between atoms: C_7  and  N_8
REMARK    3  A    between atoms: N_14  and  C_15
REMARK    4  A    between atoms: C_18  and  S_19
REMARK    5  A    between atoms: S_19  and  N_20
REMARK                            x       y       z     vdW  Elec       q    Type
REMARK                         _______ _______ _______ _____ _____    ______ ____
ROOT
ATOM      1  N   UNL     1       9.981  12.065  21.458  0.00  0.00    +0.000 N 
ATOM      2  C   UNL     1      10.072  12.261  20.067  0.00  0.00    +0.000 A 
ATOM      3  C   UNL     1      10.894  11.447  19.319  0.00  0.00    +0.000 A 
ATOM      4  C   UNL     1      10.950  11.709  17.969  0.00  0.00    +0.000 A 
ATOM      5  N   UNL     1      10.301  12.726  17.376  0.00  0.00    +0.000 NA
ATOM      6  C   UNL     1       9.525  13.472  18.169  0.00  0.00    +0.000 A 
ATOM      7  N   UNL     1       8.883  14.572  17.608  0.00  0.00    +0.000 N 
ATOM      8  N   UNL     1       9.386  13.246  19.481  0.00  0.00    +0.000 NA
ATOM      9  H   UNL     1      10.412  11.212  21.789  0.00  0.00    +0.000 HD
ATOM     10  H   UNL     1       9.166  14.691  16.647  0.00  0.00    +0.000 HD
ENDROOT
BRANCH   1  17
ATOM     11  C   UNL     1       6.051  11.357  24.457  0.00  0.00    +0.000 C 
ATOM     12  C   UNL     1       7.088  12.265  23.872  0.00  0.00    +0.000 A 
ATOM     13  C   UNL     1       7.204  13.599  24.272  0.00  0.00    +0.000 A 
ATOM     14  C   UNL     1       8.180  14.418  23.708  0.00  0.00    +0.000 A 
ATOM     15  C   UNL     1       9.059  13.886  22.764  0.00  0.00    +0.000 A 
ATOM     16  F   UNL     1      10.009  14.686  22.248  0.00  0.00    +0.000 F 
ATOM     17  C   UNL     1       9.006  12.544  22.369  0.00  0.00    +0.000 A 
ATOM     18  C   UNL     1       7.981  11.760  22.907  0.00  0.00    +0.000 A 
ENDBRANCH   1  17
BRANCH   7  19
ATOM     19  C   UNL     1       7.616  15.086  17.933  0.00  0.00    +0.000 A 
ATOM     20  C   UNL     1       7.531  16.342  18.545  0.00  0.00    +0.000 A 
ATOM     21  C   UNL     1       6.290  16.892  18.886  0.00  0.00    +0.000 A 
ATOM     22  C   UNL     1       5.122  16.193  18.580  0.00  0.00    +0.000 A 
ATOM     23  C   UNL     1       5.184  14.929  17.991  0.00  0.00    +0.000 A 
ATOM     24  C   UNL     1       6.428  14.381  17.678  0.00  0.00    +0.000 A 
BRANCH  22  25
ATOM     25  S   UNL     1       3.551  16.914  18.937  0.00  0.00    +0.000 S 
ATOM     26  O   UNL     1       3.687  17.851  20.028  0.00  0.00    +0.000 OA
ATOM     27  O   UNL     1       2.890  17.256  17.699  0.00  0.00    +0.000 OA
BRANCH  25  28
ATOM     28  N   UNL     1       2.726  15.591  19.556  0.00  0.00    +0.000 NA
ATOM     29  H   UNL     1       2.749  15.605  20.575  0.00  0.00    +0.000 HD
ATOM     30  H   UNL     1       1.791  15.536  19.153  0.00  0.00    +0.000 HD
ENDBRANCH  25  28
ENDBRANCH  22  25
ENDBRANCH   7  19
TORSDOF 4
ENDMDL
MODEL 8
REMARK VINA RESULT:      -7.0      2.447      4.563
REMARK  Name = 
REMARK  5 active torsions:
REMARK  status: ('A' for Active; 'I' for Inactive)
REMARK    1  A    between atoms: C_1  and  C_2
REMARK    2  A    between atoms: C_7  and  N_8
REMARK    3  A    between atoms: N_14  and  C_15
REMARK    4  A    between atoms: C_18  and  S_19
REMARK    5  A    between atoms: S_19  and  N_20
REMARK                            x       y       z     vdW  Elec       q    Type
REMARK                         _______ _______ _______ _____ _____    ______ ____
ROOT
ATOM      1  N   UNL     1      -0.358  12.147  19.023  0.00  0.00    +0.000 N 
ATOM      2  C   UNL     1      -0.076  12.912  20.171  0.00  0.00    +0.000 A 
ATOM      3  C   UNL     1       1.069  13.677  20.213  0.00  0.00    +0.000 A 
ATOM      4  C   UNL     1       1.292  14.382  21.374  0.00  0.00    +0.000 A 
ATOM      5  N   UNL     1       0.496  14.316  22.454  0.00  0.00    +0.000 NA
ATOM      6  C   UNL     1      -0.594  13.551  22.337  0.00  0.00    +0.000 A 
ATOM      7  N   UNL     1      -1.414  13.406  23.452  0.00  0.00    +0.000 N 
ATOM      8  N   UNL     1      -0.899  12.875  21.223  0.00  0.00    +0.000 NA
ATOM      9  H   UNL     1       0.234  12.351  18.229  0.00  0.00    +0.000 HD
ATOM     10  H   UNL     1      -1.007  13.872  24.249  0.00  0.00    +0.000 HD
ENDROOT
BRANCH   1  17
ATOM     11  C   UNL     1      -5.335  12.167  18.628  0.00  0.00    +0.000 C 
ATOM     12  C   UNL     1      -4.018  11.500  18.381  0.00  0.00    +0.000 A 
ATOM     13  C   UNL     1      -3.925  10.307  17.657  0.00  0.00    +0.000 A 
ATOM     14  C   UNL     1      -2.685   9.710  17.445  0.00  0.00    +0.000 A 
ATOM     15  C   UNL     1      -1.533  10.330  17.933  0.00  0.00    +0.000 A 
ATOM     16  F   UNL     1      -0.342   9.752  17.698  0.00  0.00    +0.000 F 
ATOM     17  C   UNL     1      -1.579  11.548  18.623  0.00  0.00    +0.000 A 
ATOM     18  C   UNL     1      -2.841  12.095  18.873  0.00  0.00    +0.000 A 
ENDBRANCH   1  17
BRANCH   7  19
ATOM     19  C   UNL     1      -2.813  13.272  23.479  0.00  0.00    +0.000 A 
ATOM     20  C   UNL     1      -3.580  13.981  22.547  0.00  0.00    +0.000 A 
ATOM     21  C   UNL     1      -4.975  13.876  22.537  0.00  0.00    +0.000 A 
ATOM     22  C   UNL     1      -5.606  13.027  23.447  0.00  0.00    +0.000 A 
ATOM     23  C   UNL     1      -4.864  12.328  24.399  0.00  0.00    +0.000 A 
ATOM     24  C   UNL     1      -3.475  12.460  24.415  0.00  0.00    +0.000 A 
BRANCH  22  25
ATOM     25  S   UNL     1      -7.360  12.831  23.391  0.00  0.00    +0.000 S 
ATOM     26  O   UNL     1      -7.892  13.572  22.270  0.00  0.00    +0.000 OA
ATOM     27  O   UNL     1      -7.694  11.448  23.635  0.00  0.00    +0.000 OA
BRANCH  25  28
ATOM     28  N   UNL     1      -7.819  13.672  24.768  0.00  0.00    +0.000 NA
ATOM     29  H   UNL     1      -8.741  14.086  24.639  0.00  0.00    +0.000 HD
ATOM     30  H   UNL     1      -7.731  13.078  25.592  0.00  0.00    +0.000 HD
ENDBRANCH  25  28
ENDBRANCH  22  25
ENDBRANCH   7  19
TORSDOF 4
ENDMDL
MODEL 9
REMARK VINA RESULT:      -7.0      1.495      1.888
REMARK  Name = 
REMARK  5 active torsions:
REMARK  status: ('A' for Active; 'I' for Inactive)
REMARK    1  A    between atoms: C_1  and  C_2
REMARK    2  A    between atoms: C_7  and  N_8
REMARK    3  A    between atoms: N_14  and  C_15
REMARK    4  A    between atoms: C_18  and  S_19
REMARK    5  A    between atoms: S_19  and  N_20
REMARK                            x       y       z     vdW  Elec       q    Type
REMARK                         _______ _______ _______ _____ _____    ______ ____
ROOT
ATOM      1  N   UNL     1      -0.967  11.494  17.783  0.00  0.00    +0.000 N 
ATOM      2  C   UNL     1      -2.258  11.329  17.247  0.00  0.00    +0.000 A 
ATOM      3  C   UNL     1      -2.415  10.702  16.031  0.00  0.00    +0.000 A 
ATOM      4  C   UNL     1      -3.703  10.595  15.558  0.00  0.00    +0.000 A 
ATOM      5  N   UNL     1      -4.775  11.107  16.185  0.00  0.00    +0.000 NA
ATOM      6  C   UNL     1      -4.542  11.702  17.360  0.00  0.00    +0.000 A 
ATOM      7  N   UNL     1      -5.616  12.299  18.014  0.00  0.00    +0.000 N 
ATOM      8  N   UNL     1      -3.323  11.801  17.902  0.00  0.00    +0.000 NA
ATOM      9  H   UNL     1      -0.244  10.979  17.297  0.00  0.00    +0.000 HD
ATOM     10  H   UNL     1      -6.446  12.251  17.443  0.00  0.00    +0.000 HD
ENDROOT
BRANCH   1  17
ATOM     11  C   UNL     1       0.440  14.762  21.286  0.00  0.00    +0.000 C 
ATOM     12  C   UNL     1       0.097  13.362  20.883  0.00  0.00    +0.000 A 
ATOM     13  C   UNL     1       0.046  12.322  21.816  0.00  0.00    +0.000 A 
ATOM     14  C   UNL     1      -0.275  11.029  21.409  0.00  0.00    +0.000 A 
ATOM     15  C   UNL     1      -0.576  10.788  20.068  0.00  0.00    +0.000 A 
ATOM     16  F   UNL     1      -0.908   9.538  19.698  0.00  0.00    +0.000 F 
ATOM     17  C   UNL     1      -0.581  11.810  19.109  0.00  0.00    +0.000 A 
ATOM     18  C   UNL     1      -0.197  13.085  19.534  0.00  0.00    +0.000 A 
ENDBRANCH   1  17
BRANCH   7  19
ATOM     19  C   UNL     1      -5.839  12.383  19.400  0.00  0.00    +0.000 A 
ATOM     20  C   UNL     1      -4.870  12.990  20.207  0.00  0.00    +0.000 A 
ATOM     21  C   UNL     1      -5.051  13.096  21.590  0.00  0.00    +0.000 A 
ATOM     22  C   UNL     1      -6.230  12.619  22.166  0.00  0.00    +0.000 A 
ATOM     23  C   UNL     1      -7.199  11.991  21.384  0.00  0.00    +0.000 A 
ATOM     24  C   UNL     1      -6.996  11.870  20.009  0.00  0.00    +0.000 A 
BRANCH  22  25
ATOM     25  S   UNL     1      -6.499  12.818  23.899  0.00  0.00    +0.000 S 
ATOM     26  O   UNL     1      -7.916  12.768  24.176  0.00  0.00    +0.000 OA
ATOM     27  O   UNL     1      -5.538  12.023  24.627  0.00  0.00    +0.000 OA
BRANCH  25  28
ATOM     28  N   UNL     1      -6.038  14.417  24.112  0.00  0.00    +0.000 NA
ATOM     29  H   UNL     1      -5.310  14.667  23.444  0.00  0.00    +0.000 HD
ATOM     30  H   UNL     1      -6.856  15.027  24.096  0.00  0.00    +0.000 HD
ENDBRANCH  25  28
ENDBRANCH  22  25
ENDBRANCH   7  19
TORSDOF 4
ENDMDL
