MODEL 1
REMARK VINA RESULT:      -8.7      0.000      0.000
REMARK  Name = 
REMARK  7 active torsions:
REMARK  status: ('A' for Active; 'I' for Inactive)
REMARK    1  A    between atoms: C_2  and  C_3
REMARK    2  A    between atoms: C_3  and  O_4
REMARK    3  A    between atoms: O_4  and  C_5
REMARK    4  A    between atoms: N_20  and  CA_21
REMARK    5  A    between atoms: CA_21  and  C_22
REMARK    6  A    between atoms: CA_21  and  C_24
REMARK    7  A    between atoms: C_22  and  O_23
REMARK                            x       y       z     vdW  Elec       q    Type
REMARK                         _______ _______ _______ _____ _____    ______ ____
ROOT
ATOM      1  O   UNL     1       7.489   6.952  16.917  0.00  0.00    +0.000 OA
ENDROOT
BRANCH   1   2
ATOM      2  C   UNL     1       6.394   6.133  16.951  0.00  0.00    +0.000 A 
ATOM      3  C   UNL     1       5.864   5.437  15.861  0.00  0.00    +0.000 A 
ATOM      4  C   UNL     1       4.745   4.617  16.025  0.00  0.00    +0.000 A 
ATOM      5  C   UNL     1       4.155   4.496  17.284  0.00  0.00    +0.000 A 
ATOM      6  C   UNL     1       2.992   3.619  17.489  0.00  0.00    +0.000 A 
ATOM      7  O   UNL     1       2.493   2.991  16.561  0.00  0.00    +0.000 OA
ATOM      8  C   UNL     1       2.466   3.529  18.855  0.00  0.00    +0.000 A 
ATOM      9  C   UNL     1       1.384   2.692  19.150  0.00  0.00    +0.000 A 
ATOM     10  C   UNL     1       0.901   2.625  20.457  0.00  0.00    +0.000 A 
ATOM     11  C   UNL     1       1.494   3.396  21.460  0.00  0.00    +0.000 A 
ATOM     12  C   UNL     1       2.577   4.229  21.158  0.00  0.00    +0.000 A 
ATOM     13  C   UNL     1       3.065   4.297  19.851  0.00  0.00    +0.000 A 
ATOM     14  O   UNL     1       4.137   5.128  19.641  0.00  0.00    +0.000 OA
ATOM     15  C   UNL     1       4.666   5.194  18.375  0.00  0.00    +0.000 A 
ATOM     16  C   UNL     1       5.784   6.014  18.205  0.00  0.00    +0.000 A 
ENDBRANCH   1   2
BRANCH   1  17
ATOM     17  C   UNL     1       7.270   8.316  17.274  0.00  0.00    +0.000 C 
BRANCH  17  19
ATOM     18  O   UNL     1       8.894   8.056  19.050  0.00  0.00    +0.000 OA
ATOM     19  C   UNL     1       8.337   8.805  18.252  0.00  0.00    +0.000 C 
ATOM     20  N   UNL     1       8.683  10.128  18.089  0.00  0.00    +0.000 N 
ATOM     21  H   UNL     1       8.008  10.693  17.583  0.00  0.00    +0.000 HD
BRANCH  20  22
ATOM     22  CA  UNL     1       9.668  10.775  18.939  0.00  0.00    +0.000 C 
BRANCH  22  23
ATOM     23  C   UNL     1      10.277  12.000  18.277  0.00  0.00    +0.000 A 
ATOM     24  C   UNL     1      11.594  11.934  17.790  0.00  0.00    +0.000 A 
ATOM     25  C   UNL     1      12.231  13.075  17.299  0.00  0.00    +0.000 A 
ATOM     26  C   UNL     1      11.558  14.294  17.276  0.00  0.00    +0.000 A 
ATOM     27  C   UNL     1      10.244  14.371  17.730  0.00  0.00    +0.000 A 
ATOM     28  C   UNL     1       9.609  13.235  18.232  0.00  0.00    +0.000 A 
ENDBRANCH  22  23
BRANCH  22  29
ATOM     29  C   UNL     1       9.092  11.186  20.317  0.00  0.00    +0.000 C 
BRANCH  29  30
ATOM     30  O   UNL     1      10.090  11.479  21.291  0.00  0.00    +0.000 OA
ATOM     31  H   UNL     1      10.696  12.139  20.906  0.00  0.00    +0.000 HD
ENDBRANCH  29  30
ENDBRANCH  22  29
ENDBRANCH  20  22
ENDBRANCH  17  19
ENDBRANCH   1  17
TORSDOF 7
ENDMDL
MODEL 2
REMARK VINA RESULT:      -8.7      4.855      7.601
REMARK  Name = 
REMARK  7 active torsions:
REMARK  status: ('A' for Active; 'I' for Inactive)
REMARK    1  A    between atoms: C_2  and  C_3
REMARK    2  A    between atoms: C_3  and  O_4
REMARK    3  A    between atoms: O_4  and  C_5
REMARK    4  A    between atoms: N_20  and  CA_21
REMARK    5  A    between atoms: CA_21  and  C_22
REMARK    6  A    between atoms: CA_21  and  C_24
REMARK    7  A    between atoms: C_22  and  O_23
REMARK                            x       y       z     vdW  Elec       q    Type
REMARK                         _______ _______ _______ _____ _____    ______ ____
ROOT
ATOM      1  O   UNL     1       2.999   4.675  19.492  0.00  0.00    +0.000 OA
ENDROOT
BRANCH   1   2
ATOM      2  C   UNL     1       2.558   5.967  19.398  0.00  0.00    +0.000 A 
ATOM      3  C   UNL     1       2.699   6.795  18.281  0.00  0.00    +0.000 A 
ATOM      4  C   UNL     1       2.193   8.097  18.302  0.00  0.00    +0.000 A 
ATOM      5  C   UNL     1       1.546   8.570  19.445  0.00  0.00    +0.000 A 
ATOM      6  C   UNL     1       0.980   9.927  19.482  0.00  0.00    +0.000 A 
ATOM      7  O   UNL     1       1.083  10.689  18.526  0.00  0.00    +0.000 OA
ATOM      8  C   UNL     1       0.287  10.319  20.713  0.00  0.00    +0.000 A 
ATOM      9  C   UNL     1      -0.312  11.579  20.826  0.00  0.00    +0.000 A 
ATOM     10  C   UNL     1      -0.965  11.929  22.008  0.00  0.00    +0.000 A 
ATOM     11  C   UNL     1      -1.012  11.024  23.072  0.00  0.00    +0.000 A 
ATOM     12  C   UNL     1      -0.413   9.766  22.952  0.00  0.00    +0.000 A 
ATOM     13  C   UNL     1       0.240   9.412  21.769  0.00  0.00    +0.000 A 
ATOM     14  O   UNL     1       0.791   8.154  21.727  0.00  0.00    +0.000 OA
ATOM     15  C   UNL     1       1.411   7.758  20.567  0.00  0.00    +0.000 A 
ATOM     16  C   UNL     1       1.920   6.458  20.542  0.00  0.00    +0.000 A 
ENDBRANCH   1   2
BRANCH   1  17
ATOM     17  C   UNL     1       3.352   4.036  18.265  0.00  0.00    +0.000 C 
BRANCH  17  19
ATOM     18  O   UNL     1       5.698   3.877  18.837  0.00  0.00    +0.000 OA
ATOM     19  C   UNL     1       4.850   4.156  17.995  0.00  0.00    +0.000 C 
ATOM     20  N   UNL     1       5.159   4.507  16.699  0.00  0.00    +0.000 N 
ATOM     21  H   UNL     1       4.404   4.937  16.175  0.00  0.00    +0.000 HD
BRANCH  20  22
ATOM     22  CA  UNL     1       6.533   4.686  16.258  0.00  0.00    +0.000 C 
BRANCH  22  23
ATOM     23  C   UNL     1       6.664   4.594  14.747  0.00  0.00    +0.000 A 
ATOM     24  C   UNL     1       5.869   3.673  14.043  0.00  0.00    +0.000 A 
ATOM     25  C   UNL     1       6.058   3.467  12.676  0.00  0.00    +0.000 A 
ATOM     26  C   UNL     1       7.033   4.185  11.990  0.00  0.00    +0.000 A 
ATOM     27  C   UNL     1       7.812   5.120  12.667  0.00  0.00    +0.000 A 
ATOM     28  C   UNL     1       7.634   5.320  14.036  0.00  0.00    +0.000 A 
ENDBRANCH  22  23
BRANCH  22  29
ATOM     29  C   UNL     1       7.143   6.028  16.732  0.00  0.00    +0.000 C 
BRANCH  29  30
ATOM     30  O   UNL     1       6.234   7.125  16.672  0.00  0.00    +0.000 OA
ATOM     31  H   UNL     1       5.792   7.192  17.539  0.00  0.00    +0.000 HD
ENDBRANCH  29  30
ENDBRANCH  22  29
ENDBRANCH  20  22
ENDBRANCH  17  19
ENDBRANCH   1  17
TORSDOF 7
ENDMDL
MODEL 3
REMARK VINA RESULT:      -8.6      5.439      8.002
REMARK  Name = 
REMARK  7 active torsions:
REMARK  status: ('A' for Active; 'I' for Inactive)
REMARK    1  A    between atoms: C_2  and  C_3
REMARK    2  A    between atoms: C_3  and  O_4
REMARK    3  A    between atoms: O_4  and  C_5
REMARK    4  A    between atoms: N_20  and  CA_21
REMARK    5  A    between atoms: CA_21  and  C_22
REMARK    6  A    between atoms: CA_21  and  C_24
REMARK    7  A    between atoms: C_22  and  O_23
REMARK                            x       y       z     vdW  Elec       q    Type
REMARK                         _______ _______ _______ _____ _____    ______ ____
ROOT
ATOM      1  O   UNL     1       3.187   5.984  18.875  0.00  0.00    +0.000 OA
ENDROOT
BRANCH   1   2
ATOM      2  C   UNL     1       2.539   7.188  18.922  0.00  0.00    +0.000 A 
ATOM      3  C   UNL     1       2.467   8.114  17.878  0.00  0.00    +0.000 A 
ATOM      4  C   UNL     1       1.762   9.308  18.043  0.00  0.00    +0.000 A 
ATOM      5  C   UNL     1       1.129   9.575  19.258  0.00  0.00    +0.000 A 
ATOM      6  C   UNL     1       0.357  10.813  19.449  0.00  0.00    +0.000 A 
ATOM      7  O   UNL     1       0.269  11.655  18.561  0.00  0.00    +0.000 OA
ATOM      8  C   UNL     1      -0.302  10.987  20.747  0.00  0.00    +0.000 A 
ATOM      9  C   UNL     1      -1.086  12.117  21.005  0.00  0.00    +0.000 A 
ATOM     10  C   UNL     1      -1.702  12.260  22.249  0.00  0.00    +0.000 A 
ATOM     11  C   UNL     1      -1.529  11.279  23.228  0.00  0.00    +0.000 A 
ATOM     12  C   UNL     1      -0.746  10.150  22.963  0.00  0.00    +0.000 A 
ATOM     13  C   UNL     1      -0.129  10.003  21.718  0.00  0.00    +0.000 A 
ATOM     14  O   UNL     1       0.612   8.862  21.533  0.00  0.00    +0.000 OA
ATOM     15  C   UNL     1       1.204   8.666  20.309  0.00  0.00    +0.000 A 
ATOM     16  C   UNL     1       1.912   7.475  20.140  0.00  0.00    +0.000 A 
ENDBRANCH   1   2
BRANCH   1  17
ATOM     17  C   UNL     1       2.828   5.114  17.802  0.00  0.00    +0.000 C 
BRANCH  17  19
ATOM     18  O   UNL     1       3.993   2.998  17.639  0.00  0.00    +0.000 OA
ATOM     19  C   UNL     1       3.995   4.206  17.418  0.00  0.00    +0.000 C 
ATOM     20  N   UNL     1       4.995   4.845  16.719  0.00  0.00    +0.000 N 
ATOM     21  H   UNL     1       5.007   5.855  16.805  0.00  0.00    +0.000 HD
BRANCH  20  22
ATOM     22  CA  UNL     1       6.194   4.147  16.283  0.00  0.00    +0.000 C 
BRANCH  22  23
ATOM     23  C   UNL     1       6.427   4.290  14.788  0.00  0.00    +0.000 A 
ATOM     24  C   UNL     1       5.679   3.500  13.898  0.00  0.00    +0.000 A 
ATOM     25  C   UNL     1       5.959   3.507  12.531  0.00  0.00    +0.000 A 
ATOM     26  C   UNL     1       6.980   4.312  12.032  0.00  0.00    +0.000 A 
ATOM     27  C   UNL     1       7.712   5.120  12.897  0.00  0.00    +0.000 A 
ATOM     28  C   UNL     1       7.443   5.107  14.266  0.00  0.00    +0.000 A 
ENDBRANCH  22  23
BRANCH  22  29
ATOM     29  C   UNL     1       7.465   4.616  17.034  0.00  0.00    +0.000 C 
BRANCH  29  30
ATOM     30  O   UNL     1       7.202   5.147  18.331  0.00  0.00    +0.000 OA
ATOM     31  H   UNL     1       7.789   4.692  18.963  0.00  0.00    +0.000 HD
ENDBRANCH  29  30
ENDBRANCH  22  29
ENDBRANCH  20  22
ENDBRANCH  17  19
ENDBRANCH   1  17
TORSDOF 7
ENDMDL
MODEL 4
REMARK VINA RESULT:      -8.5      1.713      2.567
REMARK  Name = 
REMARK  7 active torsions:
REMARK  status: ('A' for Active; 'I' for Inactive)
REMARK    1  A    between atoms: C_2  and  C_3
REMARK    2  A    between atoms: C_3  and  O_4
REMARK    3  A    between atoms: O_4  and  C_5
REMARK    4  A    between atoms: N_20  and  CA_21
REMARK    5  A    between atoms: CA_21  and  C_22
REMARK    6  A    between atoms: CA_21  and  C_24
REMARK    7  A    between atoms: C_22  and  O_23
REMARK                            x       y       z     vdW  Elec       q    Type
REMARK                         _______ _______ _______ _____ _____    ______ ____
ROOT
ATOM      1  O   UNL     1       7.649   7.695  17.068  0.00  0.00    +0.000 OA
ENDROOT
BRANCH   1   2
ATOM      2  C   UNL     1       6.812   6.615  17.151  0.00  0.00    +0.000 A 
ATOM      3  C   UNL     1       6.958   5.418  16.445  0.00  0.00    +0.000 A 
ATOM      4  C   UNL     1       6.043   4.378  16.624  0.00  0.00    +0.000 A 
ATOM      5  C   UNL     1       4.979   4.539  17.513  0.00  0.00    +0.000 A 
ATOM      6  C   UNL     1       4.017   3.450  17.741  0.00  0.00    +0.000 A 
ATOM      7  O   UNL     1       4.105   2.383  17.141  0.00  0.00    +0.000 OA
ATOM      8  C   UNL     1       2.955   3.701  18.720  0.00  0.00    +0.000 A 
ATOM      9  C   UNL     1       2.016   2.709  19.027  0.00  0.00    +0.000 A 
ATOM     10  C   UNL     1       1.015   2.973  19.961  0.00  0.00    +0.000 A 
ATOM     11  C   UNL     1       0.952   4.224  20.581  0.00  0.00    +0.000 A 
ATOM     12  C   UNL     1       1.895   5.210  20.271  0.00  0.00    +0.000 A 
ATOM     13  C   UNL     1       2.900   4.949  19.337  0.00  0.00    +0.000 A 
ATOM     14  O   UNL     1       3.794   5.964  19.099  0.00  0.00    +0.000 OA
ATOM     15  C   UNL     1       4.817   5.731  18.213  0.00  0.00    +0.000 A 
ATOM     16  C   UNL     1       5.733   6.768  18.028  0.00  0.00    +0.000 A 
ENDBRANCH   1   2
BRANCH   1  17
ATOM     17  C   UNL     1       8.215   8.151  18.296  0.00  0.00    +0.000 C 
BRANCH  17  19
ATOM     18  O   UNL     1       7.919  10.421  17.508  0.00  0.00    +0.000 OA
ATOM     19  C   UNL     1       8.537   9.643  18.230  0.00  0.00    +0.000 C 
ATOM     20  N   UNL     1       9.506  10.047  19.121  0.00  0.00    +0.000 N 
ATOM     21  H   UNL     1      10.099   9.307  19.481  0.00  0.00    +0.000 HD
BRANCH  20  22
ATOM     22  CA  UNL     1       9.957  11.427  19.192  0.00  0.00    +0.000 C 
BRANCH  22  23
ATOM     23  C   UNL     1       9.498  12.112  20.469  0.00  0.00    +0.000 A 
ATOM     24  C   UNL     1       9.848  13.455  20.692  0.00  0.00    +0.000 A 
ATOM     25  C   UNL     1       9.560  14.074  21.910  0.00  0.00    +0.000 A 
ATOM     26  C   UNL     1       8.908  13.366  22.915  0.00  0.00    +0.000 A 
ATOM     27  C   UNL     1       8.530  12.043  22.700  0.00  0.00    +0.000 A 
ATOM     28  C   UNL     1       8.827  11.418  21.489  0.00  0.00    +0.000 A 
ENDBRANCH  22  23
BRANCH  22  29
ATOM     29  C   UNL     1      11.496  11.561  19.078  0.00  0.00    +0.000 C 
BRANCH  29  30
ATOM     30  O   UNL     1      11.982  11.465  17.742  0.00  0.00    +0.000 OA
ATOM     31  H   UNL     1      12.474  12.284  17.544  0.00  0.00    +0.000 HD
ENDBRANCH  29  30
ENDBRANCH  22  29
ENDBRANCH  20  22
ENDBRANCH  17  19
ENDBRANCH   1  17
TORSDOF 7
ENDMDL
MODEL 5
REMARK VINA RESULT:      -8.4      2.351     10.808
REMARK  Name = 
REMARK  7 active torsions:
REMARK  status: ('A' for Active; 'I' for Inactive)
REMARK    1  A    between atoms: C_2  and  C_3
REMARK    2  A    between atoms: C_3  and  O_4
REMARK    3  A    between atoms: O_4  and  C_5
REMARK    4  A    between atoms: N_20  and  CA_21
REMARK    5  A    between atoms: CA_21  and  C_22
REMARK    6  A    between atoms: CA_21  and  C_24
REMARK    7  A    between atoms: C_22  and  O_23
REMARK                            x       y       z     vdW  Elec       q    Type
REMARK                         _______ _______ _______ _____ _____    ______ ____
ROOT
ATOM      1  O   UNL     1       9.111   9.075  19.127  0.00  0.00    +0.000 OA
ENDROOT
BRANCH   1   2
ATOM      2  C   UNL     1       9.347  10.363  19.524  0.00  0.00    +0.000 A 
ATOM      3  C   UNL     1       9.221  10.847  20.829  0.00  0.00    +0.000 A 
ATOM      4  C   UNL     1       9.504  12.185  21.114  0.00  0.00    +0.000 A 
ATOM      5  C   UNL     1       9.912  13.039  20.089  0.00  0.00    +0.000 A 
ATOM      6  C   UNL     1      10.241  14.446  20.367  0.00  0.00    +0.000 A 
ATOM      7  O   UNL     1      10.143  14.914  21.497  0.00  0.00    +0.000 OA
ATOM      8  C   UNL     1      10.696  15.254  19.232  0.00  0.00    +0.000 A 
ATOM      9  C   UNL     1      11.065  16.593  19.409  0.00  0.00    +0.000 A 
ATOM     10  C   UNL     1      11.493  17.341  18.313  0.00  0.00    +0.000 A 
ATOM     11  C   UNL     1      11.546  16.754  17.046  0.00  0.00    +0.000 A 
ATOM     12  C   UNL     1      11.179  15.415  16.876  0.00  0.00    +0.000 A 
ATOM     13  C   UNL     1      10.751  14.662  17.972  0.00  0.00    +0.000 A 
ATOM     14  O   UNL     1      10.420  13.353  17.723  0.00  0.00    +0.000 OA
ATOM     15  C   UNL     1      10.029  12.571  18.783  0.00  0.00    +0.000 A 
ATOM     16  C   UNL     1       9.743  11.234  18.503  0.00  0.00    +0.000 A 
ENDBRANCH   1   2
BRANCH   1  17
ATOM     17  C   UNL     1       8.261   8.908  17.994  0.00  0.00    +0.000 C 
BRANCH  17  19
ATOM     18  O   UNL     1       8.110   6.590  18.674  0.00  0.00    +0.000 OA
ATOM     19  C   UNL     1       7.763   7.468  17.889  0.00  0.00    +0.000 C 
ATOM     20  N   UNL     1       6.820   7.271  16.904  0.00  0.00    +0.000 N 
ATOM     21  H   UNL     1       6.792   7.984  16.183  0.00  0.00    +0.000 HD
BRANCH  20  22
ATOM     22  CA  UNL     1       6.242   5.963  16.644  0.00  0.00    +0.000 C 
BRANCH  22  23
ATOM     23  C   UNL     1       4.854   5.822  17.244  0.00  0.00    +0.000 A 
ATOM     24  C   UNL     1       4.241   4.557  17.271  0.00  0.00    +0.000 A 
ATOM     25  C   UNL     1       2.918   4.415  17.690  0.00  0.00    +0.000 A 
ATOM     26  C   UNL     1       2.192   5.530  18.101  0.00  0.00    +0.000 A 
ATOM     27  C   UNL     1       2.792   6.786  18.106  0.00  0.00    +0.000 A 
ATOM     28  C   UNL     1       4.111   6.934  17.676  0.00  0.00    +0.000 A 
ENDBRANCH  22  23
BRANCH  22  29
ATOM     29  C   UNL     1       6.170   5.631  15.133  0.00  0.00    +0.000 C 
BRANCH  29  30
ATOM     30  O   UNL     1       7.439   5.349  14.546  0.00  0.00    +0.000 OA
ATOM     31  H   UNL     1       7.765   6.171  14.135  0.00  0.00    +0.000 HD
ENDBRANCH  29  30
ENDBRANCH  22  29
ENDBRANCH  20  22
ENDBRANCH  17  19
ENDBRANCH   1  17
TORSDOF 7
ENDMDL
MODEL 6
REMARK VINA RESULT:      -8.1      5.561      8.336
REMARK  Name = 
REMARK  7 active torsions:
REMARK  status: ('A' for Active; 'I' for Inactive)
REMARK    1  A    between atoms: C_2  and  C_3
REMARK    2  A    between atoms: C_3  and  O_4
REMARK    3  A    between atoms: O_4  and  C_5
REMARK    4  A    between atoms: N_20  and  CA_21
REMARK    5  A    between atoms: CA_21  and  C_22
REMARK    6  A    between atoms: CA_21  and  C_24
REMARK    7  A    between atoms: C_22  and  O_23
REMARK                            x       y       z     vdW  Elec       q    Type
REMARK                         _______ _______ _______ _____ _____    ______ ____
ROOT
ATOM      1  O   UNL     1       2.531   7.693  17.447  0.00  0.00    +0.000 OA
ENDROOT
BRANCH   1   2
ATOM      2  C   UNL     1       1.974   8.127  18.619  0.00  0.00    +0.000 A 
ATOM      3  C   UNL     1       2.089   7.491  19.858  0.00  0.00    +0.000 A 
ATOM      4  C   UNL     1       1.483   8.040  20.990  0.00  0.00    +0.000 A 
ATOM      5  C   UNL     1       0.759   9.228  20.880  0.00  0.00    +0.000 A 
ATOM      6  C   UNL     1       0.133   9.842  22.062  0.00  0.00    +0.000 A 
ATOM      7  O   UNL     1       0.207   9.318  23.169  0.00  0.00    +0.000 OA
ATOM      8  C   UNL     1      -0.574  11.109  21.851  0.00  0.00    +0.000 A 
ATOM      9  C   UNL     1      -1.170  11.782  22.925  0.00  0.00    +0.000 A 
ATOM     10  C   UNL     1      -1.838  12.985  22.698  0.00  0.00    +0.000 A 
ATOM     11  C   UNL     1      -1.914  13.507  21.405  0.00  0.00    +0.000 A 
ATOM     12  C   UNL     1      -1.315  12.830  20.337  0.00  0.00    +0.000 A 
ATOM     13  C   UNL     1      -0.643  11.626  20.560  0.00  0.00    +0.000 A 
ATOM     14  O   UNL     1      -0.072  11.031  19.462  0.00  0.00    +0.000 OA
ATOM     15  C   UNL     1       0.627   9.864  19.649  0.00  0.00    +0.000 A 
ATOM     16  C   UNL     1       1.233   9.310  18.519  0.00  0.00    +0.000 A 
ENDBRANCH   1   2
BRANCH   1  17
ATOM     17  C   UNL     1       3.957   7.660  17.399  0.00  0.00    +0.000 C 
BRANCH  17  19
ATOM     18  O   UNL     1       4.016   5.326  18.038  0.00  0.00    +0.000 OA
ATOM     19  C   UNL     1       4.470   6.223  17.333  0.00  0.00    +0.000 C 
ATOM     20  N   UNL     1       5.408   6.008  16.347  0.00  0.00    +0.000 N 
ATOM     21  H   UNL     1       5.870   6.841  16.000  0.00  0.00    +0.000 HD
BRANCH  20  22
ATOM     22  CA  UNL     1       6.023   4.706  16.143  0.00  0.00    +0.000 C 
BRANCH  22  23
ATOM     23  C   UNL     1       6.434   4.490  14.696  0.00  0.00    +0.000 A 
ATOM     24  C   UNL     1       7.475   5.264  14.154  0.00  0.00    +0.000 A 
ATOM     25  C   UNL     1       7.788   5.187  12.796  0.00  0.00    +0.000 A 
ATOM     26  C   UNL     1       7.075   4.328  11.963  0.00  0.00    +0.000 A 
ATOM     27  C   UNL     1       6.059   3.535  12.489  0.00  0.00    +0.000 A 
ATOM     28  C   UNL     1       5.736   3.618  13.844  0.00  0.00    +0.000 A 
ENDBRANCH  22  23
BRANCH  22  29
ATOM     29  C   UNL     1       7.256   4.478  17.052  0.00  0.00    +0.000 C 
BRANCH  29  30
ATOM     30  O   UNL     1       6.922   4.150  18.399  0.00  0.00    +0.000 OA
ATOM     31  H   UNL     1       6.003   4.436  18.555  0.00  0.00    +0.000 HD
ENDBRANCH  29  30
ENDBRANCH  22  29
ENDBRANCH  20  22
ENDBRANCH  17  19
ENDBRANCH   1  17
TORSDOF 7
ENDMDL
MODEL 7
REMARK VINA RESULT:      -8.1      2.553     10.643
REMARK  Name = 
REMARK  7 active torsions:
REMARK  status: ('A' for Active; 'I' for Inactive)
REMARK    1  A    between atoms: C_2  and  C_3
REMARK    2  A    between atoms: C_3  and  O_4
REMARK    3  A    between atoms: O_4  and  C_5
REMARK    4  A    between atoms: N_20  and  CA_21
REMARK    5  A    between atoms: CA_21  and  C_22
REMARK    6  A    between atoms: CA_21  and  C_24
REMARK    7  A    between atoms: C_22  and  O_23
REMARK                            x       y       z     vdW  Elec       q    Type
REMARK                         _______ _______ _______ _____ _____    ______ ____
ROOT
ATOM      1  O   UNL     1       8.965   9.209  19.002  0.00  0.00    +0.000 OA
ENDROOT
BRANCH   1   2
ATOM      2  C   UNL     1       9.472  10.478  18.947  0.00  0.00    +0.000 A 
ATOM      3  C   UNL     1      10.048  11.076  17.823  0.00  0.00    +0.000 A 
ATOM      4  C   UNL     1      10.520  12.389  17.887  0.00  0.00    +0.000 A 
ATOM      5  C   UNL     1      10.416  13.104  19.082  0.00  0.00    +0.000 A 
ATOM      6  C   UNL     1      10.881  14.497  19.169  0.00  0.00    +0.000 A 
ATOM      7  O   UNL     1      11.395  15.061  18.208  0.00  0.00    +0.000 OA
ATOM      8  C   UNL     1      10.695  15.176  20.455  0.00  0.00    +0.000 A 
ATOM      9  C   UNL     1      11.076  16.513  20.619  0.00  0.00    +0.000 A 
ATOM     10  C   UNL     1      10.890  17.135  21.853  0.00  0.00    +0.000 A 
ATOM     11  C   UNL     1      10.332  16.422  22.917  0.00  0.00    +0.000 A 
ATOM     12  C   UNL     1       9.951  15.087  22.745  0.00  0.00    +0.000 A 
ATOM     13  C   UNL     1      10.135  14.460  21.510  0.00  0.00    +0.000 A 
ATOM     14  O   UNL     1       9.724  13.153  21.421  0.00  0.00    +0.000 OA
ATOM     15  C   UNL     1       9.856  12.515  20.211  0.00  0.00    +0.000 A 
ATOM     16  C   UNL     1       9.387  11.201  20.142  0.00  0.00    +0.000 A 
ENDBRANCH   1   2
BRANCH   1  17
ATOM     17  C   UNL     1       8.117   8.819  17.922  0.00  0.00    +0.000 C 
BRANCH  17  19
ATOM     18  O   UNL     1       8.183   6.608  18.906  0.00  0.00    +0.000 OA
ATOM     19  C   UNL     1       7.784   7.331  17.996  0.00  0.00    +0.000 C 
ATOM     20  N   UNL     1       6.921   6.900  17.013  0.00  0.00    +0.000 N 
ATOM     21  H   UNL     1       6.853   7.504  16.201  0.00  0.00    +0.000 HD
BRANCH  20  22
ATOM     22  CA  UNL     1       6.502   5.511  16.912  0.00  0.00    +0.000 C 
BRANCH  22  23
ATOM     23  C   UNL     1       5.057   5.318  17.339  0.00  0.00    +0.000 A 
ATOM     24  C   UNL     1       4.454   4.059  17.173  0.00  0.00    +0.000 A 
ATOM     25  C   UNL     1       3.093   3.882  17.428  0.00  0.00    +0.000 A 
ATOM     26  C   UNL     1       2.319   4.954  17.863  0.00  0.00    +0.000 A 
ATOM     27  C   UNL     1       2.906   6.201  18.057  0.00  0.00    +0.000 A 
ATOM     28  C   UNL     1       4.263   6.385  17.792  0.00  0.00    +0.000 A 
ENDBRANCH  22  23
BRANCH  22  29
ATOM     29  C   UNL     1       6.685   4.934  15.487  0.00  0.00    +0.000 C 
BRANCH  29  30
ATOM     30  O   UNL     1       6.086   5.727  14.465  0.00  0.00    +0.000 OA
ATOM     31  H   UNL     1       6.783   5.962  13.824  0.00  0.00    +0.000 HD
ENDBRANCH  29  30
ENDBRANCH  22  29
ENDBRANCH  20  22
ENDBRANCH  17  19
ENDBRANCH   1  17
TORSDOF 7
ENDMDL
MODEL 8
REMARK VINA RESULT:      -8.0      6.005      9.075
REMARK  Name = 
REMARK  7 active torsions:
REMARK  status: ('A' for Active; 'I' for Inactive)
REMARK    1  A    between atoms: C_2  and  C_3
REMARK    2  A    between atoms: C_3  and  O_4
REMARK    3  A    between atoms: O_4  and  C_5
REMARK    4  A    between atoms: N_20  and  CA_21
REMARK    5  A    between atoms: CA_21  and  C_22
REMARK    6  A    between atoms: CA_21  and  C_24
REMARK    7  A    between atoms: C_22  and  O_23
REMARK                            x       y       z     vdW  Elec       q    Type
REMARK                         _______ _______ _______ _____ _____    ______ ____
ROOT
ATOM      1  O   UNL     1       2.432   7.088  20.142  0.00  0.00    +0.000 OA
ENDROOT
BRANCH   1   2
ATOM      2  C   UNL     1       1.685   8.207  19.896  0.00  0.00    +0.000 A 
ATOM      3  C   UNL     1       1.569   8.852  18.662  0.00  0.00    +0.000 A 
ATOM      4  C   UNL     1       0.762   9.985  18.532  0.00  0.00    +0.000 A 
ATOM      5  C   UNL     1       0.070  10.472  19.642  0.00  0.00    +0.000 A 
ATOM      6  C   UNL     1      -0.807  11.647  19.526  0.00  0.00    +0.000 A 
ATOM      7  O   UNL     1      -0.937  12.246  18.463  0.00  0.00    +0.000 OA
ATOM      8  C   UNL     1      -1.520  12.061  20.738  0.00  0.00    +0.000 A 
ATOM      9  C   UNL     1      -2.404  13.146  20.713  0.00  0.00    +0.000 A 
ATOM     10  C   UNL     1      -3.069  13.521  21.880  0.00  0.00    +0.000 A 
ATOM     11  C   UNL     1      -2.846  12.816  23.066  0.00  0.00    +0.000 A 
ATOM     12  C   UNL     1      -1.964  11.731  23.084  0.00  0.00    +0.000 A 
ATOM     13  C   UNL     1      -1.297  11.352  21.916  0.00  0.00    +0.000 A 
ATOM     14  O   UNL     1      -0.458  10.269  22.015  0.00  0.00    +0.000 OA
ATOM     15  C   UNL     1       0.187   9.845  20.879  0.00  0.00    +0.000 A 
ATOM     16  C   UNL     1       0.997   8.715  21.004  0.00  0.00    +0.000 A 
ENDBRANCH   1   2
BRANCH   1  17
ATOM     17  C   UNL     1       1.714   5.926  20.557  0.00  0.00    +0.000 C 
BRANCH  17  19
ATOM     18  O   UNL     1       1.090   3.960  19.290  0.00  0.00    +0.000 OA
ATOM     19  C   UNL     1       1.969   4.756  19.609  0.00  0.00    +0.000 C 
ATOM     20  N   UNL     1       3.238   4.736  19.073  0.00  0.00    +0.000 N 
ATOM     21  H   UNL     1       3.930   5.279  19.578  0.00  0.00    +0.000 HD
BRANCH  20  22
ATOM     22  CA  UNL     1       3.671   3.688  18.163  0.00  0.00    +0.000 C 
BRANCH  22  23
ATOM     23  C   UNL     1       4.892   4.100  17.358  0.00  0.00    +0.000 A 
ATOM     24  C   UNL     1       4.860   3.991  15.957  0.00  0.00    +0.000 A 
ATOM     25  C   UNL     1       6.005   4.232  15.197  0.00  0.00    +0.000 A 
ATOM     26  C   UNL     1       7.194   4.596  15.823  0.00  0.00    +0.000 A 
ATOM     27  C   UNL     1       7.236   4.734  17.207  0.00  0.00    +0.000 A 
ATOM     28  C   UNL     1       6.096   4.483  17.971  0.00  0.00    +0.000 A 
ENDBRANCH  22  23
BRANCH  22  29
ATOM     29  C   UNL     1       3.976   2.354  18.889  0.00  0.00    +0.000 C 
BRANCH  29  30
ATOM     30  O   UNL     1       3.211   1.252  18.409  0.00  0.00    +0.000 OA
ATOM     31  H   UNL     1       3.752   0.780  17.749  0.00  0.00    +0.000 HD
ENDBRANCH  29  30
ENDBRANCH  22  29
ENDBRANCH  20  22
ENDBRANCH  17  19
ENDBRANCH   1  17
TORSDOF 7
ENDMDL
MODEL 9
REMARK VINA RESULT:      -8.0      5.673      8.204
REMARK  Name = 
REMARK  7 active torsions:
REMARK  status: ('A' for Active; 'I' for Inactive)
REMARK    1  A    between atoms: C_2  and  C_3
REMARK    2  A    between atoms: C_3  and  O_4
REMARK    3  A    between atoms: O_4  and  C_5
REMARK    4  A    between atoms: N_20  and  CA_21
REMARK    5  A    between atoms: CA_21  and  C_22
REMARK    6  A    between atoms: CA_21  and  C_24
REMARK    7  A    between atoms: C_22  and  O_23
REMARK                            x       y       z     vdW  Elec       q    Type
REMARK                         _______ _______ _______ _____ _____    ______ ____
ROOT
ATOM      1  O   UNL     1       2.593   7.178  18.581  0.00  0.00    +0.000 OA
ENDROOT
BRANCH   1   2
ATOM      2  C   UNL     1       1.988   8.389  18.779  0.00  0.00    +0.000 A 
ATOM      3  C   UNL     1       1.982   9.453  17.873  0.00  0.00    +0.000 A 
ATOM      4  C   UNL     1       1.316  10.640  18.186  0.00  0.00    +0.000 A 
ATOM      5  C   UNL     1       0.657  10.762  19.410  0.00  0.00    +0.000 A 
ATOM      6  C   UNL     1      -0.074  11.992  19.752  0.00  0.00    +0.000 A 
ATOM      7  O   UNL     1      -0.105  12.951  18.988  0.00  0.00    +0.000 OA
ATOM      8  C   UNL     1      -0.766  12.011  21.045  0.00  0.00    +0.000 A 
ATOM      9  C   UNL     1      -1.515  13.125  21.439  0.00  0.00    +0.000 A 
ATOM     10  C   UNL     1      -2.162  13.119  22.674  0.00  0.00    +0.000 A 
ATOM     11  C   UNL     1      -2.055  12.006  23.511  0.00  0.00    +0.000 A 
ATOM     12  C   UNL     1      -1.306  10.894  23.111  0.00  0.00    +0.000 A 
ATOM     13  C   UNL     1      -0.658  10.896  21.874  0.00  0.00    +0.000 A 
ATOM     14  O   UNL     1       0.046   9.762  21.549  0.00  0.00    +0.000 OA
ATOM     15  C   UNL     1       0.667   9.714  20.325  0.00  0.00    +0.000 A 
ATOM     16  C   UNL     1       1.336   8.530  20.009  0.00  0.00    +0.000 A 
ENDBRANCH   1   2
BRANCH   1  17
ATOM     17  C   UNL     1       2.757   6.356  19.735  0.00  0.00    +0.000 C 
BRANCH  17  19
ATOM     18  O   UNL     1       3.761   4.158  19.882  0.00  0.00    +0.000 OA
ATOM     19  C   UNL     1       3.866   5.328  19.523  0.00  0.00    +0.000 C 
ATOM     20  N   UNL     1       4.944   5.805  18.809  0.00  0.00    +0.000 N 
ATOM     21  H   UNL     1       5.029   6.815  18.777  0.00  0.00    +0.000 HD
BRANCH  20  22
ATOM     22  CA  UNL     1       6.104   4.977  18.523  0.00  0.00    +0.000 C 
BRANCH  22  23
ATOM     23  C   UNL     1       6.198   4.616  17.050  0.00  0.00    +0.000 A 
ATOM     24  C   UNL     1       7.289   5.085  16.297  0.00  0.00    +0.000 A 
ATOM     25  C   UNL     1       7.339   4.888  14.916  0.00  0.00    +0.000 A 
ATOM     26  C   UNL     1       6.309   4.209  14.270  0.00  0.00    +0.000 A 
ATOM     27  C   UNL     1       5.235   3.715  15.005  0.00  0.00    +0.000 A 
ATOM     28  C   UNL     1       5.176   3.921  16.384  0.00  0.00    +0.000 A 
ENDBRANCH  22  23
BRANCH  22  29
ATOM     29  C   UNL     1       7.433   5.637  18.964  0.00  0.00    +0.000 C 
BRANCH  29  30
ATOM     30  O   UNL     1       7.760   5.411  20.332  0.00  0.00    +0.000 OA
ATOM     31  H   UNL     1       7.391   6.149  20.852  0.00  0.00    +0.000 HD
ENDBRANCH  29  30
ENDBRANCH  22  29
ENDBRANCH  20  22
ENDBRANCH  17  19
ENDBRANCH   1  17
TORSDOF 7
ENDMDL
